@<TRIPOS>MOLECULE
3R540
247   249    1
SMALL
USER_CHARGES


@<TRIPOS>ATOM
      1 CA          5.1123  -16.5586  -48.8499 C.3       0 UNK        -0.1800 
      2 C           3.9907  -15.5359  -48.7367 C.2       0 UNK         0.5000 
      3 O           4.1397  -14.5428  -48.0252 O.2       0 UNK        -0.5000 
      4 N           2.8746  -15.7783  -49.4379 N.am      1 UNK        -0.5000 
      5 CA          1.6511  -14.9673  -49.4275 C.3       1 UNK         0.1400 
      6 C6          1.8798  -13.5489  -50.0367 C.3       23 UNK        -0.0398 
      7 S7          0.3744  -12.6505  -50.5655 S.3       23 UNK        -0.2404 
      8 C8          0.0840  -13.2863  -52.2505 C.3       23 UNK        -0.0205 
      9 C9         -0.3305  -14.7509  -52.2504 C.ar      23 UNK        -0.0193 
     10 C10         0.4111  -15.6936  -52.9688 C.ar      23 UNK        -0.1150 
     11 C11         0.0581  -17.0460  -52.9392 C.ar      23 UNK        -0.0193 
     12 C12        -1.0291  -17.4552  -52.1615 C.ar      23 UNK        -0.1150 
     13 C13        -1.7724  -16.5259  -51.4304 C.ar      23 UNK        -0.0193 
     14 C14        -1.4367  -15.1715  -51.5041 C.ar      23 UNK        -0.1150 
     15 C15        -2.9049  -16.9878  -50.5252 C.3       23 UNK        -0.0205 
     16 S16        -2.4462  -16.7425  -48.7813 S.3       23 UNK        -0.2404 
     17 C17        -3.2878  -18.1281  -47.9387 C.3       23 UNK        -0.0398 
     18 CA         -2.4935  -19.4658  -47.9508 C.3       11 UNK         0.1400 
     19 N          -1.0452  -19.2747  -47.8630 N.am      11 UNK        -0.5000 
     20 C          -0.1170  -20.2313  -47.9946 C.2       10 UNK         0.5000 
     21 O          -0.3694  -21.4185  -48.1925 O.2       10 UNK        -0.5000 
     22 CA          1.3400  -19.7749  -47.8189 C.3       10 UNK         0.1400 
     23 CB          1.8836  -19.2075  -49.1387 C.3       10 UNK        -0.1800 
     24 N           1.4743  -18.7677  -46.7649 N.am      10 UNK        -0.5000 
     25 C           1.1985  -18.9780  -45.4729 C.2       9 UNK         0.5000 
     26 O           0.8002  -20.0516  -45.0131 O.2       9 UNK        -0.5000 
     27 CA          1.2925  -17.7512  -44.5565 C.3       9 UNK         0.1400 
     28 CB         -0.1060  -17.1488  -44.3713 C.3       9 UNK        -0.1800 
     29 N           1.8345  -18.1048  -43.2512 N.am      9 UNK        -0.5000 
     30 C           3.0907  -18.5157  -43.0273 C.2       8 UNK         0.5000 
     31 O           3.9880  -18.4838  -43.8704 O.2       8 UNK        -0.5000 
     32 CA          3.3684  -19.1112  -41.6375 C.3       8 UNK         0.1400 
     33 CB          3.6558  -18.0044  -40.6114 C.3       8 UNK        -0.1800 
     34 N           2.2152  -19.8931  -41.1986 N.am      8 UNK        -0.5000 
     35 C           1.9768  -21.1686  -41.5342 C.2       7 UNK         0.5000 
     36 O           2.8066  -21.8845  -42.0958 O.2       7 UNK        -0.5000 
     37 CA          0.5668  -21.7309  -41.2318 C.3       7 UNK         0.1400 
     38 CB          0.6044  -23.1791  -40.7038 C.3       7 UNK        -0.1800 
     39 N          -0.2537  -20.8641  -40.3725 N.am      7 UNK        -0.5000 
     40 C          -0.0190  -20.5185  -39.0982 C.2       6 UNK         0.5000 
     41 O           0.8705  -21.0203  -38.4098 O.2       6 UNK        -0.5000 
     42 CA         -0.9000  -19.3941  -38.5054 C.3       6 UNK         0.1400 
     43 CB         -0.1090  -18.5195  -37.5105 C.3       6 UNK        -0.1800 
     44 N          -1.5802  -18.5234  -39.4806 N.am      6 UNK        -0.5000 
     45 C          -1.0282  -17.7787  -40.4528 C.2       5 UNK         0.5000 
     46 O           0.1386  -17.9023  -40.8298 O.2       5 UNK        -0.5000 
     47 CA         -1.9332  -16.7388  -41.1536 C.3       5 UNK         0.1400 
     48 CB         -3.3093  -16.5389  -40.4793 C.3       5 UNK        -0.1800 
     49 N          -1.2587  -15.4461  -41.3323 N.am      5 UNK        -0.5000 
     50 C          -0.7431  -14.6651  -40.3704 C.2       4 UNK         0.5000 
     51 O          -0.7793  -14.9425  -39.1698 O.2       4 UNK        -0.5000 
     52 CA         -0.1280  -13.3233  -40.8270 C.3       4 UNK         0.1400 
     53 CB          0.8324  -12.7177  -39.7807 C.3       4 UNK        -0.1800 
     54 N           0.5059  -13.3544  -42.1522 N.am      4 UNK        -0.5000 
     55 C           1.5932  -14.0425  -42.5268 C.2       3 UNK         0.5000 
     56 O           2.1571  -14.8734  -41.8148 O.2       3 UNK        -0.5000 
     57 CA          2.1441  -13.7227  -43.9363 C.3       3 UNK         0.1400 
     58 CB          3.4912  -14.4128  -44.2188 C.3       3 UNK        -0.1800 
     59 N           1.2070  -14.0507  -45.0140 N.am      3 UNK        -0.5000 
     60 C           0.0999  -13.3704  -45.3356 C.2       2 UNK         0.5000 
     61 O          -0.2751  -12.3680  -44.7237 O.2       2 UNK        -0.5000 
     62 CA         -0.7082  -13.8954  -46.5423 C.3       2 UNK         0.1400 
     63 CB         -1.9309  -13.0197  -46.8675 C.3       2 UNK        -0.1800 
     64 N           0.1082  -14.0135  -47.7498 N.am      2 UNK        -0.5000 
     65 C           0.9567  -15.0041  -48.0423 C.2       1 UNK         0.5000 
     66 O           1.1699  -15.9475  -47.2747 O.2       1 UNK        -0.5000 
     67 C          -2.9970  -20.4068  -46.8380 C.2       11 UNK         0.5000 
     68 O          -3.7797  -21.3163  -47.1098 O.2       11 UNK        -0.5000 
     69 N          -2.5054  -20.1835  -45.6104 N.am      12 UNK        -0.5000 
     70 CA         -2.8311  -20.9817  -44.4308 C.3       12 UNK         0.1400 
     71 CB         -2.4343  -20.2142  -43.1609 C.3       12 UNK        -0.1800 
     72 C          -2.1655  -22.3659  -44.4689 C.2       12 UNK         0.5000 
     73 O          -2.8309  -23.3598  -44.1802 O.2       12 UNK        -0.5000 
     74 N          -0.8824  -22.4126  -44.8576 N.am      13 UNK        -0.5000 
     75 CA         -0.0941  -23.6416  -44.9872 C.3       13 UNK         0.1400 
     76 CB          1.3611  -23.2811  -45.3186 C.3       13 UNK        -0.1800 
     77 C          -0.6606  -24.6188  -46.0348 C.2       13 UNK         0.5000 
     78 O          -0.6474  -25.8292  -45.8092 O.2       13 UNK        -0.5000 
     79 N          -1.1801  -24.0722  -47.1413 N.am      14 UNK        -0.5000 
     80 CA         -1.8480  -24.8171  -48.2083 C.3       14 UNK         0.1400 
     81 CB         -1.7438  -24.0028  -49.5052 C.3       14 UNK        -0.1800 
     82 C          -3.3241  -25.1440  -47.9049 C.2       14 UNK         0.5000 
     83 O          -3.9613  -25.8022  -48.7262 O.2       14 UNK        -0.5000 
     84 N          -3.8607  -24.6596  -46.7737 N.am      15 UNK        -0.5000 
     85 CA         -5.2586  -24.7815  -46.3412 C.3       15 UNK         0.1400 
     86 CB         -5.5872  -26.2405  -45.9627 C.3       15 UNK        -0.1800 
     87 C          -6.2427  -24.1810  -47.3691 C.2       15 UNK         0.5000 
     88 O          -7.2292  -24.8183  -47.7406 O.2       15 UNK        -0.5000 
     89 N          -5.9138  -22.9667  -47.8308 N.am      16 UNK        -0.5000 
     90 CA         -6.6010  -22.1367  -48.8246 C.3       16 UNK         0.1400 
     91 CB         -8.0712  -21.8780  -48.4376 C.3       16 UNK        -0.1800 
     92 C          -6.4639  -22.6150  -50.2838 C.2       16 UNK         0.5000 
     93 O          -6.9198  -21.9026  -51.1779 O.2       16 UNK        -0.5000 
     94 N          -5.8097  -23.7599  -50.5370 N.am      17 UNK        -0.5000 
     95 CA         -5.6187  -24.3107  -51.8855 C.3       17 UNK         0.1400 
     96 CB         -5.0505  -25.7335  -51.7926 C.3       17 UNK        -0.1800 
     97 C          -4.7294  -23.4327  -52.7880 C.2       17 UNK         0.5000 
     98 O          -4.9203  -23.4202  -54.0038 O.2       17 UNK        -0.5000 
     99 N          -3.8085  -22.6731  -52.1772 N.am      18 UNK        -0.5000 
    100 CA        -2.9205  -21.7273  -52.8571 C.3       18 UNK         0.1400 
    101 CB        -1.7614  -21.3493  -51.9240 C.3       18 UNK        -0.1800 
    102 C         -3.6355  -20.4715  -53.3973 C.2       18 UNK         0.5000 
    103 O         -3.0225  -19.7191  -54.1529 O.2       18 UNK        -0.5000 
    104 N         -4.9185  -20.2708  -53.0563 N.am      19 UNK        -0.5000 
    105 CA        -5.7676  -19.2381  -53.6575 C.3       19 UNK         0.1400 
    106 CB        -7.0942  -19.1503  -52.8898 C.3       19 UNK        -0.1800 
    107 C         -6.0253  -19.4760  -55.1608 C.2       19 UNK         0.5000 
    108 O         -6.2766  -18.5163  -55.8908 O.2       19 UNK        -0.5000 
    109 N         -5.9123  -20.7342  -55.6131 N.am      20 UNK        -0.5000 
    110 CA        -5.9543  -21.1387  -57.0175 C.3       20 UNK         0.1400 
    111 CB        -6.3615  -22.6203  -57.0974 C.3       20 UNK        -0.1800 
    112 C         -4.6074  -20.8521  -57.7158 C.2       20 UNK         0.5000 
    113 O         -3.9052  -21.7804  -58.1229 O.2       20 UNK        -0.5000 
    114 N         -4.2626  -19.5596  -57.8087 N.am      21 UNK        -0.5000 
    115 CA        -3.0939  -18.9857  -58.4888 C.3       21 UNK         0.1400 
    116 CB        -3.2875  -19.0678  -60.0171 C.3       21 UNK        -0.1800 
    117 C         -1.7404  -19.5725  -58.0290 C.2       21 UNK         0.5000 
    118 O         -0.8332  -19.7410  -58.8463 O.2       21 UNK        -0.5000 
    119 N         -1.6366  -19.8850  -56.7306 N.am      22 UNK        -0.5000 
    120 CA        -0.4720  -20.5038  -56.0733 C.3       22 UNK         0.1400 
    121 C         -0.2016  -21.9816  -56.4907 C.2       22 UNK         0.5000 
    122 N         -1.1297  -22.6701  -57.1463 N.am      22 UNK        -0.7600 
    123 O          0.8535  -22.5304  -56.1853 O.2       22 UNK        -0.5000 
    124 C124        0.8062  -19.6162  -56.1053 C.3       23 UNK        -0.0398 
    125 S125        0.4923  -17.9150  -55.5175 S.3       23 UNK        -0.2404 
    126 C126        0.8532  -18.0652  -53.7409 C.3       23 UNK        -0.0205 
    127 H127        5.2682  -17.0494  -47.8891 H         1 UNK         0.0600 
    128 H128        6.0414  -16.0672  -49.1385 H         1 UNK         0.0600 
    129 H129        4.8901  -17.3252  -49.5927 H         1 UNK         0.0600 
    130 H130        2.8246  -16.6176  -49.9961 H         1 UNK         0.3000 
    131 H131        0.9731  -15.5114  -50.0803 H         1 UNK         0.0600 
    132 H132        2.4181  -12.9173  -49.3283 H         1 UNK         0.0800 
    133 H133        2.5324  -13.6282  -50.9072 H         1 UNK         0.0800 
    134 H134        0.9792  -13.1287  -52.8541 H         1 UNK         0.0800 
    135 H135       -0.7089  -12.6994  -52.7160 H         1 UNK         0.0800 
    136 H136        1.2627  -15.3788  -53.5555 H         1 UNK         0.1150 
    137 H137       -1.2960  -18.4992  -52.1198 H         1 UNK         0.1150 
    138 H138       -2.0058  -14.4500  -50.9344 H         1 UNK         0.1150 
    139 H139       -3.8131  -16.4263  -50.7478 H         1 UNK         0.0800 
    140 H140       -3.1330  -18.0392  -50.7070 H         1 UNK         0.0800 
    141 H141       -4.2774  -18.2704  -48.3762 H         1 UNK         0.0800 
    142 H142       -3.4626  -17.7901  -46.9153 H         1 UNK         0.0800 
    143 H143       -2.6884  -19.9586  -48.9045 H         1 UNK         0.0600 
    144 H144       -0.7362  -18.3226  -47.7282 H         1 UNK         0.3000 
    145 H145        1.9373  -20.6447  -47.5391 H         1 UNK         0.0600 
    146 H146        2.9318  -18.9256  -49.0425 H         1 UNK         0.0600 
    147 H147        1.8181  -19.9477  -49.9373 H         1 UNK         0.0600 
    148 H148        1.3230  -18.3287  -49.4605 H         1 UNK         0.0600 
    149 H149        1.6873  -17.8192  -47.0600 H         1 UNK         0.3000 
    150 H150        1.9490  -17.0125  -45.0152 H         1 UNK         0.0600 
    151 H151       -0.5534  -16.8937  -45.3313 H         1 UNK         0.0600 
    152 H152       -0.0683  -16.2428  -43.7704 H         1 UNK         0.0600 
    153 H153       -0.7778  -17.8503  -43.8808 H         1 UNK         0.0600 
    154 H154        1.1810  -18.1268  -42.4759 H         1 UNK         0.3000 
    155 H155        4.2472  -19.7558  -41.7055 H         1 UNK         0.0600 
    156 H156        2.8113  -17.3225  -40.5035 H         1 UNK         0.0600 
    157 H157        4.5189  -17.4096  -40.9124 H         1 UNK         0.0600 
    158 H158        3.8735  -18.4247  -39.6295 H         1 UNK         0.0600 
    159 H159        1.4621  -19.3605  -40.7761 H         1 UNK         0.3000 
    160 H160        0.0586  -21.7581  -42.1955 H         1 UNK         0.0600 
    161 H161        1.1753  -23.2615  -39.7790 H         1 UNK         0.0600 
    162 H162        1.0673  -23.8470  -41.4311 H         1 UNK         0.0600 
    163 H163       -0.4007  -23.5557  -40.5148 H         1 UNK         0.0600 
    164 H164       -1.0059  -20.3773  -40.8361 H         1 UNK         0.3000 
    165 H165       -1.6891  -19.8991  -37.9467 H         1 UNK         0.0600 
    166 H166        0.7339  -18.0246  -37.9948 H         1 UNK         0.0600 
    167 H167       -0.7424  -17.7467  -37.0747 H         1 UNK         0.0600 
    168 H168        0.2870  -19.1129  -36.6857 H         1 UNK         0.0600 
    169 H169       -2.5606  -18.3690  -39.2907 H         1 UNK         0.3000 
    170 H170       -2.1223  -17.1251  -42.1539 H         1 UNK         0.0600 
    171 H171       -3.8929  -17.4603  -40.4835 H         1 UNK         0.0600 
    172 H172       -3.2151  -16.2049  -39.4452 H         1 UNK         0.0600 
    173 H173       -3.8979  -15.7921  -41.0124 H         1 UNK         0.0600 
    174 H174       -1.1536  -15.1313  -42.2847 H         1 UNK         0.3000 
    175 H175       -0.9705  -12.6369  -40.9218 H         1 UNK         0.0600 
    176 H176        0.3206  -12.5386  -38.8344 H         1 UNK         0.0600 
    177 H177        1.6754  -13.3785  -39.5756 H         1 UNK         0.0600 
    178 H178        1.2301  -11.7602  -40.1169 H         1 UNK         0.0600 
    179 H179        0.0963  -12.7413  -42.8524 H         1 UNK         0.3000 
    180 H180        2.3248  -12.6462  -43.9662 H         1 UNK         0.0600 
    181 H181        3.4154  -15.4980  -44.1663 H         1 UNK         0.0600 
    182 H182        4.2436  -14.1064  -43.4912 H         1 UNK         0.0600 
    183 H183        3.8712  -14.1503  -45.2063 H         1 UNK         0.0600 
    184 H184        1.4429  -14.8471  -45.5951 H         1 UNK         0.3000 
    185 H185       -1.0832  -14.8841  -46.2769 H         1 UNK         0.0600 
    186 H186       -2.5986  -12.9420  -46.0085 H         1 UNK         0.0600 
    187 H187       -1.6381  -12.0083  -47.1519 H         1 UNK         0.0600 
    188 H188       -2.5099  -13.4443  -47.6882 H         1 UNK         0.0600 
    189 H189       -0.0080  -13.2788  -48.4361 H         1 UNK         0.3000 
    190 H190       -1.8192  -19.4545  -45.4916 H         1 UNK         0.3000 
    191 H191       -3.9127  -21.1332  -44.4081 H         1 UNK         0.0600 
    192 H192       -2.6892  -20.7859  -42.2677 H         1 UNK         0.0600 
    193 H193       -2.9635  -19.2637  -43.0981 H         1 UNK         0.0600 
    194 H194       -1.3642  -20.0091  -43.1310 H         1 UNK         0.0600 
    195 H195       -0.3920  -21.5439  -45.0555 H         1 UNK         0.3000 
    196 H196       -0.1082  -24.1473  -44.0194 H         1 UNK         0.0600 
    197 H197        1.4363  -22.7510  -46.2684 H         1 UNK         0.0600 
    198 H198        1.7961  -22.6461  -44.5472 H         1 UNK         0.0600 
    199 H199        1.9802  -24.1761  -45.3900 H         1 UNK         0.0600 
    200 H200       -1.0912  -23.0703  -47.2815 H         1 UNK         0.3000 
    201 H201       -1.3283  -25.7653  -48.3599 H         1 UNK         0.0600 
    202 H202       -2.2743  -23.0537  -49.4204 H         1 UNK         0.0600 
    203 H203       -2.1641  -24.5464  -50.3516 H         1 UNK         0.0600 
    204 H204       -0.7034  -23.7853  -49.7475 H         1 UNK         0.0600 
    205 H205       -3.2618  -24.1319  -46.1506 H         1 UNK         0.3000 
    206 H206       -5.3540  -24.1778  -45.4375 H         1 UNK         0.0600 
    207 H207       -4.8871  -26.6201  -45.2184 H         1 UNK         0.0600 
    208 H208       -6.5877  -26.3165  -45.5354 H         1 UNK         0.0600 
    209 H209       -5.5500  -26.9041  -46.8272 H         1 UNK         0.0600 
    210 H210       -5.0630  -22.5390  -47.4663 H         1 UNK         0.3000 
    211 H211       -6.0895  -21.1738  -48.7887 H         1 UNK         0.0600 
    212 H212       -8.5160  -21.1208  -49.0844 H         1 UNK         0.0600 
    213 H213       -8.1524  -21.5155  -47.4129 H         1 UNK         0.0600 
    214 H214       -8.6819  -22.7765  -48.5277 H         1 UNK         0.0600 
    215 H215       -5.4614  -24.3118  -49.7632 H         1 UNK         0.3000 
    216 H216       -6.6015  -24.3725  -52.3578 H         1 UNK         0.0600 
    217 H217       -4.0385  -25.7388  -51.3879 H         1 UNK         0.0600 
    218 H218       -5.0087  -26.1998  -52.7778 H         1 UNK         0.0600 
    219 H219       -5.6700  -26.3679  -51.1582 H         1 UNK         0.0600 
    220 H220       -3.7345  -22.7305  -51.1732 H         1 UNK         0.3000 
    221 H221       -2.4932  -22.2378  -53.7228 H         1 UNK         0.0600 
    222 H222       -1.0433  -20.7098  -52.4360 H         1 UNK         0.0600 
    223 H223       -1.2111  -22.2319  -51.6030 H         1 UNK         0.0600 
    224 H224       -2.1075  -20.8211  -51.0363 H         1 UNK         0.0600 
    225 H225       -5.3784  -20.9270  -52.4371 H         1 UNK         0.3000 
    226 H226       -5.2526  -18.2802  -53.5582 H         1 UNK         0.0600 
    227 H227       -7.6775  -20.0663  -52.9899 H         1 UNK         0.0600 
    228 H228       -6.9270  -18.9720  -51.8275 H         1 UNK         0.0600 
    229 H229       -7.7074  -18.3304  -53.2652 H         1 UNK         0.0600 
    230 H230       -5.6692  -21.4627  -54.9536 H         1 UNK         0.3000 
    231 H231       -6.7217  -20.5579  -57.5331 H         1 UNK         0.0600 
    232 H232       -5.6307  -23.2675  -56.6118 H         1 UNK         0.0600 
    233 H233       -6.4484  -22.9447  -58.1350 H         1 UNK         0.0600 
    234 H234       -7.3274  -22.7906  -56.6216 H         1 UNK         0.0600 
    235 H235       -4.8897  -18.8906  -57.3738 H         1 UNK         0.3000 
    236 H236       -3.0698  -17.9302  -58.2155 H         1 UNK         0.0600 
    237 H237       -4.2330  -18.6182  -60.3197 H         1 UNK         0.0600 
    238 H238       -2.4951  -18.5351  -60.5442 H         1 UNK         0.0600 
    239 H239       -3.2795  -20.1001  -60.3680 H         1 UNK         0.0600 
    240 H240       -2.4183  -19.7014  -56.1114 H         1 UNK         0.3000 
    241 H241       -0.7528  -20.5870  -55.0245 H         1 UNK         0.0600 
    242 H242       -0.9453  -23.6273  -57.4004 H         1 UNK         0.3800 
    243 H243       -2.0072  -22.2416  -57.4205 H         1 UNK         0.3800 
    244 H244        1.2036  -19.5584  -57.1193 H         1 UNK         0.0800 
    245 H245        1.5990  -20.0565  -55.4985 H         1 UNK         0.0800 
    246 H246        1.9214  -17.9207  -53.5731 H         1 UNK         0.0800 
    247 H247        0.6195  -19.0748  -53.4005 H         1 UNK         0.0800 
@<TRIPOS>BOND
     1    1    2 1    
     2    1  127 1    
     3    1  128 1    
     4    1  129 1    
     5    2    3 2    
     6    2    4 am   BACKBONE|DICT|INTERRES
     7    4    5 1    
     8    4  130 1    
     9    5    6 1    
    10    5   65 1    
    11    5  131 1    
    12    6    7 1    
    13    6  132 1    
    14    6  133 1    
    15    7    8 1    
    16    8    9 1    
    17    8  134 1    
    18    8  135 1    
    19    9   10 ar   
    20    9   14 ar   
    21   10   11 ar   
    22   10  136 1    
    23   11   12 ar   
    24   11  126 1    
    25   12   13 ar   
    26   12  137 1    
    27   13   14 ar   
    28   13   15 1    
    29   14  138 1    
    30   15   16 1    
    31   15  139 1    
    32   15  140 1    
    33   16   17 1    
    34   17   18 1    
    35   17  141 1    
    36   17  142 1    
    37   18   19 1    
    38   18   67 1    
    39   18  143 1    
    40   19   20 am   BACKBONE|DICT|INTERRES
    41   19  144 1    
    42   20   21 2    
    43   20   22 1    
    44   22   23 1    
    45   22   24 1    
    46   22  145 1    
    47   23  146 1    
    48   23  147 1    
    49   23  148 1    
    50   24   25 am   BACKBONE|DICT|INTERRES
    51   24  149 1    
    52   25   26 2    
    53   25   27 1    
    54   27   28 1    
    55   27   29 1    
    56   27  150 1    
    57   28  151 1    
    58   28  152 1    
    59   28  153 1    
    60   29   30 am   BACKBONE|DICT|INTERRES
    61   29  154 1    
    62   30   31 2    
    63   30   32 1    
    64   32   33 1    
    65   32   34 1    
    66   32  155 1    
    67   33  156 1    
    68   33  157 1    
    69   33  158 1    
    70   34   35 am   BACKBONE|DICT|INTERRES
    71   34  159 1    
    72   35   36 2    
    73   35   37 1    
    74   37   38 1    
    75   37   39 1    
    76   37  160 1    
    77   38  161 1    
    78   38  162 1    
    79   38  163 1    
    80   39   40 am   BACKBONE|DICT|INTERRES
    81   39  164 1    
    82   40   41 2    
    83   40   42 1    
    84   42   43 1    
    85   42   44 1    
    86   42  165 1    
    87   43  166 1    
    88   43  167 1    
    89   43  168 1    
    90   44   45 am   BACKBONE|DICT|INTERRES
    91   44  169 1    
    92   45   46 2    
    93   45   47 1    
    94   47   48 1    
    95   47   49 1    
    96   47  170 1    
    97   48  171 1    
    98   48  172 1    
    99   48  173 1    
   100   49   50 am   BACKBONE|DICT|INTERRES
   101   49  174 1    
   102   50   51 2    
   103   50   52 1    
   104   52   53 1    
   105   52   54 1    
   106   52  175 1    
   107   53  176 1    
   108   53  177 1    
   109   53  178 1    
   110   54   55 am   BACKBONE|DICT|INTERRES
   111   54  179 1    
   112   55   56 2    
   113   55   57 1    
   114   57   58 1    
   115   57   59 1    
   116   57  180 1    
   117   58  181 1    
   118   58  182 1    
   119   58  183 1    
   120   59   60 am   BACKBONE|DICT|INTERRES
   121   59  184 1    
   122   60   61 2    
   123   60   62 1    
   124   62   63 1    
   125   62   64 1    
   126   62  185 1    
   127   63  186 1    
   128   63  187 1    
   129   63  188 1    
   130   64   65 am   BACKBONE|DICT|INTERRES
   131   64  189 1    
   132   65   66 2    
   133   67   68 2    
   134   67   69 am   BACKBONE|DICT|INTERRES
   135   69   70 1    
   136   69  190 1    
   137   70   71 1    
   138   70   72 1    
   139   70  191 1    
   140   71  192 1    
   141   71  193 1    
   142   71  194 1    
   143   72   73 2    
   144   72   74 am   BACKBONE|DICT|INTERRES
   145   74   75 1    
   146   74  195 1    
   147   75   76 1    
   148   75   77 1    
   149   75  196 1    
   150   76  197 1    
   151   76  198 1    
   152   76  199 1    
   153   77   78 2    
   154   77   79 am   BACKBONE|DICT|INTERRES
   155   79   80 1    
   156   79  200 1    
   157   80   81 1    
   158   80   82 1    
   159   80  201 1    
   160   81  202 1    
   161   81  203 1    
   162   81  204 1    
   163   82   83 2    
   164   82   84 am   BACKBONE|DICT|INTERRES
   165   84   85 1    
   166   84  205 1    
   167   85   86 1    
   168   85   87 1    
   169   85  206 1    
   170   86  207 1    
   171   86  208 1    
   172   86  209 1    
   173   87   88 2    
   174   87   89 am   BACKBONE|DICT|INTERRES
   175   89   90 1    
   176   89  210 1    
   177   90   91 1    
   178   90   92 1    
   179   90  211 1    
   180   91  212 1    
   181   91  213 1    
   182   91  214 1    
   183   92   93 2    
   184   92   94 am   BACKBONE|DICT|INTERRES
   185   94   95 1    
   186   94  215 1    
   187   95   96 1    
   188   95   97 1    
   189   95  216 1    
   190   96  217 1    
   191   96  218 1    
   192   96  219 1    
   193   97   98 2    
   194   97   99 am   BACKBONE|DICT|INTERRES
   195   99  100 1    
   196   99  220 1    
   197  100  101 1    
   198  100  102 1    
   199  100  221 1    
   200  101  222 1    
   201  101  223 1    
   202  101  224 1    
   203  102  103 2    
   204  102  104 am   BACKBONE|DICT|INTERRES
   205  104  105 1    
   206  104  225 1    
   207  105  106 1    
   208  105  107 1    
   209  105  226 1    
   210  106  227 1    
   211  106  228 1    
   212  106  229 1    
   213  107  108 2    
   214  107  109 am   BACKBONE|DICT|INTERRES
   215  109  110 1    
   216  109  230 1    
   217  110  111 1    
   218  110  112 1    
   219  110  231 1    
   220  111  232 1    
   221  111  233 1    
   222  111  234 1    
   223  112  113 2    
   224  112  114 am   BACKBONE|DICT|INTERRES
   225  114  115 1    
   226  114  235 1    
   227  115  116 1    
   228  115  117 1    
   229  115  236 1    
   230  116  237 1    
   231  116  238 1    
   232  116  239 1    
   233  117  118 2    
   234  117  119 am   BACKBONE|DICT|INTERRES
   235  119  120 1    
   236  119  240 1    
   237  120  121 1    
   238  120  124 1    
   239  120  241 1    
   240  121  122 am   BACKBONE|DICT|INTERRES
   241  121  123 2    
   242  122  242 1    
   243  122  243 1    
   244  124  125 1    
   245  124  244 1    
   246  124  245 1    
   247  125  126 1    
   248  126  246 1    
   249  126  247 1    
@<TRIPOS>SUBSTRUCTURE
     1 UNK         1 GROUP             0       ****    0 ROOT    
