@<TRIPOS>MOLECULE
3R540
247   249    1
SMALL
USER_CHARGES


@<TRIPOS>ATOM
      1 CA         -0.1179  -11.8008  -53.6085 C.3       0 UNK        -0.1800 
      2 C           0.2404  -11.8264  -52.1300 C.2       0 UNK         0.5000 
      3 O          -0.1420  -10.9212  -51.3889 O.2       0 UNK        -0.5000 
      4 N           0.9538  -12.8691  -51.6880 N.am      1 UNK        -0.5000 
      5 CA          1.4111  -13.0675  -50.3047 C.3       1 UNK         0.1400 
      6 C6          2.7779  -13.8024  -50.2208 C.3       23 UNK        -0.0398 
      7 S7          2.9135  -15.3227  -51.2219 S.3       23 UNK        -0.2404 
      8 C8          2.3258  -16.5863  -50.0485 C.3       23 UNK        -0.0205 
      9 C9          2.3262  -17.9953  -50.6279 C.ar      23 UNK        -0.0193 
     10 C10         1.8485  -18.2468  -51.9182 C.ar      23 UNK        -0.1150 
     11 C11         1.7893  -19.5485  -52.4196 C.ar      23 UNK        -0.0193 
     12 C12         2.2037  -20.6112  -51.6097 C.ar      23 UNK        -0.1150 
     13 C13         2.6815  -20.3802  -50.3158 C.ar      23 UNK        -0.0193 
     14 C14         2.7541  -19.0666  -49.8396 C.ar      23 UNK        -0.1150 
     15 C15         3.1475  -21.5498  -49.4537 C.3       23 UNK        -0.0205 
     16 S16         2.5103  -21.4913  -47.7448 S.3       23 UNK        -0.2404 
     17 C17         0.7370  -21.8530  -47.9728 C.3       23 UNK        -0.0398 
     18 CA          0.2707  -23.0148  -47.0659 C.3       11 UNK         0.1400 
     19 N           0.3314  -22.6585  -45.6414 N.am      11 UNK        -0.5000 
     20 C           0.1602  -23.5226  -44.6314 C.2       10 UNK         0.5000 
     21 O          -0.0231  -24.7277  -44.7917 O.2       10 UNK        -0.5000 
     22 CA          0.1270  -22.9414  -43.2062 C.3       10 UNK         0.1400 
     23 CB          1.5447  -22.6612  -42.6865 C.3       10 UNK        -0.1800 
     24 N          -0.6919  -21.7316  -43.1172 N.am      10 UNK        -0.5000 
     25 C          -2.0165  -21.7042  -43.3258 C.2       9 UNK         0.5000 
     26 O          -2.6894  -22.7099  -43.5477 O.2       9 UNK        -0.5000 
     27 CA         -2.7026  -20.3254  -43.3346 C.3       9 UNK         0.1400 
     28 CB         -3.0667  -19.8885  -41.9086 C.3       9 UNK        -0.1800 
     29 N          -1.8925  -19.2897  -43.9753 N.am      9 UNK        -0.5000 
     30 C          -1.5098  -19.3014  -45.2595 C.2       8 UNK         0.5000 
     31 O          -1.8417  -20.1730  -46.0604 O.2       8 UNK        -0.5000 
     32 CA         -0.5369  -18.1939  -45.7028 C.3       8 UNK         0.1400 
     33 CB         -1.2781  -16.8927  -46.0490 C.3       8 UNK        -0.1800 
     34 N           0.4877  -17.9356  -44.6915 N.am      8 UNK        -0.5000 
     35 C           1.4493  -18.8120  -44.3678 C.2       7 UNK         0.5000 
     36 O           1.5883  -19.9033  -44.9179 O.2       7 UNK        -0.5000 
     37 CA          2.3719  -18.4299  -43.1974 C.3       7 UNK         0.1400 
     38 CB          3.5100  -17.5162  -43.6689 C.3       7 UNK        -0.1800 
     39 N           1.6378  -17.7834  -42.1091 N.am      7 UNK        -0.5000 
     40 C           0.7904  -18.4363  -41.3008 C.2       6 UNK         0.5000 
     41 O           0.5782  -19.6465  -41.3730 O.2       6 UNK        -0.5000 
     42 CA          0.0179  -17.5968  -40.2661 C.3       6 UNK         0.1400 
     43 CB          0.8266  -17.4660  -38.9671 C.3       6 UNK        -0.1800 
     44 N          -0.3484  -16.2616  -40.7425 N.am      6 UNK        -0.5000 
     45 C          -1.1070  -16.0039  -41.8165 C.2       5 UNK         0.5000 
     46 O          -1.5721  -16.8783  -42.5457 O.2       5 UNK        -0.5000 
     47 CA         -1.3863  -14.5291  -42.1556 C.3       5 UNK         0.1400 
     48 CB         -1.1590  -13.5614  -40.9728 C.3       5 UNK        -0.1800 
     49 N          -0.6380  -14.0768  -43.3314 N.am      5 UNK        -0.5000 
     50 C           0.6931  -14.0571  -43.5004 C.2       4 UNK         0.5000 
     51 O           1.4858  -14.5856  -42.7186 O.2       4 UNK        -0.5000 
     52 CA          1.2455  -13.3132  -44.7392 C.3       4 UNK         0.1400 
     53 CB          2.1704  -14.2182  -45.5674 C.3       4 UNK        -0.1800 
     54 N           0.2230  -12.7330  -45.6201 N.am      4 UNK        -0.5000 
     55 C          -0.5247  -11.6541  -45.3337 C.2       3 UNK         0.5000 
     56 O          -0.4306  -11.0388  -44.2714 O.2       3 UNK        -0.5000 
     57 CA         -1.5510  -11.1689  -46.3827 C.3       3 UNK         0.1400 
     58 CB         -1.2139   -9.7441  -46.8519 C.3       3 UNK        -0.1800 
     59 N          -1.6576  -12.0261  -47.5628 N.am      3 UNK        -0.5000 
     60 C          -2.2331  -13.2355  -47.6151 C.2       2 UNK         0.5000 
     61 O          -2.8030  -13.7614  -46.6596 O.2       2 UNK        -0.5000 
     62 CA         -2.1087  -13.9963  -48.9543 C.3       2 UNK         0.1400 
     63 CB         -3.3901  -13.8281  -49.7846 C.3       2 UNK        -0.1800 
     64 N          -0.9569  -13.5679  -49.7609 N.am      2 UNK        -0.5000 
     65 C           0.3267  -13.6775  -49.3838 C.2       1 UNK         0.5000 
     66 O           0.6544  -14.2081  -48.3235 O.2       1 UNK        -0.5000 
     67 C          -1.1309  -23.5161  -47.4794 C.2       11 UNK         0.5000 
     68 O          -1.2332  -24.4681  -48.2591 O.2       11 UNK        -0.5000 
     69 N          -2.1821  -22.9006  -46.9207 N.am      12 UNK        -0.5000 
     70 CA         -3.5737  -23.3006  -47.1123 C.3       12 UNK         0.1400 
     71 CB         -4.5144  -22.2211  -46.5598 C.3       12 UNK        -0.1800 
     72 C          -3.8726  -24.6765  -46.4945 C.2       12 UNK         0.5000 
     73 O          -4.4911  -25.5131  -47.1510 O.2       12 UNK        -0.5000 
     74 N          -3.3900  -24.9103  -45.2677 N.am      13 UNK        -0.5000 
     75 CA         -3.4910  -26.1959  -44.5769 C.3       13 UNK         0.1400 
     76 CB         -3.0257  -26.0322  -43.1220 C.3       13 UNK        -0.1800 
     77 C          -2.7015  -27.3169  -45.2800 C.2       13 UNK         0.5000 
     78 O          -3.1789  -28.4510  -45.3350 O.2       13 UNK        -0.5000 
     79 N          -1.5151  -26.9798  -45.8026 N.am      14 UNK        -0.5000 
     80 CA         -0.6176  -27.9058  -46.4858 C.3       14 UNK         0.1400 
     81 CB          0.7833  -27.2832  -46.5947 C.3       14 UNK        -0.1800 
     82 C          -1.1198  -28.3396  -47.8731 C.2       14 UNK         0.5000 
     83 O          -1.0999  -29.5371  -48.1631 O.2       14 UNK        -0.5000 
     84 N          -1.5130  -27.3748  -48.7181 N.am      15 UNK        -0.5000 
     85 CA         -1.7182  -27.6140  -50.1509 C.3       15 UNK         0.1400 
     86 CB         -0.3740  -27.4108  -50.8794 C.3       15 UNK        -0.1800 
     87 C          -2.8336  -26.7629  -50.7836 C.2       15 UNK         0.5000 
     88 O          -2.9207  -26.7283  -52.0119 O.2       15 UNK        -0.5000 
     89 N          -3.6540  -26.0788  -49.9698 N.am      16 UNK        -0.5000 
     90 CA         -4.7125  -25.1410  -50.3872 C.3       16 UNK         0.1400 
     91 CB         -5.8291  -25.8690  -51.1656 C.3       16 UNK        -0.1800 
     92 C          -4.1807  -23.8949  -51.1328 C.2       16 UNK         0.5000 
     93 O          -4.9425  -23.2266  -51.8323 O.2       16 UNK        -0.5000 
     94 N          -2.8856  -23.6026  -50.9644 N.am      17 UNK        -0.5000 
     95 CA         -2.1867  -22.4784  -51.5753 C.3       17 UNK         0.1400 
     96 CB         -0.7275  -22.8993  -51.8116 C.3       17 UNK        -0.1800 
     97 C          -2.2842  -21.2185  -50.6968 C.2       17 UNK         0.5000 
     98 O          -2.8283  -21.2680  -49.5927 O.2       17 UNK        -0.5000 
     99 N          -1.7577  -20.1026  -51.2149 N.am      18 UNK        -0.5000 
    100 CA        -1.7058  -18.7560  -50.6352 C.3       18 UNK         0.1400 
    101 CB        -0.9432  -18.7311  -49.3020 C.3       18 UNK        -0.1800 
    102 C         -3.0857  -18.0925  -50.5001 C.2       18 UNK         0.5000 
    103 O         -3.3211  -17.0569  -51.1209 O.2       18 UNK        -0.5000 
    104 N         -3.9781  -18.7098  -49.7190 N.am      19 UNK        -0.5000 
    105 CA        -5.3433  -18.2507  -49.4617 C.3       19 UNK         0.1400 
    106 CB        -5.9360  -19.0824  -48.3145 C.3       19 UNK        -0.1800 
    107 C         -6.2560  -18.3092  -50.7023 C.2       19 UNK         0.5000 
    108 O         -7.2372  -17.5678  -50.7649 O.2       19 UNK        -0.5000 
    109 N         -5.9116  -19.1706  -51.6666 N.am      20 UNK        -0.5000 
    110 CA        -6.5964  -19.3249  -52.9432 C.3       20 UNK         0.1400 
    111 CB        -7.5795  -20.5068  -52.8466 C.3       20 UNK        -0.1800 
    112 C         -5.5380  -19.5164  -54.0473 C.2       20 UNK         0.5000 
    113 O         -5.2671  -20.6532  -54.4300 O.2       20 UNK        -0.5000 
    114 N         -4.8969  -18.4554  -54.5550 N.am      21 UNK        -0.5000 
    115 CA        -5.0284  -17.0395  -54.1919 C.3       21 UNK         0.1400 
    116 CB        -6.1608  -16.3949  -55.0163 C.3       21 UNK        -0.1800 
    117 C         -3.6830  -16.3069  -54.3834 C.2       21 UNK         0.5000 
    118 O         -3.6678  -15.0918  -54.5839 O.2       21 UNK        -0.5000 
    119 N         -2.5775  -17.0632  -54.3550 N.am      22 UNK        -0.5000 
    120 CA        -1.2021  -16.5890  -54.5778 C.3       22 UNK         0.1400 
    121 C         -0.5793  -15.7411  -53.4313 C.2       22 UNK         0.5000 
    122 N         -1.1970  -15.6234  -52.2646 N.am      22 UNK        -0.7600 
    123 O          0.4843  -15.1567  -53.6120 O.2       22 UNK        -0.5000 
    124 C124       -0.2667  -17.7405  -55.0462 C.3       23 UNK        -0.0398 
    125 S125       -0.4263  -19.3032  -54.1004 S.3       23 UNK        -0.2404 
    126 C126        1.3087  -19.8039  -53.8427 C.3       23 UNK        -0.0205 
    127 H127        0.5087  -12.4819  -54.1845 H         1 UNK         0.0600 
    128 H128       -1.1589  -12.0924  -53.7473 H         1 UNK         0.0600 
    129 H129        0.0158  -10.7975  -54.0131 H         1 UNK         0.0600 
    130 H130        1.1818  -13.6197  -52.3343 H         1 UNK         0.3000 
    131 H131        1.5902  -12.0785  -49.8778 H         1 UNK         0.0600 
    132 H132        3.0619  -14.0142  -49.1884 H         1 UNK         0.0800 
    133 H133        3.5511  -13.1262  -50.5875 H         1 UNK         0.0800 
    134 H134        1.3045  -16.3573  -49.7476 H         1 UNK         0.0800 
    135 H135        2.9376  -16.5408  -49.1462 H         1 UNK         0.0800 
    136 H136        1.5196  -17.4265  -52.5371 H         1 UNK         0.1150 
    137 H137        2.1688  -21.6215  -51.9920 H         1 UNK         0.1150 
    138 H138        3.1226  -18.8816  -48.8404 H         1 UNK         0.1150 
    139 H139        2.8677  -22.5039  -49.9033 H         1 UNK         0.0800 
    140 H140        4.2373  -21.5351  -49.4176 H         1 UNK         0.0800 
    141 H141        0.5558  -22.0786  -49.0231 H         1 UNK         0.0800 
    142 H142        0.1686  -20.9494  -47.7532 H         1 UNK         0.0800 
    143 H143        0.9541  -23.8526  -47.2191 H         1 UNK         0.0600 
    144 H144        0.5203  -21.6853  -45.4265 H         1 UNK         0.3000 
    145 H145       -0.3234  -23.6932  -42.5548 H         1 UNK         0.0600 
    146 H146        1.5237  -22.3111  -41.6544 H         1 UNK         0.0600 
    147 H147        2.1530  -23.5661  -42.7107 H         1 UNK         0.0600 
    148 H148        2.0565  -21.9079  -43.2845 H         1 UNK         0.0600 
    149 H149       -0.2136  -20.8707  -42.8778 H         1 UNK         0.3000 
    150 H150       -3.6277  -20.4177  -43.9065 H         1 UNK         0.0600 
    151 H151       -3.7238  -20.6182  -41.4340 H         1 UNK         0.0600 
    152 H152       -3.5882  -18.9312  -41.9093 H         1 UNK         0.0600 
    153 H153       -2.1818  -19.7879  -41.2810 H         1 UNK         0.0600 
    154 H154       -1.6233  -18.4966  -43.3969 H         1 UNK         0.3000 
    155 H155       -0.0299  -18.5424  -46.6045 H         1 UNK         0.0600 
    156 H156       -0.5964  -16.1462  -46.4569 H         1 UNK         0.0600 
    157 H157       -2.0486  -17.0710  -46.8002 H         1 UNK         0.0600 
    158 H158       -1.7686  -16.4572  -45.1785 H         1 UNK         0.0600 
    159 H159        0.3886  -17.0953  -44.1417 H         1 UNK         0.3000 
    160 H160        2.8185  -19.3499  -42.8137 H         1 UNK         0.0600 
    161 H161        4.2126  -17.3123  -42.8609 H         1 UNK         0.0600 
    162 H162        3.1296  -16.5628  -44.0299 H         1 UNK         0.0600 
    163 H163        4.0715  -17.9775  -44.4823 H         1 UNK         0.0600 
    164 H164        1.7321  -16.7792  -42.0163 H         1 UNK         0.3000 
    165 H165       -0.9077  -18.1280  -40.0374 H         1 UNK         0.0600 
    166 H166        0.2521  -16.9556  -38.1939 H         1 UNK         0.0600 
    167 H167        1.0967  -18.4475  -38.5748 H         1 UNK         0.0600 
    168 H168        1.7511  -16.9086  -39.1230 H         1 UNK         0.0600 
    169 H169        0.0207  -15.4794  -40.2219 H         1 UNK         0.3000 
    170 H170       -2.4426  -14.4759  -42.4232 H         1 UNK         0.0600 
    171 H171       -1.7367  -13.8648  -40.0986 H         1 UNK         0.0600 
    172 H172       -0.1109  -13.5034  -40.6775 H         1 UNK         0.0600 
    173 H173       -1.4798  -12.5525  -41.2332 H         1 UNK         0.0600 
    174 H174       -1.1963  -13.6645  -44.0649 H         1 UNK         0.3000 
    175 H175        1.8525  -12.4899  -44.3575 H         1 UNK         0.0600 
    176 H176        1.6621  -15.1245  -45.8985 H         1 UNK         0.0600 
    177 H177        2.5448  -13.6995  -46.4499 H         1 UNK         0.0600 
    178 H178        3.0431  -14.5151  -44.9868 H         1 UNK         0.0600 
    179 H179        0.1041  -13.1883  -46.5177 H         1 UNK         0.3000 
    180 H180       -2.5252  -11.1445  -45.8902 H         1 UNK         0.0600 
    181 H181       -0.2469   -9.7052  -47.3551 H         1 UNK         0.0600 
    182 H182       -1.1744   -9.0508  -46.0106 H         1 UNK         0.0600 
    183 H183       -1.9679   -9.3673  -47.5433 H         1 UNK         0.0600 
    184 H184       -1.2185  -11.6797  -48.4032 H         1 UNK         0.3000 
    185 H185       -1.9828  -15.0564  -48.7238 H         1 UNK         0.0600 
    186 H186       -4.2583  -14.2025  -49.2408 H         1 UNK         0.0600 
    187 H187       -3.5783  -12.7814  -50.0264 H         1 UNK         0.0600 
    188 H188       -3.3346  -14.3812  -50.7217 H         1 UNK         0.0600 
    189 H189       -1.1620  -13.0500  -50.6041 H         1 UNK         0.3000 
    190 H190       -2.0216  -22.0643  -46.3663 H         1 UNK         0.3000 
    191 H191       -3.7471  -23.3696  -48.1854 H         1 UNK         0.0600 
    192 H192       -4.4310  -22.1228  -45.4784 H         1 UNK         0.0600 
    193 H193       -5.5540  -22.4566  -46.7893 H         1 UNK         0.0600 
    194 H194       -4.2934  -21.2500  -47.0020 H         1 UNK         0.0600 
    195 H195       -2.9343  -24.1534  -44.7642 H         1 UNK         0.3000 
    196 H196       -4.5431  -26.4881  -44.5656 H         1 UNK         0.0600 
    197 H197       -3.1095  -26.9727  -42.5761 H         1 UNK         0.0600 
    198 H198       -3.6317  -25.2946  -42.5956 H         1 UNK         0.0600 
    199 H199       -1.9854  -25.7102  -43.0659 H         1 UNK         0.0600 
    200 H200       -1.1612  -26.0411  -45.6410 H         1 UNK         0.3000 
    201 H201       -0.5321  -28.8042  -45.8706 H         1 UNK         0.0600 
    202 H202        1.2004  -27.0779  -45.6088 H         1 UNK         0.0600 
    203 H203        0.7662  -26.3466  -47.1527 H         1 UNK         0.0600 
    204 H204        1.4734  -27.9569  -47.1044 H         1 UNK         0.0600 
    205 H205       -1.4739  -26.4032  -48.4203 H         1 UNK         0.3000 
    206 H206       -2.0352  -28.6468  -50.3084 H         1 UNK         0.0600 
    207 H207        0.3974  -28.0698  -50.4808 H         1 UNK         0.0600 
    208 H208       -0.4588  -27.6292  -51.9446 H         1 UNK         0.0600 
    209 H209       -0.0206  -26.3836  -50.7800 H         1 UNK         0.0600 
    210 H210       -3.5483  -26.1826  -48.9673 H         1 UNK         0.3000 
    211 H211       -5.1713  -24.7590  -49.4770 H         1 UNK         0.0600 
    212 H212       -5.4947  -26.1981  -52.1495 H         1 UNK         0.0600 
    213 H213       -6.6879  -25.2145  -51.3186 H         1 UNK         0.0600 
    214 H214       -6.1838  -26.7435  -50.6201 H         1 UNK         0.0600 
    215 H215       -2.3533  -24.1548  -50.3056 H         1 UNK         0.3000 
    216 H216       -2.6400  -22.2487  -52.5422 H         1 UNK         0.0600 
    217 H217       -0.1642  -22.1105  -52.3081 H         1 UNK         0.0600 
    218 H218       -0.6755  -23.7790  -52.4536 H         1 UNK         0.0600 
    219 H219       -0.2182  -23.1427  -50.8800 H         1 UNK         0.0600 
    220 H220       -1.3386  -20.1654  -52.1342 H         1 UNK         0.3000 
    221 H221       -1.1276  -18.1613  -51.3414 H         1 UNK         0.0600 
    222 H222       -1.4905  -19.2414  -48.5110 H         1 UNK         0.0600 
    223 H223        0.0264  -19.2140  -49.3986 H         1 UNK         0.0600 
    224 H224       -0.7683  -17.7058  -48.9748 H         1 UNK         0.0600 
    225 H225       -3.7006  -19.6005  -49.3130 H         1 UNK         0.3000 
    226 H226       -5.2922  -17.2080  -49.1411 H         1 UNK         0.0600 
    227 H227       -5.3383  -18.9847  -47.4079 H         1 UNK         0.0600 
    228 H228       -6.9475  -18.7532  -48.0734 H         1 UNK         0.0600 
    229 H229       -5.9869  -20.1411  -48.5725 H         1 UNK         0.0600 
    230 H230       -5.0847  -19.7356  -51.5362 H         1 UNK         0.3000 
    231 H231       -7.1792  -18.4338  -53.1769 H         1 UNK         0.0600 
    232 H232       -7.0738  -21.4326  -52.5688 H         1 UNK         0.0600 
    233 H233       -8.3525  -20.3143  -52.1024 H         1 UNK         0.0600 
    234 H234       -8.0808  -20.6768  -53.8001 H         1 UNK         0.0600 
    235 H235       -4.2305  -18.6280  -55.2942 H         1 UNK         0.3000 
    236 H236       -5.2673  -16.9428  -53.1331 H         1 UNK         0.0600 
    237 H237       -6.3239  -15.3592  -54.7156 H         1 UNK         0.0600 
    238 H238       -5.9250  -16.3940  -56.0811 H         1 UNK         0.0600 
    239 H239       -7.1086  -16.9160  -54.8897 H         1 UNK         0.0600 
    240 H240       -2.6636  -18.0449  -54.1388 H         1 UNK         0.3000 
    241 H241       -1.2562  -15.8893  -55.4141 H         1 UNK         0.0600 
    242 H242       -0.7712  -15.0778  -51.5381 H         1 UNK         0.3800 
    243 H243       -2.0829  -16.0883  -52.0850 H         1 UNK         0.3800 
    244 H244        0.7734  -17.4112  -55.0639 H         1 UNK         0.0800 
    245 H245       -0.5036  -17.9808  -56.0833 H         1 UNK         0.0800 
    246 H246        1.3895  -20.8653  -54.0816 H         1 UNK         0.0800 
    247 H247        1.9682  -19.2928  -54.5448 H         1 UNK         0.0800 
@<TRIPOS>BOND
     1    1    2 1    
     2    1  127 1    
     3    1  128 1    
     4    1  129 1    
     5    2    3 2    
     6    2    4 am   BACKBONE|DICT|INTERRES
     7    4    5 1    
     8    4  130 1    
     9    5    6 1    
    10    5   65 1    
    11    5  131 1    
    12    6    7 1    
    13    6  132 1    
    14    6  133 1    
    15    7    8 1    
    16    8    9 1    
    17    8  134 1    
    18    8  135 1    
    19    9   10 ar   
    20    9   14 ar   
    21   10   11 ar   
    22   10  136 1    
    23   11   12 ar   
    24   11  126 1    
    25   12   13 ar   
    26   12  137 1    
    27   13   14 ar   
    28   13   15 1    
    29   14  138 1    
    30   15   16 1    
    31   15  139 1    
    32   15  140 1    
    33   16   17 1    
    34   17   18 1    
    35   17  141 1    
    36   17  142 1    
    37   18   19 1    
    38   18   67 1    
    39   18  143 1    
    40   19   20 am   BACKBONE|DICT|INTERRES
    41   19  144 1    
    42   20   21 2    
    43   20   22 1    
    44   22   23 1    
    45   22   24 1    
    46   22  145 1    
    47   23  146 1    
    48   23  147 1    
    49   23  148 1    
    50   24   25 am   BACKBONE|DICT|INTERRES
    51   24  149 1    
    52   25   26 2    
    53   25   27 1    
    54   27   28 1    
    55   27   29 1    
    56   27  150 1    
    57   28  151 1    
    58   28  152 1    
    59   28  153 1    
    60   29   30 am   BACKBONE|DICT|INTERRES
    61   29  154 1    
    62   30   31 2    
    63   30   32 1    
    64   32   33 1    
    65   32   34 1    
    66   32  155 1    
    67   33  156 1    
    68   33  157 1    
    69   33  158 1    
    70   34   35 am   BACKBONE|DICT|INTERRES
    71   34  159 1    
    72   35   36 2    
    73   35   37 1    
    74   37   38 1    
    75   37   39 1    
    76   37  160 1    
    77   38  161 1    
    78   38  162 1    
    79   38  163 1    
    80   39   40 am   BACKBONE|DICT|INTERRES
    81   39  164 1    
    82   40   41 2    
    83   40   42 1    
    84   42   43 1    
    85   42   44 1    
    86   42  165 1    
    87   43  166 1    
    88   43  167 1    
    89   43  168 1    
    90   44   45 am   BACKBONE|DICT|INTERRES
    91   44  169 1    
    92   45   46 2    
    93   45   47 1    
    94   47   48 1    
    95   47   49 1    
    96   47  170 1    
    97   48  171 1    
    98   48  172 1    
    99   48  173 1    
   100   49   50 am   BACKBONE|DICT|INTERRES
   101   49  174 1    
   102   50   51 2    
   103   50   52 1    
   104   52   53 1    
   105   52   54 1    
   106   52  175 1    
   107   53  176 1    
   108   53  177 1    
   109   53  178 1    
   110   54   55 am   BACKBONE|DICT|INTERRES
   111   54  179 1    
   112   55   56 2    
   113   55   57 1    
   114   57   58 1    
   115   57   59 1    
   116   57  180 1    
   117   58  181 1    
   118   58  182 1    
   119   58  183 1    
   120   59   60 am   BACKBONE|DICT|INTERRES
   121   59  184 1    
   122   60   61 2    
   123   60   62 1    
   124   62   63 1    
   125   62   64 1    
   126   62  185 1    
   127   63  186 1    
   128   63  187 1    
   129   63  188 1    
   130   64   65 am   BACKBONE|DICT|INTERRES
   131   64  189 1    
   132   65   66 2    
   133   67   68 2    
   134   67   69 am   BACKBONE|DICT|INTERRES
   135   69   70 1    
   136   69  190 1    
   137   70   71 1    
   138   70   72 1    
   139   70  191 1    
   140   71  192 1    
   141   71  193 1    
   142   71  194 1    
   143   72   73 2    
   144   72   74 am   BACKBONE|DICT|INTERRES
   145   74   75 1    
   146   74  195 1    
   147   75   76 1    
   148   75   77 1    
   149   75  196 1    
   150   76  197 1    
   151   76  198 1    
   152   76  199 1    
   153   77   78 2    
   154   77   79 am   BACKBONE|DICT|INTERRES
   155   79   80 1    
   156   79  200 1    
   157   80   81 1    
   158   80   82 1    
   159   80  201 1    
   160   81  202 1    
   161   81  203 1    
   162   81  204 1    
   163   82   83 2    
   164   82   84 am   BACKBONE|DICT|INTERRES
   165   84   85 1    
   166   84  205 1    
   167   85   86 1    
   168   85   87 1    
   169   85  206 1    
   170   86  207 1    
   171   86  208 1    
   172   86  209 1    
   173   87   88 2    
   174   87   89 am   BACKBONE|DICT|INTERRES
   175   89   90 1    
   176   89  210 1    
   177   90   91 1    
   178   90   92 1    
   179   90  211 1    
   180   91  212 1    
   181   91  213 1    
   182   91  214 1    
   183   92   93 2    
   184   92   94 am   BACKBONE|DICT|INTERRES
   185   94   95 1    
   186   94  215 1    
   187   95   96 1    
   188   95   97 1    
   189   95  216 1    
   190   96  217 1    
   191   96  218 1    
   192   96  219 1    
   193   97   98 2    
   194   97   99 am   BACKBONE|DICT|INTERRES
   195   99  100 1    
   196   99  220 1    
   197  100  101 1    
   198  100  102 1    
   199  100  221 1    
   200  101  222 1    
   201  101  223 1    
   202  101  224 1    
   203  102  103 2    
   204  102  104 am   BACKBONE|DICT|INTERRES
   205  104  105 1    
   206  104  225 1    
   207  105  106 1    
   208  105  107 1    
   209  105  226 1    
   210  106  227 1    
   211  106  228 1    
   212  106  229 1    
   213  107  108 2    
   214  107  109 am   BACKBONE|DICT|INTERRES
   215  109  110 1    
   216  109  230 1    
   217  110  111 1    
   218  110  112 1    
   219  110  231 1    
   220  111  232 1    
   221  111  233 1    
   222  111  234 1    
   223  112  113 2    
   224  112  114 am   BACKBONE|DICT|INTERRES
   225  114  115 1    
   226  114  235 1    
   227  115  116 1    
   228  115  117 1    
   229  115  236 1    
   230  116  237 1    
   231  116  238 1    
   232  116  239 1    
   233  117  118 2    
   234  117  119 am   BACKBONE|DICT|INTERRES
   235  119  120 1    
   236  119  240 1    
   237  120  121 1    
   238  120  124 1    
   239  120  241 1    
   240  121  122 am   BACKBONE|DICT|INTERRES
   241  121  123 2    
   242  122  242 1    
   243  122  243 1    
   244  124  125 1    
   245  124  244 1    
   246  124  245 1    
   247  125  126 1    
   248  126  246 1    
   249  126  247 1    
@<TRIPOS>SUBSTRUCTURE
     1 UNK         1 GROUP             0       ****    0 ROOT    
