@<TRIPOS>MOLECULE
3R540
247   249    1
SMALL
USER_CHARGES


@<TRIPOS>ATOM
      1 CA          4.9542  -14.0925  -46.1260 C.3       0 UNK        -0.1800 
      2 C           3.6453  -13.5540  -45.5690 C.2       0 UNK         0.5000 
      3 O           3.5631  -13.2518  -44.3805 O.2       0 UNK        -0.5000 
      4 N           2.6258  -13.4074  -46.4256 N.am      1 UNK        -0.5000 
      5 CA          1.2666  -12.9625  -46.0754 C.3       1 UNK         0.1400 
      6 C6          0.2299  -13.3511  -47.1584 C.3       23 UNK        -0.0398 
      7 S7          0.6455  -12.7701  -48.8398 S.3       23 UNK        -0.2404 
      8 C8         -0.9601  -12.9511  -49.6820 C.3       23 UNK        -0.0205 
      9 C9         -1.4670  -14.3859  -49.6445 C.ar      23 UNK        -0.0193 
     10 C10        -0.9039  -15.3551  -50.4803 C.ar      23 UNK        -0.1150 
     11 C11        -1.3492  -16.6795  -50.4313 C.ar      23 UNK        -0.0193 
     12 C12        -2.3704  -17.0287  -49.5449 C.ar      23 UNK        -0.1150 
     13 C13        -2.9426  -16.0684  -48.7058 C.ar      23 UNK        -0.0193 
     14 C14        -2.4911  -14.7476  -48.7639 C.ar      23 UNK        -0.1150 
     15 C15        -4.0376  -16.4629  -47.7264 C.3       23 UNK        -0.0205 
     16 S16        -3.4380  -16.5679  -46.0051 S.3       23 UNK        -0.2404 
     17 C17        -1.9694  -17.6449  -46.1376 C.3       23 UNK        -0.0398 
     18 CA         -2.2801  -19.1075  -46.5267 C.3       11 UNK         0.1400 
     19 N          -1.0929  -19.7922  -47.0443 N.am      11 UNK        -0.5000 
     20 C          -1.1143  -20.9605  -47.7010 C.2       10 UNK         0.5000 
     21 O          -2.1463  -21.5745  -47.9622 O.2       10 UNK        -0.5000 
     22 CA          0.2418  -21.5668  -48.0988 C.3       10 UNK         0.1400 
     23 CB          0.6777  -21.0553  -49.4788 C.3       10 UNK        -0.1800 
     24 N           1.2890  -21.2864  -47.1182 N.am      10 UNK        -0.5000 
     25 C           1.2913  -21.7197  -45.8516 C.2       9 UNK         0.5000 
     26 O           0.4187  -22.4509  -45.3836 O.2       9 UNK        -0.5000 
     27 CA          2.4152  -21.2002  -44.9397 C.3       9 UNK         0.1400 
     28 CB          3.7441  -21.9347  -45.1938 C.3       9 UNK        -0.1800 
     29 N           2.5754  -19.7424  -44.9904 N.am      9 UNK        -0.5000 
     30 C           3.0313  -18.9594  -45.9800 C.2       8 UNK         0.5000 
     31 O           3.3952  -19.3735  -47.0808 O.2       8 UNK        -0.5000 
     32 CA          3.0483  -17.4467  -45.6908 C.3       8 UNK         0.1400 
     33 CB          1.6832  -16.8386  -46.0415 C.3       8 UNK        -0.1800 
     34 N           3.3564  -17.1572  -44.2889 N.am      8 UNK        -0.5000 
     35 C           4.5506  -17.3695  -43.7154 C.2       7 UNK         0.5000 
     36 O           5.5617  -17.6986  -44.3360 O.2       7 UNK        -0.5000 
     37 CA          4.6092  -17.2394  -42.1836 C.3       7 UNK         0.1400 
     38 CB          4.8917  -15.7880  -41.7629 C.3       7 UNK        -0.1800 
     39 N           3.3682  -17.7140  -41.5646 N.am      7 UNK        -0.5000 
     40 C           3.0533  -19.0111  -41.4166 C.2       6 UNK         0.5000 
     41 O           3.8138  -19.9327  -41.7112 O.2       6 UNK        -0.5000 
     42 CA          1.6517  -19.3494  -40.8713 C.3       6 UNK         0.1400 
     43 CB          1.7101  -19.5999  -39.3572 C.3       6 UNK        -0.1800 
     44 N           0.6622  -18.3073  -41.1409 N.am      6 UNK        -0.5000 
     45 C           0.1320  -18.0391  -42.3419 C.2       5 UNK         0.5000 
     46 O           0.3675  -18.6963  -43.3566 O.2       5 UNK        -0.5000 
     47 CA         -0.7813  -16.7992  -42.4267 C.3       5 UNK         0.1400 
     48 CB         -2.2505  -17.1999  -42.2288 C.3       5 UNK        -0.1800 
     49 N          -0.4255  -15.7524  -41.4621 N.am      5 UNK        -0.5000 
     50 C           0.7461  -15.1033  -41.4606 C.2       4 UNK         0.5000 
     51 O           1.6335  -15.3154  -42.2895 O.2       4 UNK        -0.5000 
     52 CA          0.9991  -14.1487  -40.2796 C.3       4 UNK         0.1400 
     53 CB          1.5068  -14.9437  -39.0656 C.3       4 UNK        -0.1800 
     54 N           1.9846  -13.1173  -40.6005 N.am      4 UNK        -0.5000 
     55 C           1.7612  -12.0707  -41.4041 C.2       3 UNK         0.5000 
     56 O           0.6641  -11.8410  -41.9183 O.2       3 UNK        -0.5000 
     57 CA          2.9384  -11.1030  -41.6521 C.3       3 UNK         0.1400 
     58 CB          4.3183  -11.6925  -41.2946 C.3       3 UNK        -0.1800 
     59 N           2.9445  -10.7209  -43.0594 N.am      3 UNK        -0.5000 
     60 C           2.5413   -9.5441  -43.5590 C.2       2 UNK         0.5000 
     61 O           2.2347   -8.5729  -42.8660 O.2       2 UNK        -0.5000 
     62 CA          2.4541   -9.4309  -45.0977 C.3       2 UNK         0.1400 
     63 CB          3.7178   -8.7645  -45.6625 C.3       2 UNK        -0.1800 
     64 N           2.2749  -10.7321  -45.7434 N.am      2 UNK        -0.5000 
     65 C           1.1626  -11.4758  -45.6607 C.2       1 UNK         0.5000 
     66 O           0.0917  -11.0410  -45.2351 O.2       1 UNK        -0.5000 
     67 C          -2.9411  -19.8981  -45.3793 C.2       11 UNK         0.5000 
     68 O          -4.1593  -20.0762  -45.3948 O.2       11 UNK        -0.5000 
     69 N          -2.1260  -20.4307  -44.4545 N.am      12 UNK        -0.5000 
     70 CA         -2.5692  -21.3334  -43.3851 C.3       12 UNK         0.1400 
     71 CB         -1.4170  -21.5723  -42.3978 C.3       12 UNK        -0.1800 
     72 C          -3.1273  -22.6711  -43.9140 C.2       12 UNK         0.5000 
     73 O          -4.0111  -23.2527  -43.2852 O.2       12 UNK        -0.5000 
     74 N          -2.6428  -23.1008  -45.0864 N.am      13 UNK        -0.5000 
     75 CA         -3.1398  -24.2450  -45.8513 C.3       13 UNK         0.1400 
     76 CB         -1.9781  -24.8307  -46.6730 C.3       13 UNK        -0.1800 
     77 C          -4.3546  -23.9046  -46.7469 C.2       13 UNK         0.5000 
     78 O          -4.6896  -24.7066  -47.6173 O.2       13 UNK        -0.5000 
     79 N          -4.9900  -22.7401  -46.5343 N.am      14 UNK        -0.5000 
     80 CA         -6.1707  -22.2225  -47.2362 C.3       14 UNK         0.1400 
     81 CB         -7.3956  -23.1351  -47.0128 C.3       14 UNK        -0.1800 
     82 C          -5.8856  -21.9390  -48.7235 C.2       14 UNK         0.5000 
     83 O          -6.5771  -22.4545  -49.6032 O.2       14 UNK        -0.5000 
     84 N          -4.8309  -21.1476  -48.9654 N.am      15 UNK        -0.5000 
     85 CA         -4.2613  -20.7954  -50.2725 C.3       15 UNK         0.1400 
     86 CB         -5.2214  -19.9001  -51.0809 C.3       15 UNK        -0.1800 
     87 C          -3.7901  -22.0425  -51.0446 C.2       15 UNK         0.5000 
     88 O          -4.0490  -22.1731  -52.2403 O.2       15 UNK        -0.5000 
     89 N          -3.1227  -22.9478  -50.3171 N.am      16 UNK        -0.5000 
     90 CA         -2.6337  -24.2635  -50.7433 C.3       16 UNK         0.1400 
     91 CB         -1.5811  -24.1221  -51.8632 C.3       16 UNK        -0.1800 
     92 C          -3.7459  -25.2760  -51.1047 C.2       16 UNK         0.5000 
     93 O          -3.4392  -26.3174  -51.6863 O.2       16 UNK        -0.5000 
     94 N          -5.0042  -24.9714  -50.7509 N.am      17 UNK        -0.5000 
     95 CA         -6.2382  -25.7637  -50.8652 C.3       17 UNK         0.1400 
     96 CB         -6.1388  -27.0531  -50.0284 C.3       17 UNK        -0.1800 
     97 C          -6.7209  -26.0783  -52.2980 C.2       17 UNK         0.5000 
     98 O          -7.9293  -26.1963  -52.5088 O.2       17 UNK        -0.5000 
     99 N          -5.7932  -26.2256  -53.2486 N.am      18 UNK        -0.5000 
    100 CA        -6.0378  -26.5013  -54.6625 C.3       18 UNK         0.1400 
    101 CB        -4.6876  -26.8124  -55.3299 C.3       18 UNK        -0.1800 
    102 C         -6.7335  -25.3379  -55.3949 C.2       18 UNK         0.5000 
    103 O         -6.6734  -24.1905  -54.9466 O.2       18 UNK        -0.5000 
    104 N         -7.3327  -25.6543  -56.5526 N.am      19 UNK        -0.5000 
    105 CA        -7.9200  -24.6821  -57.4826 C.3       19 UNK         0.1400 
    106 CB        -8.6874  -25.4310  -58.5824 C.3       19 UNK        -0.1800 
    107 C         -6.8684  -23.7376  -58.0995 C.2       19 UNK         0.5000 
    108 O         -7.1758  -22.5788  -58.3827 O.2       19 UNK        -0.5000 
    109 N         -5.6331  -24.2367  -58.2454 N.am      20 UNK        -0.5000 
    110 CA        -4.4313  -23.4510  -58.5081 C.3       20 UNK         0.1400 
    111 CB        -3.3616  -24.3699  -59.1242 C.3       20 UNK        -0.1800 
    112 C         -3.9659  -22.8049  -57.1892 C.2       20 UNK         0.5000 
    113 O         -3.0711  -23.3316  -56.5223 O.2       20 UNK        -0.5000 
    114 N         -4.6426  -21.7133  -56.8076 N.am      21 UNK        -0.5000 
    115 CA        -4.4619  -20.9953  -55.5465 C.3       21 UNK         0.1400 
    116 CB        -5.4228  -19.7978  -55.4999 C.3       21 UNK        -0.1800 
    117 C         -3.0078  -20.5402  -55.3297 C.2       21 UNK         0.5000 
    118 O         -2.4106  -19.9465  -56.2309 O.2       21 UNK        -0.5000 
    119 N         -2.4786  -20.8562  -54.1448 N.am      22 UNK        -0.5000 
    120 CA        -1.0853  -20.6563  -53.7145 C.3       22 UNK         0.1400 
    121 C         -0.0525  -21.6003  -54.4053 C.2       22 UNK         0.5000 
    122 N         -0.4574  -22.5798  -55.2066 N.am      22 UNK        -0.7600 
    123 O          1.1474  -21.4666  -54.1822 O.2       22 UNK        -0.5000 
    124 C124       -0.6270  -19.1696  -53.7378 C.3       23 UNK        -0.0398 
    125 S125       -1.7259  -18.0527  -52.7972 S.3       23 UNK        -0.2404 
    126 C126       -0.7166  -17.7378  -51.3193 C.3       23 UNK        -0.0205 
    127 H127        5.7218  -13.3197  -46.0917 H         1 UNK         0.0600 
    128 H128        4.8480  -14.4262  -47.1584 H         1 UNK         0.0600 
    129 H129        5.2953  -14.9382  -45.5293 H         1 UNK         0.0600 
    130 H130        2.7601  -13.6302  -47.4022 H         1 UNK         0.3000 
    131 H131        0.9874  -13.5130  -45.1738 H         1 UNK         0.0600 
    132 H132        0.1444  -14.4377  -47.1985 H         1 UNK         0.0800 
    133 H133       -0.7647  -12.9928  -46.8867 H         1 UNK         0.0800 
    134 H134       -1.6841  -12.2737  -49.2264 H         1 UNK         0.0800 
    135 H135       -0.8544  -12.6310  -50.7195 H         1 UNK         0.0800 
    136 H136       -0.1099  -15.0781  -51.1596 H         1 UNK         0.1150 
    137 H137       -2.7137  -18.0512  -49.5068 H         1 UNK         0.1150 
    138 H138       -2.9280  -14.0061  -48.1097 H         1 UNK         0.1150 
    139 H139       -4.8411  -15.7264  -47.7713 H         1 UNK         0.0800 
    140 H140       -4.4901  -17.4128  -48.0142 H         1 UNK         0.0800 
    141 H141       -1.4361  -17.6130  -45.1900 H         1 UNK         0.0800 
    142 H142       -1.2922  -17.1949  -46.8640 H         1 UNK         0.0800 
    143 H143       -2.9988  -19.0907  -47.3466 H         1 UNK         0.0600 
    144 H144       -0.1978  -19.3675  -46.8569 H         1 UNK         0.3000 
    145 H145        0.1160  -22.6493  -48.1601 H         1 UNK         0.0600 
    146 H146        1.5679  -21.5793  -49.8271 H         1 UNK         0.0600 
    147 H147       -0.1038  -21.2149  -50.2231 H         1 UNK         0.0600 
    148 H148        0.9067  -19.9895  -49.4575 H         1 UNK         0.0600 
    149 H149        2.0486  -20.6735  -47.4032 H         1 UNK         0.3000 
    150 H150        2.1130  -21.4223  -43.9148 H         1 UNK         0.0600 
    151 H151        3.6274  -23.0086  -45.0434 H         1 UNK         0.0600 
    152 H152        4.5175  -21.5918  -44.5061 H         1 UNK         0.0600 
    153 H153        4.1092  -21.7872  -46.2103 H         1 UNK         0.0600 
    154 H154        2.1987  -19.2619  -44.1821 H         1 UNK         0.3000 
    155 H155        3.8125  -16.9813  -46.3163 H         1 UNK         0.0600 
    156 H156        1.5098  -16.8563  -47.1182 H         1 UNK         0.0600 
    157 H157        1.6119  -15.8064  -45.7096 H         1 UNK         0.0600 
    158 H158        0.8704  -17.3837  -45.5668 H         1 UNK         0.0600 
    159 H159        2.5995  -16.8196  -43.7080 H         1 UNK         0.3000 
    160 H160        5.4348  -17.8573  -41.8238 H         1 UNK         0.0600 
    161 H161        4.1657  -15.0910  -42.1803 H         1 UNK         0.0600 
    162 H162        5.8747  -15.4710  -42.1129 H         1 UNK         0.0600 
    163 H163        4.8811  -15.6784  -40.6786 H         1 UNK         0.0600 
    164 H164        2.6732  -17.0093  -41.3599 H         1 UNK         0.3000 
    165 H165        1.3236  -20.2704  -41.3580 H         1 UNK         0.0600 
    166 H166        0.7391  -19.9113  -38.9717 H         1 UNK         0.0600 
    167 H167        2.4217  -20.3916  -39.1192 H         1 UNK         0.0600 
    168 H168        2.0181  -18.7065  -38.8124 H         1 UNK         0.0600 
    169 H169        0.3956  -17.7253  -40.3611 H         1 UNK         0.3000 
    170 H170       -0.6675  -16.3744  -43.4254 H         1 UNK         0.0600 
    171 H171       -2.5472  -17.9748  -42.9358 H         1 UNK         0.0600 
    172 H172       -2.4314  -17.5875  -41.2256 H         1 UNK         0.0600 
    173 H173       -2.9148  -16.3501  -42.3869 H         1 UNK         0.0600 
    174 H174       -1.1087  -15.5429  -40.7481 H         1 UNK         0.3000 
    175 H175        0.0581  -13.6621  -40.0145 H         1 UNK         0.0600 
    176 H176        2.4472  -15.4533  -39.2807 H         1 UNK         0.0600 
    177 H177        1.6695  -14.2908  -38.2077 H         1 UNK         0.0600 
    178 H178        0.7851  -15.7017  -38.7589 H         1 UNK         0.0600 
    179 H179        2.9180  -13.2608  -40.2458 H         1 UNK         0.3000 
    180 H180        2.7708  -10.2288  -41.0203 H         1 UNK         0.0600 
    181 H181        5.1151  -10.9892  -41.5370 H         1 UNK         0.0600 
    182 H182        4.5186  -12.6155  -41.8401 H         1 UNK         0.0600 
    183 H183        4.3989  -11.9053  -40.2281 H         1 UNK         0.0600 
    184 H184        3.1329  -11.4864  -43.7005 H         1 UNK         0.3000 
    185 H185        1.5947   -8.8018  -45.3389 H         1 UNK         0.0600 
    186 H186        4.6110   -9.3559  -45.4569 H         1 UNK         0.0600 
    187 H187        3.6442   -8.6297  -46.7418 H         1 UNK         0.0600 
    188 H188        3.8686   -7.7781  -45.2220 H         1 UNK         0.0600 
    189 H189        3.1026  -11.1676  -46.1228 H         1 UNK         0.3000 
    190 H190       -1.1337  -20.2434  -44.5010 H         1 UNK         0.3000 
    191 H191       -3.3784  -20.8381  -42.8441 H         1 UNK         0.0600 
    192 H192       -0.5292  -21.9625  -42.8957 H         1 UNK         0.0600 
    193 H193       -1.1415  -20.6506  -41.8881 H         1 UNK         0.0600 
    194 H194       -1.7029  -22.2892  -41.6271 H         1 UNK         0.0600 
    195 H195       -1.8864  -22.5781  -45.5085 H         1 UNK         0.3000 
    196 H196       -3.4711  -25.0157  -45.1527 H         1 UNK         0.0600 
    197 H197       -1.1241  -25.0656  -46.0373 H         1 UNK         0.0600 
    198 H198       -1.6402  -24.1389  -47.4427 H         1 UNK         0.0600 
    199 H199       -2.2738  -25.7549  -47.1709 H         1 UNK         0.0600 
    200 H200       -4.6091  -22.1172  -45.8325 H         1 UNK         0.3000 
    201 H201       -6.3982  -21.2581  -46.7797 H         1 UNK         0.0600 
    202 H202       -8.2956  -22.6857  -47.4338 H         1 UNK         0.0600 
    203 H203       -7.5790  -23.2948  -45.9504 H         1 UNK         0.0600 
    204 H204       -7.2712  -24.1114  -47.4823 H         1 UNK         0.0600 
    205 H205       -4.2670  -20.8812  -48.1692 H         1 UNK         0.3000 
    206 H206       -3.3621  -20.2127  -50.0727 H         1 UNK         0.0600 
    207 H207       -5.5174  -19.0220  -50.5072 H         1 UNK         0.0600 
    208 H208       -6.1265  -20.4336  -51.3726 H         1 UNK         0.0600 
    209 H209       -4.7429  -19.5434  -51.9940 H         1 UNK         0.0600 
    210 H210       -2.9469  -22.7090  -49.3453 H         1 UNK         0.3000 
    211 H211       -2.1282  -24.6836  -49.8732 H         1 UNK         0.0600 
    212 H212       -0.8053  -23.4071  -51.5899 H         1 UNK         0.0600 
    213 H213       -1.0863  -25.0742  -52.0575 H         1 UNK         0.0600 
    214 H214       -2.0273  -23.7940  -52.8023 H         1 UNK         0.0600 
    215 H215       -5.1417  -24.0754  -50.3002 H         1 UNK         0.3000 
    216 H216       -7.0149  -25.1444  -50.4140 H         1 UNK         0.0600 
    217 H217       -7.0875  -27.5910  -50.0271 H         1 UNK         0.0600 
    218 H218       -5.3798  -27.7326  -50.4166 H         1 UNK         0.0600 
    219 H219       -5.8913  -26.8304  -48.9904 H         1 UNK         0.0600 
    220 H220       -4.8237  -26.1518  -52.9573 H         1 UNK         0.3000 
    221 H221       -6.6777  -27.3836  -54.7274 H         1 UNK         0.0600 
    222 H222       -4.0172  -25.9518  -55.2969 H         1 UNK         0.0600 
    223 H223       -4.1858  -27.6452  -54.8365 H         1 UNK         0.0600 
    224 H224       -4.8158  -27.0886  -56.3770 H         1 UNK         0.0600 
    225 H225       -7.3465  -26.6201  -56.8483 H         1 UNK         0.3000 
    226 H226       -8.6299  -24.0672  -56.9253 H         1 UNK         0.0600 
    227 H227       -9.4818  -26.0468  -58.1602 H         1 UNK         0.0600 
    228 H228       -9.1547  -24.7316  -59.2769 H         1 UNK         0.0600 
    229 H229       -8.0304  -26.0800  -59.1627 H         1 UNK         0.0600 
    230 H230       -5.4807  -25.1937  -57.9654 H         1 UNK         0.3000 
    231 H231       -4.6545  -22.6589  -59.2262 H         1 UNK         0.0600 
    232 H232       -2.4394  -23.8195  -59.3140 H         1 UNK         0.0600 
    233 H233       -3.6976  -24.7801  -60.0766 H         1 UNK         0.0600 
    234 H234       -3.1164  -25.2062  -58.4680 H         1 UNK         0.0600 
    235 H235       -5.3926  -21.3897  -57.4033 H         1 UNK         0.3000 
    236 H236       -4.7425  -21.6861  -54.7491 H         1 UNK         0.0600 
    237 H237       -5.3244  -19.2571  -54.5576 H         1 UNK         0.0600 
    238 H238       -5.2240  -19.0915  -56.3069 H         1 UNK         0.0600 
    239 H239       -6.4607  -20.1212  -55.5818 H         1 UNK         0.0600 
    240 H240       -3.0636  -21.3680  -53.4858 H         1 UNK         0.3000 
    241 H241       -1.0745  -20.9705  -52.6706 H         1 UNK         0.0600 
    242 H242        0.2314  -23.1824  -55.6272 H         1 UNK         0.3800 
    243 H243       -1.4360  -22.7112  -55.4384 H         1 UNK         0.3800 
    244 H244        0.3858  -19.0796  -53.3422 H         1 UNK         0.0800 
    245 H245       -0.5705  -18.8034  -54.7634 H         1 UNK         0.0800 
    246 H246       -0.6011  -18.6666  -50.7611 H         1 UNK         0.0800 
    247 H247        0.2854  -17.4246  -51.6168 H         1 UNK         0.0800 
@<TRIPOS>BOND
     1    1    2 1    
     2    1  127 1    
     3    1  128 1    
     4    1  129 1    
     5    2    3 2    
     6    2    4 am   BACKBONE|DICT|INTERRES
     7    4    5 1    
     8    4  130 1    
     9    5    6 1    
    10    5   65 1    
    11    5  131 1    
    12    6    7 1    
    13    6  132 1    
    14    6  133 1    
    15    7    8 1    
    16    8    9 1    
    17    8  134 1    
    18    8  135 1    
    19    9   10 ar   
    20    9   14 ar   
    21   10   11 ar   
    22   10  136 1    
    23   11   12 ar   
    24   11  126 1    
    25   12   13 ar   
    26   12  137 1    
    27   13   14 ar   
    28   13   15 1    
    29   14  138 1    
    30   15   16 1    
    31   15  139 1    
    32   15  140 1    
    33   16   17 1    
    34   17   18 1    
    35   17  141 1    
    36   17  142 1    
    37   18   19 1    
    38   18   67 1    
    39   18  143 1    
    40   19   20 am   BACKBONE|DICT|INTERRES
    41   19  144 1    
    42   20   21 2    
    43   20   22 1    
    44   22   23 1    
    45   22   24 1    
    46   22  145 1    
    47   23  146 1    
    48   23  147 1    
    49   23  148 1    
    50   24   25 am   BACKBONE|DICT|INTERRES
    51   24  149 1    
    52   25   26 2    
    53   25   27 1    
    54   27   28 1    
    55   27   29 1    
    56   27  150 1    
    57   28  151 1    
    58   28  152 1    
    59   28  153 1    
    60   29   30 am   BACKBONE|DICT|INTERRES
    61   29  154 1    
    62   30   31 2    
    63   30   32 1    
    64   32   33 1    
    65   32   34 1    
    66   32  155 1    
    67   33  156 1    
    68   33  157 1    
    69   33  158 1    
    70   34   35 am   BACKBONE|DICT|INTERRES
    71   34  159 1    
    72   35   36 2    
    73   35   37 1    
    74   37   38 1    
    75   37   39 1    
    76   37  160 1    
    77   38  161 1    
    78   38  162 1    
    79   38  163 1    
    80   39   40 am   BACKBONE|DICT|INTERRES
    81   39  164 1    
    82   40   41 2    
    83   40   42 1    
    84   42   43 1    
    85   42   44 1    
    86   42  165 1    
    87   43  166 1    
    88   43  167 1    
    89   43  168 1    
    90   44   45 am   BACKBONE|DICT|INTERRES
    91   44  169 1    
    92   45   46 2    
    93   45   47 1    
    94   47   48 1    
    95   47   49 1    
    96   47  170 1    
    97   48  171 1    
    98   48  172 1    
    99   48  173 1    
   100   49   50 am   BACKBONE|DICT|INTERRES
   101   49  174 1    
   102   50   51 2    
   103   50   52 1    
   104   52   53 1    
   105   52   54 1    
   106   52  175 1    
   107   53  176 1    
   108   53  177 1    
   109   53  178 1    
   110   54   55 am   BACKBONE|DICT|INTERRES
   111   54  179 1    
   112   55   56 2    
   113   55   57 1    
   114   57   58 1    
   115   57   59 1    
   116   57  180 1    
   117   58  181 1    
   118   58  182 1    
   119   58  183 1    
   120   59   60 am   BACKBONE|DICT|INTERRES
   121   59  184 1    
   122   60   61 2    
   123   60   62 1    
   124   62   63 1    
   125   62   64 1    
   126   62  185 1    
   127   63  186 1    
   128   63  187 1    
   129   63  188 1    
   130   64   65 am   BACKBONE|DICT|INTERRES
   131   64  189 1    
   132   65   66 2    
   133   67   68 2    
   134   67   69 am   BACKBONE|DICT|INTERRES
   135   69   70 1    
   136   69  190 1    
   137   70   71 1    
   138   70   72 1    
   139   70  191 1    
   140   71  192 1    
   141   71  193 1    
   142   71  194 1    
   143   72   73 2    
   144   72   74 am   BACKBONE|DICT|INTERRES
   145   74   75 1    
   146   74  195 1    
   147   75   76 1    
   148   75   77 1    
   149   75  196 1    
   150   76  197 1    
   151   76  198 1    
   152   76  199 1    
   153   77   78 2    
   154   77   79 am   BACKBONE|DICT|INTERRES
   155   79   80 1    
   156   79  200 1    
   157   80   81 1    
   158   80   82 1    
   159   80  201 1    
   160   81  202 1    
   161   81  203 1    
   162   81  204 1    
   163   82   83 2    
   164   82   84 am   BACKBONE|DICT|INTERRES
   165   84   85 1    
   166   84  205 1    
   167   85   86 1    
   168   85   87 1    
   169   85  206 1    
   170   86  207 1    
   171   86  208 1    
   172   86  209 1    
   173   87   88 2    
   174   87   89 am   BACKBONE|DICT|INTERRES
   175   89   90 1    
   176   89  210 1    
   177   90   91 1    
   178   90   92 1    
   179   90  211 1    
   180   91  212 1    
   181   91  213 1    
   182   91  214 1    
   183   92   93 2    
   184   92   94 am   BACKBONE|DICT|INTERRES
   185   94   95 1    
   186   94  215 1    
   187   95   96 1    
   188   95   97 1    
   189   95  216 1    
   190   96  217 1    
   191   96  218 1    
   192   96  219 1    
   193   97   98 2    
   194   97   99 am   BACKBONE|DICT|INTERRES
   195   99  100 1    
   196   99  220 1    
   197  100  101 1    
   198  100  102 1    
   199  100  221 1    
   200  101  222 1    
   201  101  223 1    
   202  101  224 1    
   203  102  103 2    
   204  102  104 am   BACKBONE|DICT|INTERRES
   205  104  105 1    
   206  104  225 1    
   207  105  106 1    
   208  105  107 1    
   209  105  226 1    
   210  106  227 1    
   211  106  228 1    
   212  106  229 1    
   213  107  108 2    
   214  107  109 am   BACKBONE|DICT|INTERRES
   215  109  110 1    
   216  109  230 1    
   217  110  111 1    
   218  110  112 1    
   219  110  231 1    
   220  111  232 1    
   221  111  233 1    
   222  111  234 1    
   223  112  113 2    
   224  112  114 am   BACKBONE|DICT|INTERRES
   225  114  115 1    
   226  114  235 1    
   227  115  116 1    
   228  115  117 1    
   229  115  236 1    
   230  116  237 1    
   231  116  238 1    
   232  116  239 1    
   233  117  118 2    
   234  117  119 am   BACKBONE|DICT|INTERRES
   235  119  120 1    
   236  119  240 1    
   237  120  121 1    
   238  120  124 1    
   239  120  241 1    
   240  121  122 am   BACKBONE|DICT|INTERRES
   241  121  123 2    
   242  122  242 1    
   243  122  243 1    
   244  124  125 1    
   245  124  244 1    
   246  124  245 1    
   247  125  126 1    
   248  126  246 1    
   249  126  247 1    
@<TRIPOS>SUBSTRUCTURE
     1 UNK         1 GROUP             0       ****    0 ROOT    
