@<TRIPOS>MOLECULE
3R540
247   249    1
SMALL
USER_CHARGES


@<TRIPOS>ATOM
      1 CA         -3.9819  -13.9712  -49.0356 C.3       0 UNK        -0.1800 
      2 C          -2.6116  -13.3241  -49.1726 C.2       0 UNK         0.5000 
      3 O          -2.4580  -12.3683  -49.9331 O.2       0 UNK        -0.5000 
      4 N          -1.6176  -13.8423  -48.4420 N.am      1 UNK        -0.5000 
      5 CA         -0.2485  -13.3226  -48.4018 C.3       1 UNK         0.1400 
      6 C6          0.7656  -14.3620  -47.8656 C.3       23 UNK        -0.0398 
      7 S7          0.7215  -15.9312  -48.7963 S.3       23 UNK        -0.2404 
      8 C8          2.2803  -15.8394  -49.7255 C.3       23 UNK        -0.0205 
      9 C9          2.5252  -17.1178  -50.5108 C.ar      23 UNK        -0.0193 
     10 C10         2.3823  -17.1431  -51.9016 C.ar      23 UNK        -0.1150 
     11 C11         2.6390  -18.3161  -52.6183 C.ar      23 UNK        -0.0193 
     12 C12         3.0225  -19.4710  -51.9293 C.ar      23 UNK        -0.1150 
     13 C13         3.1481  -19.4679  -50.5379 C.ar      23 UNK        -0.0193 
     14 C14         2.9149  -18.2787  -49.8381 C.ar      23 UNK        -0.1150 
     15 C15         3.5771  -20.7477  -49.8242 C.3       23 UNK        -0.0205 
     16 S16         2.8090  -20.9846  -48.1876 S.3       23 UNK        -0.2404 
     17 C17         1.0489  -21.2259  -48.6182 C.3       23 UNK        -0.0398 
     18 CA          0.4399  -22.3952  -47.8127 C.3       11 UNK         0.1400 
     19 N           0.4223  -22.1283  -46.3720 N.am      11 UNK        -0.5000 
     20 C           0.2647  -23.0697  -45.4341 C.2       10 UNK         0.5000 
     21 O           0.0777  -24.2590  -45.6868 O.2       10 UNK        -0.5000 
     22 CA          0.2938  -22.6062  -43.9684 C.3       10 UNK         0.1400 
     23 CB          1.7274  -22.2737  -43.5284 C.3       10 UNK        -0.1800 
     24 N          -0.5825  -21.4629  -43.7159 N.am      10 UNK        -0.5000 
     25 C          -1.9157  -21.4885  -43.8558 C.2       9 UNK         0.5000 
     26 O          -2.5489  -22.4818  -44.2159 O.2       9 UNK        -0.5000 
     27 CA         -2.6694  -20.1769  -43.5709 C.3       9 UNK         0.1400 
     28 CB         -2.8184  -19.9517  -42.0588 C.3       9 UNK        -0.1800 
     29 N          -2.0355  -19.0064  -44.1758 N.am      9 UNK        -0.5000 
     30 C          -1.8534  -18.8342  -45.4929 C.2       8 UNK         0.5000 
     31 O          -2.1984  -19.6456  -46.3505 O.2       8 UNK        -0.5000 
     32 CA         -1.0975  -17.5651  -45.9186 C.3       8 UNK         0.1400 
     33 CB         -1.9540  -16.3084  -45.6836 C.3       8 UNK        -0.1800 
     34 N           0.1814  -17.4260  -45.2234 N.am      8 UNK        -0.5000 
     35 C           1.1558  -18.3481  -45.2048 C.2       7 UNK         0.5000 
     36 O           1.1062  -19.4192  -45.8049 O.2       7 UNK        -0.5000 
     37 CA          2.3643  -18.0493  -44.3065 C.3       7 UNK         0.1400 
     38 CB          3.3448  -17.1013  -45.0134 C.3       7 UNK        -0.1800 
     39 N           1.9492  -17.4857  -43.0213 N.am      7 UNK        -0.5000 
     40 C           1.2808  -18.1687  -42.0792 C.2       6 UNK         0.5000 
     41 O           0.9825  -19.3593  -42.1760 O.2       6 UNK        -0.5000 
     42 CA          0.8320  -17.3732  -40.8400 C.3       6 UNK         0.1400 
     43 CB          1.9953  -17.1982  -39.8523 C.3       6 UNK        -0.1800 
     44 N           0.2863  -16.0610  -41.1896 N.am      6 UNK        -0.5000 
     45 C          -0.8557  -15.8769  -41.8670 C.2       5 UNK         0.5000 
     46 O          -1.5952  -16.7970  -42.2174 O.2       5 UNK        -0.5000 
     47 CA         -1.2130  -14.4260  -42.2500 C.3       5 UNK         0.1400 
     48 CB         -2.0556  -13.7722  -41.1451 C.3       5 UNK        -0.1800 
     49 N          -0.0536  -13.5748  -42.5404 N.am      5 UNK        -0.5000 
     50 C           0.8644  -13.8136  -43.4873 C.2       4 UNK         0.5000 
     51 O           0.8535  -14.8112  -44.2090 O.2       4 UNK        -0.5000 
     52 CA          1.9631  -12.7528  -43.6411 C.3       4 UNK         0.1400 
     53 CB          2.9904  -13.0871  -44.7380 C.3       4 UNK        -0.1800 
     54 N           1.3488  -11.4608  -43.9296 N.am      4 UNK        -0.5000 
     55 C           1.7746  -10.2854  -43.4490 C.2       3 UNK         0.5000 
     56 O           2.7091  -10.1800  -42.6522 O.2       3 UNK        -0.5000 
     57 CA          1.0293   -9.0176  -43.9263 C.3       3 UNK         0.1400 
     58 CB          1.9152   -7.7543  -43.8858 C.3       3 UNK        -0.1800 
     59 N           0.3915   -9.1594  -45.2414 N.am      3 UNK        -0.5000 
     60 C           0.9909   -9.4168  -46.4131 C.2       2 UNK         0.5000 
     61 O           2.2057   -9.5642  -46.5620 O.2       2 UNK        -0.5000 
     62 CA          0.0543   -9.5553  -47.6272 C.3       2 UNK         0.1400 
     63 CB          0.4086   -8.5312  -48.7174 C.3       2 UNK        -0.1800 
     64 N           0.0768  -10.8998  -48.2052 N.am      2 UNK        -0.5000 
     65 C          -0.2262  -12.0330  -47.5575 C.2       1 UNK         0.5000 
     66 O          -0.5158  -12.0876  -46.3587 O.2       1 UNK        -0.5000 
     67 C          -0.9494  -22.8071  -48.3389 C.2       11 UNK         0.5000 
     68 O          -1.0266  -23.6862  -49.1986 O.2       11 UNK        -0.5000 
     69 N          -2.0249  -22.2287  -47.7813 N.am      12 UNK        -0.5000 
     70 CA         -3.4063  -22.6459  -48.0319 C.3       12 UNK         0.1400 
     71 CB         -4.3750  -21.7038  -47.3000 C.3       12 UNK        -0.1800 
     72 C          -3.6516  -24.1083  -47.6176 C.2       12 UNK         0.5000 
     73 O          -4.1526  -24.8950  -48.4226 O.2       12 UNK        -0.5000 
     74 N          -3.2454  -24.4559  -46.3875 N.am      13 UNK        -0.5000 
     75 CA         -3.3453  -25.8053  -45.8318 C.3       13 UNK         0.1400 
     76 CB         -2.9762  -25.7771  -44.3410 C.3       13 UNK        -0.1800 
     77 C          -2.4893  -26.8382  -46.5875 C.2       13 UNK         0.5000 
     78 O          -2.9664  -27.9453  -46.8378 O.2       13 UNK        -0.5000 
     79 N          -1.2569  -26.4568  -46.9527 N.am      14 UNK        -0.5000 
     80 CA         -0.3133  -27.2912  -47.6990 C.3       14 UNK         0.1400 
     81 CB          1.0664  -26.6165  -47.7256 C.3       14 UNK        -0.1800 
     82 C          -0.7874  -27.6062  -49.1284 C.2       14 UNK         0.5000 
     83 O          -0.6629  -28.7498  -49.5690 O.2       14 UNK        -0.5000 
     84 N          -1.3332  -26.5970  -49.8206 N.am      15 UNK        -0.5000 
     85 CA         -1.8930  -26.7390  -51.1657 C.3       15 UNK         0.1400 
     86 CB         -1.9998  -25.3500  -51.8105 C.3       15 UNK        -0.1800 
     87 C          -3.2718  -27.4239  -51.1796 C.2       15 UNK         0.5000 
     88 O          -3.6575  -27.9676  -52.2152 O.2       15 UNK        -0.5000 
     89 N          -3.9933  -27.3483  -50.0501 N.am      16 UNK        -0.5000 
     90 CA         -5.4122  -27.6762  -49.8767 C.3       16 UNK         0.1400 
     91 CB         -5.6706  -29.1852  -50.0672 C.3       16 UNK        -0.1800 
     92 C          -6.2890  -26.7758  -50.7724 C.2       16 UNK         0.5000 
     93 O          -7.1522  -27.2622  -51.5059 O.2       16 UNK        -0.5000 
     94 N          -6.0015  -25.4713  -50.7211 N.am      17 UNK        -0.5000 
     95 CA         -6.5693  -24.4307  -51.5710 C.3       17 UNK         0.1400 
     96 CB         -5.7265  -24.3174  -52.8585 C.3       17 UNK        -0.1800 
     97 C          -6.6186  -23.1075  -50.7896 C.2       17 UNK         0.5000 
     98 O          -6.4184  -23.0998  -49.5742 O.2       17 UNK        -0.5000 
     99 N          -6.8897  -22.0036  -51.4936 N.am      18 UNK        -0.5000 
    100 CA        -6.8124  -20.6499  -50.9488 C.3       18 UNK         0.1400 
    101 CB        -7.5845  -19.6997  -51.8784 C.3       18 UNK        -0.1800 
    102 C         -5.3514  -20.1835  -50.8110 C.2       18 UNK         0.5000 
    103 O         -4.4747  -20.6581  -51.5388 O.2       18 UNK        -0.5000 
    104 N         -5.1249  -19.1987  -49.9338 N.am      19 UNK        -0.5000 
    105 CA        -3.8362  -18.5165  -49.7819 C.3       19 UNK         0.1400 
    106 CB        -3.8933  -17.5983  -48.5575 C.3       19 UNK        -0.1800 
    107 C         -3.4556  -17.7058  -51.0343 C.2       19 UNK         0.5000 
    108 O         -2.2920  -17.6972  -51.4311 O.2       19 UNK        -0.5000 
    109 N         -4.4649  -17.0949  -51.6724 N.am      20 UNK        -0.5000 
    110 CA        -4.3475  -16.3847  -52.9491 C.3       20 UNK         0.1400 
    111 CB        -5.6404  -15.5923  -53.1939 C.3       20 UNK        -0.1800 
    112 C         -4.0492  -17.3186  -54.1413 C.2       20 UNK         0.5000 
    113 O         -3.5373  -16.8546  -55.1599 O.2       20 UNK        -0.5000 
    114 N         -4.3513  -18.6148  -53.9827 N.am      21 UNK        -0.5000 
    115 CA        -4.0072  -19.6884  -54.9145 C.3       21 UNK         0.1400 
    116 CB        -5.1592  -20.7085  -54.9449 C.3       21 UNK        -0.1800 
    117 C         -2.6673  -20.3641  -54.5503 C.2       21 UNK         0.5000 
    118 O         -2.3250  -21.3748  -55.1654 O.2       21 UNK        -0.5000 
    119 N         -1.9357  -19.8048  -53.5739 N.am      22 UNK        -0.5000 
    120 CA        -0.6334  -20.2746  -53.0743 C.3       22 UNK         0.1400 
    121 C         -0.7004  -21.5973  -52.2559 C.2       22 UNK         0.5000 
    122 N         -1.8326  -21.9495  -51.6583 N.am      22 UNK        -0.7600 
    123 O          0.2973  -22.2987  -52.1178 O.2       22 UNK        -0.5000 
    124 C124        0.4743  -20.2678  -54.1674 C.3       23 UNK        -0.0398 
    125 S125        0.8406  -18.5720  -54.7399 S.3       23 UNK        -0.2404 
    126 C126        2.5432  -18.3274  -54.1387 C.3       23 UNK        -0.0205 
    127 H127       -4.7569  -13.2065  -48.9838 H         1 UNK         0.0600 
    128 H128       -4.0490  -14.5770  -48.1320 H         1 UNK         0.0600 
    129 H129       -4.1852  -14.6063  -49.8978 H         1 UNK         0.0600 
    130 H130       -1.8021  -14.6198  -47.8276 H         1 UNK         0.3000 
    131 H131        0.0497  -13.0777  -49.4238 H         1 UNK         0.0600 
    132 H132        1.7761  -13.9523  -47.8972 H         1 UNK         0.0800 
    133 H133        0.5711  -14.5924  -46.8183 H         1 UNK         0.0800 
    134 H134        3.1091  -15.6790  -49.0342 H         1 UNK         0.0800 
    135 H135        2.2544  -14.9752  -50.3911 H         1 UNK         0.0800 
    136 H136        2.0851  -16.2479  -52.4297 H         1 UNK         0.1150 
    137 H137        3.2342  -20.3774  -52.4786 H         1 UNK         0.1150 
    138 H138        3.0276  -18.2509  -48.7634 H         1 UNK         0.1150 
    139 H139        3.3563  -21.6215  -50.4398 H         1 UNK         0.0800 
    140 H140        4.6601  -20.7233  -49.6984 H         1 UNK         0.0800 
    141 H141        0.9728  -21.4198  -49.6883 H         1 UNK         0.0800 
    142 H142        0.5063  -20.2973  -48.4317 H         1 UNK         0.0800 
    143 H143        1.0878  -23.2599  -47.9697 H         1 UNK         0.0600 
    144 H144        0.5923  -21.1634  -46.0921 H         1 UNK         0.3000 
    145 H145       -0.0618  -23.4362  -43.3543 H         1 UNK         0.0600 
    146 H146        1.7690  -22.0437  -42.4637 H         1 UNK         0.0600 
    147 H147        2.3962  -23.1170  -43.7053 H         1 UNK         0.0600 
    148 H148        2.1275  -21.4172  -44.0715 H         1 UNK         0.0600 
    149 H149       -0.1352  -20.6092  -43.3991 H         1 UNK         0.3000 
    150 H150       -3.6685  -20.2702  -44.0013 H         1 UNK         0.0600 
    151 H151       -3.2956  -20.8077  -41.5801 H         1 UNK         0.0600 
    152 H152       -3.4341  -19.0765  -41.8504 H         1 UNK         0.0600 
    153 H153       -1.8513  -19.8003  -41.5775 H         1 UNK         0.0600 
    154 H154       -1.7238  -18.2793  -43.5386 H         1 UNK         0.3000 
    155 H155       -0.8842  -17.6473  -46.9854 H         1 UNK         0.0600 
    156 H156       -2.2497  -16.2122  -44.6416 H         1 UNK         0.0600 
    157 H157       -1.4209  -15.3999  -45.9572 H         1 UNK         0.0600 
    158 H158       -2.8747  -16.3383  -46.2632 H         1 UNK         0.0600 
    159 H159        0.3390  -16.5537  -44.7259 H         1 UNK         0.3000 
    160 H160        2.8836  -18.9900  -44.1116 H         1 UNK         0.0600 
    161 H161        2.8635  -16.1709  -45.3137 H         1 UNK         0.0600 
    162 H162        3.7412  -17.5641  -45.9181 H         1 UNK         0.0600 
    163 H163        4.1925  -16.8549  -44.3741 H         1 UNK         0.0600 
    164 H164        2.0898  -16.4944  -42.8959 H         1 UNK         0.3000 
    165 H165        0.0466  -17.9469  -40.3429 H         1 UNK         0.0600 
    166 H166        1.6649  -16.7043  -38.9383 H         1 UNK         0.0600 
    167 H167        2.4114  -18.1650  -39.5657 H         1 UNK         0.0600 
    168 H168        2.8050  -16.6061  -40.2804 H         1 UNK         0.0600 
    169 H169        0.8319  -15.2515  -40.9342 H         1 UNK         0.3000 
    170 H170       -1.8192  -14.4649  -43.1562 H         1 UNK         0.0600 
    171 H171       -2.9407  -14.3702  -40.9233 H         1 UNK         0.0600 
    172 H172       -1.4910  -13.6646  -40.2182 H         1 UNK         0.0600 
    173 H173       -2.4014  -12.7829  -41.4454 H         1 UNK         0.0600 
    174 H174        0.0258  -12.7248  -42.0012 H         1 UNK         0.3000 
    175 H175        2.4883  -12.7158  -42.6846 H         1 UNK         0.0600 
    176 H176        2.5185  -13.1714  -45.7164 H         1 UNK         0.0600 
    177 H177        3.7581  -12.3162  -44.8055 H         1 UNK         0.0600 
    178 H178        3.4970  -14.0284  -44.5264 H         1 UNK         0.0600 
    179 H179        0.5745  -11.4795  -44.5857 H         1 UNK         0.3000 
    180 H180        0.2172   -8.8680  -43.2135 H         1 UNK         0.0600 
    181 H181        2.7948   -7.8558  -44.5221 H         1 UNK         0.0600 
    182 H182        2.2667   -7.5531  -42.8732 H         1 UNK         0.0600 
    183 H183        1.3627   -6.8742  -44.2150 H         1 UNK         0.0600 
    184 H184       -0.6169   -9.0900  -45.2342 H         1 UNK         0.3000 
    185 H185       -0.9704   -9.3577  -47.3056 H         1 UNK         0.0600 
    186 H186        0.3910   -7.5158  -48.3191 H         1 UNK         0.0600 
    187 H187        1.4047   -8.7059  -49.1264 H         1 UNK         0.0600 
    188 H188       -0.3042   -8.5683  -49.5414 H         1 UNK         0.0600 
    189 H189        0.2957  -10.9500  -49.1894 H         1 UNK         0.3000 
    190 H190       -1.8962  -21.4828  -47.1040 H         1 UNK         0.3000 
    191 H191       -3.5955  -22.5645  -49.1043 H         1 UNK         0.0600 
    192 H192       -4.1788  -21.6728  -46.2287 H         1 UNK         0.0600 
    193 H193       -5.4101  -22.0182  -47.4301 H         1 UNK         0.0600 
    194 H194       -4.2957  -20.6876  -47.6815 H         1 UNK         0.0600 
    195 H195       -2.8489  -23.7452  -45.7801 H         1 UNK         0.3000 
    196 H196       -4.3879  -26.1189  -45.9149 H         1 UNK         0.0600 
    197 H197       -3.0545  -26.7711  -43.8990 H         1 UNK         0.0600 
    198 H198       -3.6430  -25.1193  -43.7833 H         1 UNK         0.0600 
    199 H199       -1.9555  -25.4263  -44.1851 H         1 UNK         0.0600 
    200 H200       -0.9162  -25.5482  -46.6477 H         1 UNK         0.3000 
    201 H201       -0.2150  -28.2390  -47.1658 H         1 UNK         0.0600 
    202 H202        1.4493  -26.4605  -46.7170 H         1 UNK         0.0600 
    203 H203        1.0293  -25.6480  -48.2246 H         1 UNK         0.0600 
    204 H204        1.7927  -27.2324  -48.2572 H         1 UNK         0.0600 
    205 H205       -1.3584  -25.6675  -49.4119 H         1 UNK         0.3000 
    206 H206       -1.2118  -27.3436  -51.7682 H         1 UNK         0.0600 
    207 H207       -1.0270  -24.8597  -51.8532 H         1 UNK         0.0600 
    208 H208       -2.3750  -25.4172  -52.8324 H         1 UNK         0.0600 
    209 H209       -2.6812  -24.7060  -51.2533 H         1 UNK         0.0600 
    210 H210       -3.5854  -26.8302  -49.2817 H         1 UNK         0.3000 
    211 H211       -5.6612  -27.4258  -48.8444 H         1 UNK         0.0600 
    212 H212       -5.5005  -29.5045  -51.0955 H         1 UNK         0.0600 
    213 H213       -6.7016  -29.4359  -49.8156 H         1 UNK         0.0600 
    214 H214       -5.0243  -29.7784  -49.4201 H         1 UNK         0.0600 
    215 H215       -5.3476  -25.1413  -50.0145 H         1 UNK         0.3000 
    216 H216       -7.5966  -24.6931  -51.8313 H         1 UNK         0.0600 
    217 H217       -6.1937  -23.6530  -53.5856 H         1 UNK         0.0600 
    218 H218       -5.6109  -25.2868  -53.3438 H         1 UNK         0.0600 
    219 H219       -4.7281  -23.9297  -52.6505 H         1 UNK         0.0600 
    220 H220       -7.0220  -22.0803  -52.4905 H         1 UNK         0.3000 
    221 H221       -7.2812  -20.6349  -49.9624 H         1 UNK         0.0600 
    222 H222       -7.1505  -19.6674  -52.8782 H         1 UNK         0.0600 
    223 H223       -8.6258  -20.0071  -51.9769 H         1 UNK         0.0600 
    224 H224       -7.5864  -18.6809  -51.4891 H         1 UNK         0.0600 
    225 H225       -5.8868  -18.8586  -49.3648 H         1 UNK         0.3000 
    226 H226       -3.0612  -19.2688  -49.6162 H         1 UNK         0.0600 
    227 H227       -4.0570  -18.1684  -47.6437 H         1 UNK         0.0600 
    228 H228       -2.9545  -17.0550  -48.4478 H         1 UNK         0.0600 
    229 H229       -4.6961  -16.8656  -48.6394 H         1 UNK         0.0600 
    230 H230       -5.3902  -17.1532  -51.2741 H         1 UNK         0.3000 
    231 H231       -3.5192  -15.6773  -52.8700 H         1 UNK         0.0600 
    232 H232       -5.5808  -15.0249  -54.1237 H         1 UNK         0.0600 
    233 H233       -5.8235  -14.8781  -52.3908 H         1 UNK         0.0600 
    234 H234       -6.5080  -16.2495  -53.2654 H         1 UNK         0.0600 
    235 H235       -4.7247  -18.9151  -53.0940 H         1 UNK         0.3000 
    236 H236       -3.8967  -19.2796  -55.9208 H         1 UNK         0.0600 
    237 H237       -6.1065  -20.2281  -55.1897 H         1 UNK         0.0600 
    238 H238       -4.9828  -21.4756  -55.6997 H         1 UNK         0.0600 
    239 H239       -5.2747  -21.2163  -53.9880 H         1 UNK         0.0600 
    240 H240       -2.2944  -18.9843  -53.1027 H         1 UNK         0.3000 
    241 H241       -0.3354  -19.5381  -52.3268 H         1 UNK         0.0600 
    242 H242       -2.6841  -21.4035  -51.7504 H         1 UNK         0.3800 
    243 H243       -1.8187  -22.7790  -51.0836 H         1 UNK         0.3800 
    244 H244        1.3934  -20.7220  -53.8012 H         1 UNK         0.0800 
    245 H245        0.1857  -20.8732  -55.0261 H         1 UNK         0.0800 
    246 H246        3.1886  -19.1016  -54.5566 H         1 UNK         0.0800 
    247 H247        2.9185  -17.3812  -54.5312 H         1 UNK         0.0800 
@<TRIPOS>BOND
     1    1    2 1    
     2    1  127 1    
     3    1  128 1    
     4    1  129 1    
     5    2    3 2    
     6    2    4 am   BACKBONE|DICT|INTERRES
     7    4    5 1    
     8    4  130 1    
     9    5    6 1    
    10    5   65 1    
    11    5  131 1    
    12    6    7 1    
    13    6  132 1    
    14    6  133 1    
    15    7    8 1    
    16    8    9 1    
    17    8  134 1    
    18    8  135 1    
    19    9   10 ar   
    20    9   14 ar   
    21   10   11 ar   
    22   10  136 1    
    23   11   12 ar   
    24   11  126 1    
    25   12   13 ar   
    26   12  137 1    
    27   13   14 ar   
    28   13   15 1    
    29   14  138 1    
    30   15   16 1    
    31   15  139 1    
    32   15  140 1    
    33   16   17 1    
    34   17   18 1    
    35   17  141 1    
    36   17  142 1    
    37   18   19 1    
    38   18   67 1    
    39   18  143 1    
    40   19   20 am   BACKBONE|DICT|INTERRES
    41   19  144 1    
    42   20   21 2    
    43   20   22 1    
    44   22   23 1    
    45   22   24 1    
    46   22  145 1    
    47   23  146 1    
    48   23  147 1    
    49   23  148 1    
    50   24   25 am   BACKBONE|DICT|INTERRES
    51   24  149 1    
    52   25   26 2    
    53   25   27 1    
    54   27   28 1    
    55   27   29 1    
    56   27  150 1    
    57   28  151 1    
    58   28  152 1    
    59   28  153 1    
    60   29   30 am   BACKBONE|DICT|INTERRES
    61   29  154 1    
    62   30   31 2    
    63   30   32 1    
    64   32   33 1    
    65   32   34 1    
    66   32  155 1    
    67   33  156 1    
    68   33  157 1    
    69   33  158 1    
    70   34   35 am   BACKBONE|DICT|INTERRES
    71   34  159 1    
    72   35   36 2    
    73   35   37 1    
    74   37   38 1    
    75   37   39 1    
    76   37  160 1    
    77   38  161 1    
    78   38  162 1    
    79   38  163 1    
    80   39   40 am   BACKBONE|DICT|INTERRES
    81   39  164 1    
    82   40   41 2    
    83   40   42 1    
    84   42   43 1    
    85   42   44 1    
    86   42  165 1    
    87   43  166 1    
    88   43  167 1    
    89   43  168 1    
    90   44   45 am   BACKBONE|DICT|INTERRES
    91   44  169 1    
    92   45   46 2    
    93   45   47 1    
    94   47   48 1    
    95   47   49 1    
    96   47  170 1    
    97   48  171 1    
    98   48  172 1    
    99   48  173 1    
   100   49   50 am   BACKBONE|DICT|INTERRES
   101   49  174 1    
   102   50   51 2    
   103   50   52 1    
   104   52   53 1    
   105   52   54 1    
   106   52  175 1    
   107   53  176 1    
   108   53  177 1    
   109   53  178 1    
   110   54   55 am   BACKBONE|DICT|INTERRES
   111   54  179 1    
   112   55   56 2    
   113   55   57 1    
   114   57   58 1    
   115   57   59 1    
   116   57  180 1    
   117   58  181 1    
   118   58  182 1    
   119   58  183 1    
   120   59   60 am   BACKBONE|DICT|INTERRES
   121   59  184 1    
   122   60   61 2    
   123   60   62 1    
   124   62   63 1    
   125   62   64 1    
   126   62  185 1    
   127   63  186 1    
   128   63  187 1    
   129   63  188 1    
   130   64   65 am   BACKBONE|DICT|INTERRES
   131   64  189 1    
   132   65   66 2    
   133   67   68 2    
   134   67   69 am   BACKBONE|DICT|INTERRES
   135   69   70 1    
   136   69  190 1    
   137   70   71 1    
   138   70   72 1    
   139   70  191 1    
   140   71  192 1    
   141   71  193 1    
   142   71  194 1    
   143   72   73 2    
   144   72   74 am   BACKBONE|DICT|INTERRES
   145   74   75 1    
   146   74  195 1    
   147   75   76 1    
   148   75   77 1    
   149   75  196 1    
   150   76  197 1    
   151   76  198 1    
   152   76  199 1    
   153   77   78 2    
   154   77   79 am   BACKBONE|DICT|INTERRES
   155   79   80 1    
   156   79  200 1    
   157   80   81 1    
   158   80   82 1    
   159   80  201 1    
   160   81  202 1    
   161   81  203 1    
   162   81  204 1    
   163   82   83 2    
   164   82   84 am   BACKBONE|DICT|INTERRES
   165   84   85 1    
   166   84  205 1    
   167   85   86 1    
   168   85   87 1    
   169   85  206 1    
   170   86  207 1    
   171   86  208 1    
   172   86  209 1    
   173   87   88 2    
   174   87   89 am   BACKBONE|DICT|INTERRES
   175   89   90 1    
   176   89  210 1    
   177   90   91 1    
   178   90   92 1    
   179   90  211 1    
   180   91  212 1    
   181   91  213 1    
   182   91  214 1    
   183   92   93 2    
   184   92   94 am   BACKBONE|DICT|INTERRES
   185   94   95 1    
   186   94  215 1    
   187   95   96 1    
   188   95   97 1    
   189   95  216 1    
   190   96  217 1    
   191   96  218 1    
   192   96  219 1    
   193   97   98 2    
   194   97   99 am   BACKBONE|DICT|INTERRES
   195   99  100 1    
   196   99  220 1    
   197  100  101 1    
   198  100  102 1    
   199  100  221 1    
   200  101  222 1    
   201  101  223 1    
   202  101  224 1    
   203  102  103 2    
   204  102  104 am   BACKBONE|DICT|INTERRES
   205  104  105 1    
   206  104  225 1    
   207  105  106 1    
   208  105  107 1    
   209  105  226 1    
   210  106  227 1    
   211  106  228 1    
   212  106  229 1    
   213  107  108 2    
   214  107  109 am   BACKBONE|DICT|INTERRES
   215  109  110 1    
   216  109  230 1    
   217  110  111 1    
   218  110  112 1    
   219  110  231 1    
   220  111  232 1    
   221  111  233 1    
   222  111  234 1    
   223  112  113 2    
   224  112  114 am   BACKBONE|DICT|INTERRES
   225  114  115 1    
   226  114  235 1    
   227  115  116 1    
   228  115  117 1    
   229  115  236 1    
   230  116  237 1    
   231  116  238 1    
   232  116  239 1    
   233  117  118 2    
   234  117  119 am   BACKBONE|DICT|INTERRES
   235  119  120 1    
   236  119  240 1    
   237  120  121 1    
   238  120  124 1    
   239  120  241 1    
   240  121  122 am   BACKBONE|DICT|INTERRES
   241  121  123 2    
   242  122  242 1    
   243  122  243 1    
   244  124  125 1    
   245  124  244 1    
   246  124  245 1    
   247  125  126 1    
   248  126  246 1    
   249  126  247 1    
@<TRIPOS>SUBSTRUCTURE
     1 UNK         1 GROUP             0       ****    0 ROOT    
