@<TRIPOS>MOLECULE
3R540
247   249    1
SMALL
USER_CHARGES


@<TRIPOS>ATOM
      1 CA         -0.3104  -16.1102  -53.6466 C.3       0 UNK        -0.1800 
      2 C          -0.1934  -15.6882  -52.1900 C.2       0 UNK         0.5000 
      3 O           0.3895  -14.6419  -51.9070 O.2       0 UNK        -0.5000 
      4 N          -0.7542  -16.4899  -51.2739 N.am      1 UNK        -0.5000 
      5 CA         -0.8866  -16.2152  -49.8367 C.3       1 UNK         0.1400 
      6 C6         -1.7074  -14.9267  -49.5226 C.3       23 UNK        -0.0398 
      7 S7         -3.3870  -14.9316  -50.2467 S.3       23 UNK        -0.2404 
      8 C8         -4.4533  -15.1692  -48.7869 C.3       23 UNK        -0.0205 
      9 C9         -4.4968  -16.6215  -48.3327 C.ar      23 UNK        -0.0193 
     10 C10        -5.6063  -17.4256  -48.6131 C.ar      23 UNK        -0.1150 
     11 C11        -5.6535  -18.7520  -48.1687 C.ar      23 UNK        -0.0193 
     12 C12        -4.5586  -19.2853  -47.4792 C.ar      23 UNK        -0.1150 
     13 C13        -3.4410  -18.4920  -47.2044 C.ar      23 UNK        -0.0193 
     14 C14        -3.4327  -17.1573  -47.6065 C.ar      23 UNK        -0.1150 
     15 C15        -2.2244  -19.0641  -46.4997 C.3       23 UNK        -0.0205 
     16 S16        -2.3922  -19.0197  -44.6915 S.3       23 UNK        -0.2404 
     17 C17        -2.8549  -20.7475  -44.3430 C.3       23 UNK        -0.0398 
     18 CA         -1.6034  -21.6659  -44.2382 C.3       11 UNK         0.1400 
     19 N          -1.4383  -22.2450  -42.8970 N.am      11 UNK        -0.5000 
     20 C          -0.4055  -23.0046  -42.4952 C.2       10 UNK         0.5000 
     21 O           0.4763  -23.4063  -43.2566 O.2       10 UNK        -0.5000 
     22 CA         -0.3565  -23.3716  -40.9997 C.3       10 UNK         0.1400 
     23 CB          1.0618  -23.7475  -40.5332 C.3       10 UNK        -0.1800 
     24 N          -0.8350  -22.2529  -40.1905 N.am      10 UNK        -0.5000 
     25 C          -1.8463  -22.2904  -39.3123 C.2       9 UNK         0.5000 
     26 O          -2.5042  -23.3038  -39.0745 O.2       9 UNK        -0.5000 
     27 CA         -2.1925  -20.9796  -38.5707 C.3       9 UNK         0.1400 
     28 CB         -1.6586  -21.0233  -37.1305 C.3       9 UNK        -0.1800 
     29 N          -1.6706  -19.7788  -39.2269 N.am      9 UNK        -0.5000 
     30 C          -2.0899  -19.3040  -40.4078 C.2       8 UNK         0.5000 
     31 O          -3.0506  -19.7698  -41.0191 O.2       8 UNK        -0.5000 
     32 CA         -1.2718  -18.1549  -41.0353 C.3       8 UNK         0.1400 
     33 CB         -1.9984  -16.8121  -40.8711 C.3       8 UNK        -0.1800 
     34 N           0.0978  -18.0292  -40.5194 N.am      8 UNK        -0.5000 
     35 C           1.0453  -18.9687  -40.6372 C.2       7 UNK         0.5000 
     36 O           0.8595  -20.0546  -41.1889 O.2       7 UNK        -0.5000 
     37 CA          2.4147  -18.6503  -40.0262 C.3       7 UNK         0.1400 
     38 CB          3.0155  -19.8912  -39.3314 C.3       7 UNK        -0.1800 
     39 N           3.2862  -18.1741  -41.0932 N.am      7 UNK        -0.5000 
     40 C           4.4908  -17.6148  -40.9303 C.2       6 UNK         0.5000 
     41 O           5.0015  -17.3879  -39.8326 O.2       6 UNK        -0.5000 
     42 CA          5.2491  -17.2333  -42.2113 C.3       6 UNK         0.1400 
     43 CB          5.6290  -18.4791  -43.0300 C.3       6 UNK        -0.1800 
     44 N           4.4563  -16.3281  -43.0391 N.am      6 UNK        -0.5000 
     45 C           4.4719  -14.9917  -42.9373 C.2       5 UNK         0.5000 
     46 O           5.1775  -14.3759  -42.1375 O.2       5 UNK        -0.5000 
     47 CA          3.5582  -14.2007  -43.8949 C.3       5 UNK         0.1400 
     48 CB          4.3564  -13.6987  -45.1079 C.3       5 UNK        -0.1800 
     49 N           2.4214  -14.9875  -44.3702 N.am      5 UNK        -0.5000 
     50 C           1.3320  -15.2604  -43.6387 C.2       4 UNK         0.5000 
     51 O           1.1343  -14.8110  -42.5097 O.2       4 UNK        -0.5000 
     52 CA          0.3067  -16.2277  -44.2584 C.3       4 UNK         0.1400 
     53 CB         -0.8284  -15.4527  -44.9421 C.3       4 UNK        -0.1800 
     54 N           0.9041  -17.1812  -45.1993 N.am      4 UNK        -0.5000 
     55 C           1.7720  -18.1375  -44.8359 C.2       3 UNK         0.5000 
     56 O           2.1676  -18.2840  -43.6808 O.2       3 UNK        -0.5000 
     57 CA          2.3321  -19.0679  -45.9247 C.3       3 UNK         0.1400 
     58 CB          1.6012  -20.4138  -45.8857 C.3       3 UNK        -0.1800 
     59 N           2.2906  -18.5139  -47.2801 N.am      3 UNK        -0.5000 
     60 C           3.0056  -17.4539  -47.6805 C.2       2 UNK         0.5000 
     61 O           3.7465  -16.8115  -46.9345 O.2       2 UNK        -0.5000 
     62 CA          2.8381  -17.0129  -49.1467 C.3       2 UNK         0.1400 
     63 CB          3.6828  -17.8885  -50.0850 C.3       2 UNK        -0.1800 
     64 N           1.4495  -16.9907  -49.6170 N.am      2 UNK        -0.5000 
     65 C           0.4682  -16.2436  -49.0890 C.2       1 UNK         0.5000 
     66 O           0.6044  -15.5941  -48.0515 O.2       1 UNK        -0.5000 
     67 C          -1.5726  -22.6983  -45.3878 C.2       11 UNK         0.5000 
     68 O          -1.1055  -22.3778  -46.4797 O.2       11 UNK        -0.5000 
     69 N          -2.0214  -23.9310  -45.1152 N.am      12 UNK        -0.5000 
     70 CA         -2.0290  -25.0576  -46.0525 C.3       12 UNK         0.1400 
     71 CB         -2.7205  -26.2519  -45.3769 C.3       12 UNK        -0.1800 
     72 C          -0.6391  -25.4709  -46.5870 C.2       12 UNK         0.5000 
     73 O          -0.5752  -26.1658  -47.6018 O.2       12 UNK        -0.5000 
     74 N           0.4414  -25.0449  -45.9150 N.am      13 UNK        -0.5000 
     75 CA          1.8260  -25.3021  -46.3099 C.3       13 UNK         0.1400 
     76 CB          2.7619  -24.8538  -45.1771 C.3       13 UNK        -0.1800 
     77 C           2.2367  -24.6301  -47.6360 C.2       13 UNK         0.5000 
     78 O           3.0538  -25.1997  -48.3609 O.2       13 UNK        -0.5000 
     79 N           1.6792  -23.4473  -47.9326 N.am      14 UNK        -0.5000 
     80 CA          1.9995  -22.6479  -49.1167 C.3       14 UNK         0.1400 
     81 CB          3.4367  -22.0808  -49.0475 C.3       14 UNK        -0.1800 
     82 C           0.9433  -21.5484  -49.3001 C.2       14 UNK         0.5000 
     83 O           1.2598  -20.3590  -49.2277 O.2       14 UNK        -0.5000 
     84 N          -0.3117  -21.9605  -49.5139 N.am      15 UNK        -0.5000 
     85 CA         -1.4192  -21.0423  -49.7891 C.3       15 UNK         0.1400 
     86 CB         -2.7566  -21.7817  -49.6394 C.3       15 UNK        -0.1800 
     87 C          -1.3125  -20.3886  -51.1781 C.2       15 UNK         0.5000 
     88 O          -1.7102  -19.2344  -51.3299 O.2       15 UNK        -0.5000 
     89 N          -0.7607  -21.1346  -52.1511 N.am      16 UNK        -0.5000 
     90 CA         -0.5949  -20.7623  -53.5615 C.3       16 UNK         0.1400 
     91 CB          0.4653  -19.6539  -53.7131 C.3       16 UNK        -0.1800 
     92 C          -1.9494  -20.4261  -54.2168 C.2       16 UNK         0.5000 
     93 O          -2.1423  -19.3326  -54.7534 O.2       16 UNK        -0.5000 
     94 N          -2.8779  -21.3883  -54.1118 N.am      17 UNK        -0.5000 
     95 CA         -4.2995  -21.2919  -54.4553 C.3       17 UNK         0.1400 
     96 CB         -4.9533  -22.6660  -54.2543 C.3       17 UNK        -0.1800 
     97 C          -4.6151  -20.7496  -55.8596 C.2       17 UNK         0.5000 
     98 O          -5.6145  -20.0499  -56.0171 O.2       17 UNK        -0.5000 
     99 N          -3.7460  -21.0400  -56.8364 N.am      18 UNK        -0.5000 
    100 CA        -3.8457  -20.5525  -58.2140 C.3       18 UNK         0.1400 
    101 CB        -2.7797  -21.2541  -59.0693 C.3       18 UNK        -0.1800 
    102 C         -3.7182  -19.0203  -58.3450 C.2       18 UNK         0.5000 
    103 O         -4.2812  -18.4503  -59.2805 O.2       18 UNK        -0.5000 
    104 N         -2.9931  -18.3876  -57.4133 N.am      19 UNK        -0.5000 
    105 CA        -2.8127  -16.9389  -57.3380 C.3       19 UNK         0.1400 
    106 CB        -1.3243  -16.6345  -57.1084 C.3       19 UNK        -0.1800 
    107 C         -3.6750  -16.3224  -56.2231 C.2       19 UNK         0.5000 
    108 O         -4.2170  -15.2330  -56.4116 O.2       19 UNK        -0.5000 
    109 N         -3.7907  -17.0217  -55.0857 N.am      20 UNK        -0.5000 
    110 CA        -4.5244  -16.5693  -53.9020 C.3       20 UNK         0.1400 
    111 CB        -4.1035  -17.4314  -52.7039 C.3       20 UNK        -0.1800 
    112 C         -6.0554  -16.6162  -54.0461 C.2       20 UNK         0.5000 
    113 O         -6.7430  -15.8814  -53.3371 O.2       20 UNK        -0.5000 
    114 N         -6.5582  -17.5164  -54.9060 N.am      21 UNK        -0.5000 
    115 CA        -7.9635  -17.9309  -55.0271 C.3       21 UNK         0.1400 
    116 CB        -8.8653  -16.7630  -55.4794 C.3       21 UNK        -0.1800 
    117 C         -8.4795  -18.6467  -53.7560 C.2       21 UNK         0.5000 
    118 O         -9.6756  -18.6096  -53.4623 O.2       21 UNK        -0.5000 
    119 N         -7.5541  -19.2807  -53.0236 N.am      22 UNK        -0.5000 
    120 CA        -7.7980  -20.0761  -51.8152 C.3       22 UNK         0.1400 
    121 C         -8.5636  -21.3913  -52.1388 C.2       22 UNK         0.5000 
    122 N         -9.5860  -21.7347  -51.3671 N.am      22 UNK        -0.7600 
    123 O         -8.2213  -22.1145  -53.0707 O.2       22 UNK        -0.5000 
    124 C124       -6.4572  -20.3312  -51.0753 C.3       23 UNK        -0.0398 
    125 S125       -6.6428  -21.0592  -49.4133 S.3       23 UNK        -0.2404 
    126 C126       -6.9111  -19.5858  -48.3781 C.3       23 UNK        -0.0205 
    127 H127       -1.0301  -16.9184  -53.7745 H         1 UNK         0.0600 
    128 H128        0.6562  -16.4428  -54.0245 H         1 UNK         0.0600 
    129 H129       -0.6452  -15.2698  -54.2545 H         1 UNK         0.0600 
    130 H130       -1.1819  -17.3664  -51.5631 H         1 UNK         0.3000 
    131 H131       -1.4407  -17.0671  -49.4446 H         1 UNK         0.0600 
    132 H132       -1.7904  -14.7629  -48.4482 H         1 UNK         0.0800 
    133 H133       -1.1871  -14.0456  -49.8991 H         1 UNK         0.0800 
    134 H134       -4.1183  -14.5297  -47.9690 H         1 UNK         0.0800 
    135 H135       -5.4588  -14.8295  -49.0395 H         1 UNK         0.0800 
    136 H136       -6.4443  -17.0097  -49.1548 H         1 UNK         0.1150 
    137 H137       -4.5828  -20.3149  -47.1523 H         1 UNK         0.1150 
    138 H138       -2.5813  -16.5404  -47.3677 H         1 UNK         0.1150 
    139 H139       -2.0534  -20.0814  -46.8428 H         1 UNK         0.0800 
    140 H140       -1.3314  -18.5036  -46.7795 H         1 UNK         0.0800 
    141 H141       -3.4239  -20.7514  -43.4136 H         1 UNK         0.0800 
    142 H142       -3.5670  -21.0818  -45.1000 H         1 UNK         0.0800 
    143 H143       -0.7105  -21.0567  -44.3760 H         1 UNK         0.0600 
    144 H144       -2.1061  -21.9501  -42.1984 H         1 UNK         0.3000 
    145 H145       -1.0006  -24.2437  -40.8729 H         1 UNK         0.0600 
    146 H146        1.0726  -24.0033  -39.4736 H         1 UNK         0.0600 
    147 H147        1.4409  -24.6124  -41.0790 H         1 UNK         0.0600 
    148 H148        1.7627  -22.9257  -40.6868 H         1 UNK         0.0600 
    149 H149       -0.3592  -21.3718  -40.3643 H         1 UNK         0.3000 
    150 H150       -3.2810  -20.9020  -38.5321 H         1 UNK         0.0600 
    151 H151       -2.0513  -21.8878  -36.5935 H         1 UNK         0.0600 
    152 H152       -1.9543  -20.1348  -36.5723 H         1 UNK         0.0600 
    153 H153       -0.5700  -21.0894  -37.1071 H         1 UNK         0.0600 
    154 H154       -0.8811  -19.3303  -38.7870 H         1 UNK         0.3000 
    155 H155       -1.1963  -18.3755  -42.1003 H         1 UNK         0.0600 
    156 H156       -1.4710  -16.0105  -41.3889 H         1 UNK         0.0600 
    157 H157       -2.0913  -16.5313  -39.8214 H         1 UNK         0.0600 
    158 H158       -3.0045  -16.8595  -41.2901 H         1 UNK         0.0600 
    159 H159        0.3273  -17.1561  -40.0660 H         1 UNK         0.3000 
    160 H160        2.2940  -17.8572  -39.2856 H         1 UNK         0.0600 
    161 H161        3.2543  -20.6774  -40.0488 H         1 UNK         0.0600 
    162 H162        2.3161  -20.3100  -38.6066 H         1 UNK         0.0600 
    163 H163        3.9287  -19.6461  -38.7898 H         1 UNK         0.0600 
    164 H164        2.9143  -18.2921  -42.0362 H         1 UNK         0.3000 
    165 H165        6.1779  -16.7391  -41.9178 H         1 UNK         0.0600 
    166 H166        4.7534  -19.0309  -43.3722 H         1 UNK         0.0600 
    167 H167        6.2144  -18.2070  -43.9085 H         1 UNK         0.0600 
    168 H168        6.2347  -19.1641  -42.4355 H         1 UNK         0.0600 
    169 H169        3.8009  -16.7574  -43.6774 H         1 UNK         0.3000 
    170 H170        3.1810  -13.3311  -43.3524 H         1 UNK         0.0600 
    171 H171        5.1923  -13.0725  -44.7934 H         1 UNK         0.0600 
    172 H172        4.7662  -14.5250  -45.6900 H         1 UNK         0.0600 
    173 H173        3.7323  -13.0986  -45.7704 H         1 UNK         0.0600 
    174 H174        2.5102  -15.4081  -45.2860 H         1 UNK         0.3000 
    175 H175       -0.1276  -16.8028  -43.4404 H         1 UNK         0.0600 
    176 H176       -0.4651  -14.8501  -45.7742 H         1 UNK         0.0600 
    177 H177       -1.5949  -16.1279  -45.3180 H         1 UNK         0.0600 
    178 H178       -1.3148  -14.7764  -44.2380 H         1 UNK         0.0600 
    179 H179        0.6811  -17.0631  -46.1781 H         1 UNK         0.3000 
    180 H180        3.3791  -19.2510  -45.6743 H         1 UNK         0.0600 
    181 H181        0.5850  -20.3244  -46.2683 H         1 UNK         0.0600 
    182 H182        1.5485  -20.8061  -44.8690 H         1 UNK         0.0600 
    183 H183        2.1230  -21.1599  -46.4776 H         1 UNK         0.0600 
    184 H184        1.7524  -19.0269  -47.9749 H         1 UNK         0.3000 
    185 H185        3.2148  -15.9905  -49.2176 H         1 UNK         0.0600 
    186 H186        3.6620  -17.5063  -51.1057 H         1 UNK         0.0600 
    187 H187        4.7260  -17.9083  -49.7672 H         1 UNK         0.0600 
    188 H188        3.3277  -18.9187  -50.1064 H         1 UNK         0.0600 
    189 H189        1.2453  -17.5247  -50.4488 H         1 UNK         0.3000 
    190 H190       -2.3644  -24.1179  -44.1845 H         1 UNK         0.3000 
    191 H191       -2.6262  -24.7595  -46.9167 H         1 UNK         0.0600 
    192 H192       -2.7809  -27.1051  -46.0540 H         1 UNK         0.0600 
    193 H193       -3.7398  -26.0032  -45.0807 H         1 UNK         0.0600 
    194 H194       -2.1803  -26.5768  -44.4868 H         1 UNK         0.0600 
    195 H195        0.3090  -24.4791  -45.0836 H         1 UNK         0.3000 
    196 H196        1.9403  -26.3805  -46.4378 H         1 UNK         0.0600 
    197 H197        3.8031  -25.0700  -45.4199 H         1 UNK         0.0600 
    198 H198        2.6830  -23.7814  -44.9925 H         1 UNK         0.0600 
    199 H199        2.5308  -25.3706  -44.2454 H         1 UNK         0.0600 
    200 H200        0.9688  -23.0669  -47.3169 H         1 UNK         0.3000 
    201 H201        1.9343  -23.2934  -49.9948 H         1 UNK         0.0600 
    202 H202        4.1838  -22.8732  -49.0188 H         1 UNK         0.0600 
    203 H203        3.5895  -21.4495  -48.1730 H         1 UNK         0.0600 
    204 H204        3.6558  -21.4743  -49.9270 H         1 UNK         0.0600 
    205 H205       -0.5205  -22.9482  -49.5027 H         1 UNK         0.3000 
    206 H206       -1.3911  -20.2374  -49.0534 H         1 UNK         0.0600 
    207 H207       -2.8401  -22.6166  -50.3358 H         1 UNK         0.0600 
    208 H208       -2.8813  -22.1708  -48.6288 H         1 UNK         0.0600 
    209 H209       -3.5928  -21.1082  -49.8310 H         1 UNK         0.0600 
    210 H210       -0.4589  -22.0661  -51.9059 H         1 UNK         0.3000 
    211 H211       -0.2178  -21.6438  -54.0820 H         1 UNK         0.0600 
    212 H212        0.2243  -18.7792  -53.1137 H         1 UNK         0.0600 
    213 H213        0.5587  -19.3313  -54.7508 H         1 UNK         0.0600 
    214 H214        1.4451  -20.0078  -53.3931 H         1 UNK         0.0600 
    215 H215       -2.6028  -22.2452  -53.6548 H         1 UNK         0.3000 
    216 H216       -4.7498  -20.5993  -53.7451 H         1 UNK         0.0600 
    217 H217       -6.0101  -22.6412  -54.5229 H         1 UNK         0.0600 
    218 H218       -4.8929  -22.9853  -53.2137 H         1 UNK         0.0600 
    219 H219       -4.4788  -23.4308  -54.8703 H         1 UNK         0.0600 
    220 H220       -2.9457  -21.6125  -56.6121 H         1 UNK         0.3000 
    221 H221       -4.8297  -20.8321  -58.5962 H         1 UNK         0.0600 
    222 H222       -1.7716  -21.0313  -58.7174 H         1 UNK         0.0600 
    223 H223       -2.9104  -22.3363  -59.0544 H         1 UNK         0.0600 
    224 H224       -2.8419  -20.9351  -60.1106 H         1 UNK         0.0600 
    225 H225       -2.5940  -18.9291  -56.6539 H         1 UNK         0.3000 
    226 H226       -3.1068  -16.4663  -58.2775 H         1 UNK         0.0600 
    227 H227       -0.7267  -16.9447  -57.9656 H         1 UNK         0.0600 
    228 H228       -1.1567  -15.5664  -56.9639 H         1 UNK         0.0600 
    229 H229       -0.9378  -17.1540  -56.2318 H         1 UNK         0.0600 
    230 H230       -3.2672  -17.8881  -54.9895 H         1 UNK         0.3000 
    231 H231       -4.2434  -15.5347  -53.6933 H         1 UNK         0.0600 
    232 H232       -4.6624  -17.1682  -51.8050 H         1 UNK         0.0600 
    233 H233       -3.0502  -17.2876  -52.4796 H         1 UNK         0.0600 
    234 H234       -4.2608  -18.4929  -52.8870 H         1 UNK         0.0600 
    235 H235       -5.9076  -18.0881  -55.4340 H         1 UNK         0.3000 
    236 H236       -7.9869  -18.6802  -55.8193 H         1 UNK         0.0600 
    237 H237       -8.4580  -16.2695  -56.3618 H         1 UNK         0.0600 
    238 H238       -9.8622  -17.1204  -55.7394 H         1 UNK         0.0600 
    239 H239       -8.9848  -16.0119  -54.6985 H         1 UNK         0.0600 
    240 H240       -6.6112  -19.2799  -53.3768 H         1 UNK         0.3000 
    241 H241       -8.4278  -19.4675  -51.1635 H         1 UNK         0.0600 
    242 H242       -9.8751  -21.1640  -50.5879 H         1 UNK         0.3800 
    243 H243      -10.0818  -22.5901  -51.5639 H         1 UNK         0.3800 
    244 H244       -5.8223  -20.9991  -51.6583 H         1 UNK         0.0800 
    245 H245       -5.8980  -19.3997  -50.9761 H         1 UNK         0.0800 
    246 H246       -7.2725  -19.9128  -47.4022 H         1 UNK         0.0800 
    247 H247       -7.7124  -18.9835  -48.8084 H         1 UNK         0.0800 
@<TRIPOS>BOND
     1    1    2 1    
     2    1  127 1    
     3    1  128 1    
     4    1  129 1    
     5    2    3 2    
     6    2    4 am   BACKBONE|DICT|INTERRES
     7    4    5 1    
     8    4  130 1    
     9    5    6 1    
    10    5   65 1    
    11    5  131 1    
    12    6    7 1    
    13    6  132 1    
    14    6  133 1    
    15    7    8 1    
    16    8    9 1    
    17    8  134 1    
    18    8  135 1    
    19    9   10 ar   
    20    9   14 ar   
    21   10   11 ar   
    22   10  136 1    
    23   11   12 ar   
    24   11  126 1    
    25   12   13 ar   
    26   12  137 1    
    27   13   14 ar   
    28   13   15 1    
    29   14  138 1    
    30   15   16 1    
    31   15  139 1    
    32   15  140 1    
    33   16   17 1    
    34   17   18 1    
    35   17  141 1    
    36   17  142 1    
    37   18   19 1    
    38   18   67 1    
    39   18  143 1    
    40   19   20 am   BACKBONE|DICT|INTERRES
    41   19  144 1    
    42   20   21 2    
    43   20   22 1    
    44   22   23 1    
    45   22   24 1    
    46   22  145 1    
    47   23  146 1    
    48   23  147 1    
    49   23  148 1    
    50   24   25 am   BACKBONE|DICT|INTERRES
    51   24  149 1    
    52   25   26 2    
    53   25   27 1    
    54   27   28 1    
    55   27   29 1    
    56   27  150 1    
    57   28  151 1    
    58   28  152 1    
    59   28  153 1    
    60   29   30 am   BACKBONE|DICT|INTERRES
    61   29  154 1    
    62   30   31 2    
    63   30   32 1    
    64   32   33 1    
    65   32   34 1    
    66   32  155 1    
    67   33  156 1    
    68   33  157 1    
    69   33  158 1    
    70   34   35 am   BACKBONE|DICT|INTERRES
    71   34  159 1    
    72   35   36 2    
    73   35   37 1    
    74   37   38 1    
    75   37   39 1    
    76   37  160 1    
    77   38  161 1    
    78   38  162 1    
    79   38  163 1    
    80   39   40 am   BACKBONE|DICT|INTERRES
    81   39  164 1    
    82   40   41 2    
    83   40   42 1    
    84   42   43 1    
    85   42   44 1    
    86   42  165 1    
    87   43  166 1    
    88   43  167 1    
    89   43  168 1    
    90   44   45 am   BACKBONE|DICT|INTERRES
    91   44  169 1    
    92   45   46 2    
    93   45   47 1    
    94   47   48 1    
    95   47   49 1    
    96   47  170 1    
    97   48  171 1    
    98   48  172 1    
    99   48  173 1    
   100   49   50 am   BACKBONE|DICT|INTERRES
   101   49  174 1    
   102   50   51 2    
   103   50   52 1    
   104   52   53 1    
   105   52   54 1    
   106   52  175 1    
   107   53  176 1    
   108   53  177 1    
   109   53  178 1    
   110   54   55 am   BACKBONE|DICT|INTERRES
   111   54  179 1    
   112   55   56 2    
   113   55   57 1    
   114   57   58 1    
   115   57   59 1    
   116   57  180 1    
   117   58  181 1    
   118   58  182 1    
   119   58  183 1    
   120   59   60 am   BACKBONE|DICT|INTERRES
   121   59  184 1    
   122   60   61 2    
   123   60   62 1    
   124   62   63 1    
   125   62   64 1    
   126   62  185 1    
   127   63  186 1    
   128   63  187 1    
   129   63  188 1    
   130   64   65 am   BACKBONE|DICT|INTERRES
   131   64  189 1    
   132   65   66 2    
   133   67   68 2    
   134   67   69 am   BACKBONE|DICT|INTERRES
   135   69   70 1    
   136   69  190 1    
   137   70   71 1    
   138   70   72 1    
   139   70  191 1    
   140   71  192 1    
   141   71  193 1    
   142   71  194 1    
   143   72   73 2    
   144   72   74 am   BACKBONE|DICT|INTERRES
   145   74   75 1    
   146   74  195 1    
   147   75   76 1    
   148   75   77 1    
   149   75  196 1    
   150   76  197 1    
   151   76  198 1    
   152   76  199 1    
   153   77   78 2    
   154   77   79 am   BACKBONE|DICT|INTERRES
   155   79   80 1    
   156   79  200 1    
   157   80   81 1    
   158   80   82 1    
   159   80  201 1    
   160   81  202 1    
   161   81  203 1    
   162   81  204 1    
   163   82   83 2    
   164   82   84 am   BACKBONE|DICT|INTERRES
   165   84   85 1    
   166   84  205 1    
   167   85   86 1    
   168   85   87 1    
   169   85  206 1    
   170   86  207 1    
   171   86  208 1    
   172   86  209 1    
   173   87   88 2    
   174   87   89 am   BACKBONE|DICT|INTERRES
   175   89   90 1    
   176   89  210 1    
   177   90   91 1    
   178   90   92 1    
   179   90  211 1    
   180   91  212 1    
   181   91  213 1    
   182   91  214 1    
   183   92   93 2    
   184   92   94 am   BACKBONE|DICT|INTERRES
   185   94   95 1    
   186   94  215 1    
   187   95   96 1    
   188   95   97 1    
   189   95  216 1    
   190   96  217 1    
   191   96  218 1    
   192   96  219 1    
   193   97   98 2    
   194   97   99 am   BACKBONE|DICT|INTERRES
   195   99  100 1    
   196   99  220 1    
   197  100  101 1    
   198  100  102 1    
   199  100  221 1    
   200  101  222 1    
   201  101  223 1    
   202  101  224 1    
   203  102  103 2    
   204  102  104 am   BACKBONE|DICT|INTERRES
   205  104  105 1    
   206  104  225 1    
   207  105  106 1    
   208  105  107 1    
   209  105  226 1    
   210  106  227 1    
   211  106  228 1    
   212  106  229 1    
   213  107  108 2    
   214  107  109 am   BACKBONE|DICT|INTERRES
   215  109  110 1    
   216  109  230 1    
   217  110  111 1    
   218  110  112 1    
   219  110  231 1    
   220  111  232 1    
   221  111  233 1    
   222  111  234 1    
   223  112  113 2    
   224  112  114 am   BACKBONE|DICT|INTERRES
   225  114  115 1    
   226  114  235 1    
   227  115  116 1    
   228  115  117 1    
   229  115  236 1    
   230  116  237 1    
   231  116  238 1    
   232  116  239 1    
   233  117  118 2    
   234  117  119 am   BACKBONE|DICT|INTERRES
   235  119  120 1    
   236  119  240 1    
   237  120  121 1    
   238  120  124 1    
   239  120  241 1    
   240  121  122 am   BACKBONE|DICT|INTERRES
   241  121  123 2    
   242  122  242 1    
   243  122  243 1    
   244  124  125 1    
   245  124  244 1    
   246  124  245 1    
   247  125  126 1    
   248  126  246 1    
   249  126  247 1    
@<TRIPOS>SUBSTRUCTURE
     1 UNK         1 GROUP             0       ****    0 ROOT    
