@<TRIPOS>MOLECULE
3R540
247   249    1
SMALL
USER_CHARGES


@<TRIPOS>ATOM
      1 CA          5.7005  -14.9069  -43.3109 C.3       0 UNK        -0.1800 
      2 C           5.1218  -13.9506  -44.3423 C.2       0 UNK         0.5000 
      3 O           4.1479  -13.2551  -44.0544 O.2       0 UNK        -0.5000 
      4 N           5.7163  -13.8994  -45.5419 N.am      1 UNK        -0.5000 
      5 CA          5.2890  -13.0491  -46.6652 C.3       1 UNK         0.1400 
      6 C6          5.9118  -13.4978  -48.0093 C.3       23 UNK        -0.0398 
      7 S7          5.2324  -15.1033  -48.5447 S.3       23 UNK        -0.2404 
      8 C8          3.9425  -14.5440  -49.7084 C.3       23 UNK        -0.0205 
      9 C9          2.8867  -15.6005  -50.0265 C.ar      23 UNK        -0.0193 
     10 C10         1.5439  -15.2187  -50.1240 C.ar      23 UNK        -0.1150 
     11 C11         0.5580  -16.1498  -50.4625 C.ar      23 UNK        -0.0193 
     12 C12         0.9222  -17.4791  -50.6931 C.ar      23 UNK        -0.1150 
     13 C13         2.2573  -17.8790  -50.6023 C.ar      23 UNK        -0.0193 
     14 C14         3.2349  -16.9347  -50.2721 C.ar      23 UNK        -0.1150 
     15 C15         2.6468  -19.3207  -50.8981 C.3       23 UNK        -0.0205 
     16 S16         2.4366  -20.4052  -49.4509 S.3       23 UNK        -0.2404 
     17 C17         0.6311  -20.6782  -49.4514 C.3       23 UNK        -0.0398 
     18 CA          0.2312  -21.8973  -48.5878 C.3       11 UNK         0.1400 
     19 N           0.4128  -21.6543  -47.1555 N.am      11 UNK        -0.5000 
     20 C           0.3145  -22.5881  -46.2000 C.2       10 UNK         0.5000 
     21 O           0.0952  -23.7787  -46.4261 O.2       10 UNK        -0.5000 
     22 CA          0.4280  -22.1002  -44.7443 C.3       10 UNK         0.1400 
     23 CB          1.8919  -21.8353  -44.3621 C.3       10 UNK        -0.1800 
     24 N          -0.3774  -20.9035  -44.4914 N.am      10 UNK        -0.5000 
     25 C          -1.7160  -20.8689  -44.5656 C.2       9 UNK         0.5000 
     26 O          -2.4099  -21.8543  -44.8165 O.2       9 UNK        -0.5000 
     27 CA         -2.3948  -19.5020  -44.3624 C.3       9 UNK         0.1400 
     28 CB         -2.5050  -19.1644  -42.8682 C.3       9 UNK        -0.1800 
     29 N          -1.7058  -18.4168  -45.0587 N.am      9 UNK        -0.5000 
     30 C          -1.5676  -18.3255  -46.3890 C.2       8 UNK         0.5000 
     31 O          -2.0454  -19.1301  -47.1892 O.2       8 UNK        -0.5000 
     32 CA         -0.6818  -17.1815  -46.9110 C.3       8 UNK         0.1400 
     33 CB         -1.4381  -15.8452  -46.9238 C.3       8 UNK        -0.1800 
     34 N           0.5545  -17.0403  -46.1433 N.am      8 UNK        -0.5000 
     35 C           1.4973  -17.9888  -46.0548 C.2       7 UNK         0.5000 
     36 O           1.4241  -19.0805  -46.6112 O.2       7 UNK        -0.5000 
     37 CA          2.6976  -17.6903  -45.1460 C.3       7 UNK         0.1400 
     38 CB          3.7436  -16.8614  -45.8983 C.3       7 UNK        -0.1800 
     39 N           2.3019  -17.0077  -43.9137 N.am      7 UNK        -0.5000 
     40 C           1.5838  -17.5896  -42.9424 C.2       6 UNK         0.5000 
     41 O           1.2121  -18.7634  -42.9724 O.2       6 UNK        -0.5000 
     42 CA          1.1709  -16.6882  -41.7660 C.3       6 UNK         0.1400 
     43 CB          2.3440  -16.4845  -40.7951 C.3       6 UNK        -0.1800 
     44 N           0.6618  -15.3826  -42.1959 N.am      6 UNK        -0.5000 
     45 C          -0.4489  -15.2072  -42.9279 C.2       5 UNK         0.5000 
     46 O          -1.1277  -16.1324  -43.3714 O.2       5 UNK        -0.5000 
     47 CA         -0.8406  -13.7619  -43.2559 C.3       5 UNK         0.1400 
     48 CB         -1.1056  -12.9379  -41.9839 C.3       5 UNK        -0.1800 
     49 N           0.2216  -13.1330  -44.0355 N.am      5 UNK        -0.5000 
     50 C           0.0680  -12.5687  -45.2401 C.2       4 UNK         0.5000 
     51 O          -1.0033  -12.5168  -45.8456 O.2       4 UNK        -0.5000 
     52 CA          1.3443  -11.9661  -45.8619 C.3       4 UNK         0.1400 
     53 CB          1.0655  -10.9864  -47.0197 C.3       4 UNK        -0.1800 
     54 N           2.2264  -11.3671  -44.8542 N.am      4 UNK        -0.5000 
     55 C           1.9761  -10.3118  -44.0622 C.2       3 UNK         0.5000 
     56 O           0.9493   -9.6343  -44.1101 O.2       3 UNK        -0.5000 
     57 CA          3.0633   -9.9647  -43.0297 C.3       3 UNK         0.1400 
     58 CB          2.8682  -10.7950  -41.7506 C.3       3 UNK        -0.1800 
     59 N           4.4019  -10.2144  -43.5652 N.am      3 UNK        -0.5000 
     60 C           5.1352   -9.3106  -44.2311 C.2       2 UNK         0.5000 
     61 O           4.8143   -8.1291  -44.3646 O.2       2 UNK        -0.5000 
     62 CA          6.4372   -9.8216  -44.8824 C.3       2 UNK         0.1400 
     63 CB          7.6022   -9.7658  -43.8826 C.3       2 UNK        -0.1800 
     64 N           6.3038  -11.1877  -45.3929 N.am      2 UNK        -0.5000 
     65 C           5.5139  -11.5406  -46.4180 C.2       1 UNK         0.5000 
     66 O           4.9340  -10.7259  -47.1359 O.2       1 UNK        -0.5000 
     67 C          -1.2026  -22.3604  -48.9111 C.2       11 UNK         0.5000 
     68 O          -1.3591  -23.2872  -49.7033 O.2       11 UNK        -0.5000 
     69 N          -2.2155  -21.7555  -48.2715 N.am      12 UNK        -0.5000 
     70 CA         -3.6188  -22.1600  -48.3794 C.3       12 UNK         0.1400 
     71 CB         -4.5249  -21.1745  -47.6254 C.3       12 UNK        -0.1800 
     72 C          -3.8583  -23.5903  -47.8739 C.2       12 UNK         0.5000 
     73 O          -4.5118  -24.3693  -48.5664 O.2       12 UNK        -0.5000 
     74 N          -3.3102  -23.9150  -46.6949 N.am      13 UNK        -0.5000 
     75 CA         -3.3820  -25.2435  -46.0865 C.3       13 UNK         0.1400 
     76 CB         -2.7782  -25.1990  -44.6749 C.3       13 UNK        -0.1800 
     77 C          -2.7031  -26.3273  -46.9429 C.2       13 UNK         0.5000 
     78 O          -3.2685  -27.4096  -47.1054 O.2       13 UNK        -0.5000 
     79 N          -1.5285  -26.0029  -47.5031 N.am      14 UNK        -0.5000 
     80 CA         -0.7924  -26.8517  -48.4403 C.3       14 UNK         0.1400 
     81 CB          0.5944  -26.2462  -48.7048 C.3       14 UNK        -0.1800 
     82 C          -1.5571  -27.0723  -49.7586 C.2       14 UNK         0.5000 
     83 O          -1.6606  -28.2090  -50.2213 O.2       14 UNK        -0.5000 
     84 N          -2.1238  -25.9946  -50.3152 N.am      15 UNK        -0.5000 
     85 CA         -2.9352  -25.9864  -51.5325 C.3       15 UNK         0.1400 
     86 CB         -2.8374  -24.5974  -52.1848 C.3       15 UNK        -0.1800 
     87 C          -4.3975  -26.4068  -51.2749 C.2       15 UNK         0.5000 
     88 O          -5.3176  -25.7208  -51.7207 O.2       15 UNK        -0.5000 
     89 N          -4.5829  -27.5309  -50.5681 N.am      16 UNK        -0.5000 
     90 CA         -5.8430  -28.2464  -50.3333 C.3       16 UNK         0.1400 
     91 CB         -6.2445  -29.0129  -51.6101 C.3       16 UNK        -0.1800 
     92 C          -6.9889  -27.3716  -49.7759 C.2       16 UNK         0.5000 
     93 O          -8.1301  -27.4939  -50.2246 O.2       16 UNK        -0.5000 
     94 N          -6.6538  -26.5099  -48.8052 N.am      17 UNK        -0.5000 
     95 CA         -7.5280  -25.5301  -48.1520 C.3       17 UNK         0.1400 
     96 CB         -8.6776  -26.2180  -47.3848 C.3       17 UNK        -0.1800 
     97 C          -8.0040  -24.4386  -49.1332 C.2       17 UNK         0.5000 
     98 O          -9.2066  -24.2414  -49.3178 O.2       17 UNK        -0.5000 
     99 N          -7.0231  -23.7451  -49.7269 N.am      18 UNK        -0.5000 
    100 CA        -7.1528  -22.6072  -50.6425 C.3       18 UNK         0.1400 
    101 CB        -7.8033  -21.4006  -49.9313 C.3       18 UNK        -0.1800 
    102 C         -7.8539  -22.9654  -51.9684 C.2       18 UNK         0.5000 
    103 O         -8.6931  -22.2023  -52.4532 O.2       18 UNK        -0.5000 
    104 N         -7.4873  -24.1122  -52.5543 N.am      19 UNK        -0.5000 
    105 CA        -7.9535  -24.5677  -53.8629 C.3       19 UNK         0.1400 
    106 CB        -7.7305  -26.0855  -53.9795 C.3       19 UNK        -0.1800 
    107 C         -7.2488  -23.7775  -54.9835 C.2       19 UNK         0.5000 
    108 O         -6.2681  -24.2555  -55.5567 O.2       19 UNK        -0.5000 
    109 N         -7.7519  -22.5607  -55.2365 N.am      20 UNK        -0.5000 
    110 CA        -7.2351  -21.5573  -56.1743 C.3       20 UNK         0.1400 
    111 CB        -7.3234  -22.0579  -57.6320 C.3       20 UNK        -0.1800 
    112 C         -5.8288  -21.0565  -55.7804 C.2       20 UNK         0.5000 
    113 O         -4.9412  -20.9517  -56.6294 O.2       20 UNK        -0.5000 
    114 N         -5.6583  -20.7533  -54.4888 N.am      21 UNK        -0.5000 
    115 CA        -4.4393  -20.2139  -53.8957 C.3       21 UNK         0.1400 
    116 CB        -3.5924  -21.3665  -53.3346 C.3       21 UNK        -0.1800 
    117 C         -4.8284  -19.2369  -52.7797 C.2       21 UNK         0.5000 
    118 O         -5.8750  -19.4189  -52.1531 O.2       21 UNK        -0.5000 
    119 N         -3.9788  -18.2314  -52.5454 N.am      22 UNK        -0.5000 
    120 CA        -4.1589  -17.2168  -51.4936 C.3       22 UNK         0.1400 
    121 C         -3.8292  -17.7024  -50.0529 C.2       22 UNK         0.5000 
    122 N         -3.0658  -18.7730  -49.8723 N.am      22 UNK        -0.7600 
    123 O         -4.2629  -17.0841  -49.0858 O.2       22 UNK        -0.5000 
    124 C124       -3.4118  -15.8967  -51.8302 C.3       23 UNK        -0.0398 
    125 S125       -1.6291  -16.1086  -52.1835 S.3       23 UNK        -0.2404 
    126 C126       -0.9020  -15.7296  -50.5559 C.3       23 UNK        -0.0205 
    127 H127        6.5743  -15.4345  -43.6937 H         1 UNK         0.0600 
    128 H128        4.9544  -15.6474  -43.0249 H         1 UNK         0.0600 
    129 H129        5.9971  -14.3582  -42.4172 H         1 UNK         0.0600 
    130 H130        6.5065  -14.5006  -45.7286 H         1 UNK         0.3000 
    131 H131        4.2073  -13.1633  -46.7561 H         1 UNK         0.0600 
    132 H132        5.7319  -12.7650  -48.7985 H         1 UNK         0.0800 
    133 H133        6.9959  -13.5833  -47.9216 H         1 UNK         0.0800 
    134 H134        4.4158  -14.2285  -50.6390 H         1 UNK         0.0800 
    135 H135        3.4597  -13.6593  -49.2898 H         1 UNK         0.0800 
    136 H136        1.2653  -14.1895  -49.9458 H         1 UNK         0.1150 
    137 H137        0.1620  -18.2001  -50.9571 H         1 UNK         0.1150 
    138 H138        4.2706  -17.2384  -50.2157 H         1 UNK         0.1150 
    139 H139        2.0669  -19.7030  -51.7394 H         1 UNK         0.0800 
    140 H140        3.6910  -19.3632  -51.2115 H         1 UNK         0.0800 
    141 H141        0.3147  -20.8213  -50.4863 H         1 UNK         0.0800 
    142 H142        0.1322  -19.7765  -49.0925 H         1 UNK         0.0800 
    143 H143        0.8889  -22.7266  -48.8569 H         1 UNK         0.0600 
    144 H144        0.6531  -20.7000  -46.8915 H         1 UNK         0.3000 
    145 H145        0.0510  -22.8963  -44.0988 H         1 UNK         0.0600 
    146 H146        1.9798  -21.5500  -43.3137 H         1 UNK         0.0600 
    147 H147        2.5003  -22.7284  -44.5094 H         1 UNK         0.0600 
    148 H148        2.3294  -21.0381  -44.9627 H         1 UNK         0.0600 
    149 H149        0.1244  -20.0566  -44.2487 H         1 UNK         0.3000 
    150 H150       -3.4053  -19.5682  -44.7699 H         1 UNK         0.0600 
    151 H151       -3.0278  -19.9534  -42.3262 H         1 UNK         0.0600 
    152 H152       -3.0610  -18.2395  -42.7142 H         1 UNK         0.0600 
    153 H153       -1.5233  -19.0429  -42.4089 H         1 UNK         0.0600 
    154 H154       -1.3109  -17.6841  -44.4752 H         1 UNK         0.3000 
    155 H155       -0.4047  -17.4280  -47.9374 H         1 UNK         0.0600 
    156 H156       -1.7017  -15.5156  -45.9193 H         1 UNK         0.0600 
    157 H157       -2.3657  -15.9270  -47.4905 H         1 UNK         0.0600 
    158 H158       -0.8420  -15.0596  -47.3885 H         1 UNK         0.0600 
    159 H159        0.6692  -16.1909  -45.6138 H         1 UNK         0.3000 
    160 H160        3.1553  -18.6449  -44.8776 H         1 UNK         0.0600 
    161 H161        4.6669  -16.7806  -45.3269 H         1 UNK         0.0600 
    162 H162        3.3838  -15.8556  -46.1177 H         1 UNK         0.0600 
    163 H163        3.9982  -17.3321  -46.8492 H         1 UNK         0.0600 
    164 H164        2.5563  -16.0366  -43.8168 H         1 UNK         0.3000 
    165 H165        0.3693  -17.1986  -41.2276 H         1 UNK         0.0600 
    166 H166        2.0280  -15.9393  -39.9055 H         1 UNK         0.0600 
    167 H167        2.7457  -17.4422  -40.4613 H         1 UNK         0.0600 
    168 H168        3.1608  -15.9281  -41.2560 H         1 UNK         0.0600 
    169 H169        1.1577  -14.5750  -41.8507 H         1 UNK         0.3000 
    170 H170       -1.7690  -13.8026  -43.8295 H         1 UNK         0.0600 
    171 H171       -1.8621  -13.4147  -41.3593 H         1 UNK         0.0600 
    172 H172       -0.2072  -12.8125  -41.3787 H         1 UNK         0.0600 
    173 H173       -1.4733  -11.9431  -42.2365 H         1 UNK         0.0600 
    174 H174        1.1473  -13.1362  -43.6331 H         1 UNK         0.3000 
    175 H175        1.8924  -12.8109  -46.2798 H         1 UNK         0.0600 
    176 H176        0.4539  -10.1424  -46.7004 H         1 UNK         0.0600 
    177 H177        1.9943  -10.5916  -47.4319 H         1 UNK         0.0600 
    178 H178        0.5360  -11.4840  -47.8329 H         1 UNK         0.0600 
    179 H179        3.0698  -11.8999  -44.6586 H         1 UNK         0.3000 
    180 H180        2.9577   -8.9096  -42.7680 H         1 UNK         0.0600 
    181 H181        2.9729  -11.8640  -41.9392 H         1 UNK         0.0600 
    182 H182        1.8764  -10.6318  -41.3268 H         1 UNK         0.0600 
    183 H183        3.5966  -10.5178  -40.9885 H         1 UNK         0.0600 
    184 H184        4.7285  -11.1705  -43.5256 H         1 UNK         0.3000 
    185 H185        6.6733   -9.1633  -45.7212 H         1 UNK         0.0600 
    186 H186        7.7386   -8.7536  -43.4994 H         1 UNK         0.0600 
    187 H187        7.4323  -10.4206  -43.0270 H         1 UNK         0.0600 
    188 H188        8.5398  -10.0631  -44.3527 H         1 UNK         0.0600 
    189 H189        6.7594  -11.9188  -44.8667 H         1 UNK         0.3000 
    190 H190       -2.0154  -20.9738  -47.6539 H         1 UNK         0.3000 
    191 H191       -3.8951  -22.1339  -49.4356 H         1 UNK         0.0600 
    192 H192       -4.1897  -21.0183  -46.6014 H         1 UNK         0.0600 
    193 H193       -5.5487  -21.5443  -47.5725 H         1 UNK         0.0600 
    194 H194       -4.5587  -20.2036  -48.1165 H         1 UNK         0.0600 
    195 H195       -2.8211  -23.1980  -46.1659 H         1 UNK         0.3000 
    196 H196       -4.4375  -25.5078  -45.9950 H         1 UNK         0.0600 
    197 H197       -2.8340  -26.1765  -44.1944 H         1 UNK         0.0600 
    198 H198       -3.3141  -24.4930  -44.0403 H         1 UNK         0.0600 
    199 H199       -1.7298  -24.9002  -44.6936 H         1 UNK         0.0600 
    200 H200       -1.1113  -25.1049  -47.2758 H         1 UNK         0.3000 
    201 H201       -0.6522  -27.8266  -47.9690 H         1 UNK         0.0600 
    202 H202        1.1656  -26.1526  -47.7809 H         1 UNK         0.0600 
    203 H203        0.5234  -25.2554  -49.1540 H         1 UNK         0.0600 
    204 H204        1.1723  -26.8746  -49.3834 H         1 UNK         0.0600 
    205 H205       -1.9805  -25.0875  -49.8788 H         1 UNK         0.3000 
    206 H206       -2.5178  -26.7085  -52.2369 H         1 UNK         0.0600 
    207 H207       -1.8015  -24.3251  -52.3869 H         1 UNK         0.0600 
    208 H208       -3.3732  -24.5669  -53.1345 H         1 UNK         0.0600 
    209 H209       -3.2653  -23.8315  -51.5378 H         1 UNK         0.0600 
    210 H210       -3.7470  -27.9940  -50.2295 H         1 UNK         0.3000 
    211 H211       -5.6312  -28.9864  -49.5603 H         1 UNK         0.0600 
    212 H212       -6.4816  -28.3333  -52.4284 H         1 UNK         0.0600 
    213 H213       -7.1209  -29.6384  -51.4367 H         1 UNK         0.0600 
    214 H214       -5.4415  -29.6700  -51.9439 H         1 UNK         0.0600 
    215 H215       -5.6721  -26.4318  -48.5714 H         1 UNK         0.3000 
    216 H216       -6.9118  -25.0234  -47.4078 H         1 UNK         0.0600 
    217 H217       -9.2426  -25.4896  -46.8021 H         1 UNK         0.0600 
    218 H218       -8.2953  -26.9642  -46.6884 H         1 UNK         0.0600 
    219 H219       -9.3823  -26.7126  -48.0535 H         1 UNK         0.0600 
    220 H220       -6.0700  -24.0318  -49.5133 H         1 UNK         0.3000 
    221 H221       -6.1357  -22.3172  -50.9099 H         1 UNK         0.0600 
    222 H222       -8.8451  -21.5931  -49.6741 H         1 UNK         0.0600 
    223 H223       -7.2755  -21.1429  -49.0154 H         1 UNK         0.0600 
    224 H224       -7.7866  -20.5161  -50.5686 H         1 UNK         0.0600 
    225 H225       -6.7555  -24.6769  -52.1242 H         1 UNK         0.3000 
    226 H226       -9.0279  -24.3877  -53.9393 H         1 UNK         0.0600 
    227 H227       -8.1185  -26.4636  -54.9258 H         1 UNK         0.0600 
    228 H228       -6.6728  -26.3457  -53.9324 H         1 UNK         0.0600 
    229 H229       -8.2418  -26.6203  -53.1787 H         1 UNK         0.0600 
    230 H230       -8.5085  -22.2488  -54.6383 H         1 UNK         0.3000 
    231 H231       -7.8962  -20.6938  -56.0889 H         1 UNK         0.0600 
    232 H232       -8.3331  -22.3888  -57.8746 H         1 UNK         0.0600 
    233 H233       -6.6433  -22.8888  -57.8209 H         1 UNK         0.0600 
    234 H234       -7.0666  -21.2624  -58.3324 H         1 UNK         0.0600 
    235 H235       -6.4451  -20.8061  -53.8545 H         1 UNK         0.3000 
    236 H236       -3.8653  -19.6700  -54.6491 H         1 UNK         0.0600 
    237 H237       -3.3173  -22.0725  -54.1183 H         1 UNK         0.0600 
    238 H238       -2.6683  -20.9986  -52.8875 H         1 UNK         0.0600 
    239 H239       -4.1367  -21.9150  -52.5657 H         1 UNK         0.0600 
    240 H240       -3.1330  -18.1484  -53.0912 H         1 UNK         0.3000 
    241 H241       -5.2218  -16.9676  -51.4709 H         1 UNK         0.0600 
    242 H242       -2.8270  -19.0387  -48.9223 H         1 UNK         0.3800 
    243 H243       -2.7102  -19.2909  -50.6567 H         1 UNK         0.3800 
    244 H244       -3.8647  -15.4521  -52.7172 H         1 UNK         0.0800 
    245 H245       -3.5468  -15.1568  -51.0389 H         1 UNK         0.0800 
    246 H246       -1.0166  -14.6633  -50.3556 H         1 UNK         0.0800 
    247 H247       -1.4545  -16.2516  -49.7779 H         1 UNK         0.0800 
@<TRIPOS>BOND
     1    1    2 1    
     2    1  127 1    
     3    1  128 1    
     4    1  129 1    
     5    2    3 2    
     6    2    4 am   BACKBONE|DICT|INTERRES
     7    4    5 1    
     8    4  130 1    
     9    5    6 1    
    10    5   65 1    
    11    5  131 1    
    12    6    7 1    
    13    6  132 1    
    14    6  133 1    
    15    7    8 1    
    16    8    9 1    
    17    8  134 1    
    18    8  135 1    
    19    9   10 ar   
    20    9   14 ar   
    21   10   11 ar   
    22   10  136 1    
    23   11   12 ar   
    24   11  126 1    
    25   12   13 ar   
    26   12  137 1    
    27   13   14 ar   
    28   13   15 1    
    29   14  138 1    
    30   15   16 1    
    31   15  139 1    
    32   15  140 1    
    33   16   17 1    
    34   17   18 1    
    35   17  141 1    
    36   17  142 1    
    37   18   19 1    
    38   18   67 1    
    39   18  143 1    
    40   19   20 am   BACKBONE|DICT|INTERRES
    41   19  144 1    
    42   20   21 2    
    43   20   22 1    
    44   22   23 1    
    45   22   24 1    
    46   22  145 1    
    47   23  146 1    
    48   23  147 1    
    49   23  148 1    
    50   24   25 am   BACKBONE|DICT|INTERRES
    51   24  149 1    
    52   25   26 2    
    53   25   27 1    
    54   27   28 1    
    55   27   29 1    
    56   27  150 1    
    57   28  151 1    
    58   28  152 1    
    59   28  153 1    
    60   29   30 am   BACKBONE|DICT|INTERRES
    61   29  154 1    
    62   30   31 2    
    63   30   32 1    
    64   32   33 1    
    65   32   34 1    
    66   32  155 1    
    67   33  156 1    
    68   33  157 1    
    69   33  158 1    
    70   34   35 am   BACKBONE|DICT|INTERRES
    71   34  159 1    
    72   35   36 2    
    73   35   37 1    
    74   37   38 1    
    75   37   39 1    
    76   37  160 1    
    77   38  161 1    
    78   38  162 1    
    79   38  163 1    
    80   39   40 am   BACKBONE|DICT|INTERRES
    81   39  164 1    
    82   40   41 2    
    83   40   42 1    
    84   42   43 1    
    85   42   44 1    
    86   42  165 1    
    87   43  166 1    
    88   43  167 1    
    89   43  168 1    
    90   44   45 am   BACKBONE|DICT|INTERRES
    91   44  169 1    
    92   45   46 2    
    93   45   47 1    
    94   47   48 1    
    95   47   49 1    
    96   47  170 1    
    97   48  171 1    
    98   48  172 1    
    99   48  173 1    
   100   49   50 am   BACKBONE|DICT|INTERRES
   101   49  174 1    
   102   50   51 2    
   103   50   52 1    
   104   52   53 1    
   105   52   54 1    
   106   52  175 1    
   107   53  176 1    
   108   53  177 1    
   109   53  178 1    
   110   54   55 am   BACKBONE|DICT|INTERRES
   111   54  179 1    
   112   55   56 2    
   113   55   57 1    
   114   57   58 1    
   115   57   59 1    
   116   57  180 1    
   117   58  181 1    
   118   58  182 1    
   119   58  183 1    
   120   59   60 am   BACKBONE|DICT|INTERRES
   121   59  184 1    
   122   60   61 2    
   123   60   62 1    
   124   62   63 1    
   125   62   64 1    
   126   62  185 1    
   127   63  186 1    
   128   63  187 1    
   129   63  188 1    
   130   64   65 am   BACKBONE|DICT|INTERRES
   131   64  189 1    
   132   65   66 2    
   133   67   68 2    
   134   67   69 am   BACKBONE|DICT|INTERRES
   135   69   70 1    
   136   69  190 1    
   137   70   71 1    
   138   70   72 1    
   139   70  191 1    
   140   71  192 1    
   141   71  193 1    
   142   71  194 1    
   143   72   73 2    
   144   72   74 am   BACKBONE|DICT|INTERRES
   145   74   75 1    
   146   74  195 1    
   147   75   76 1    
   148   75   77 1    
   149   75  196 1    
   150   76  197 1    
   151   76  198 1    
   152   76  199 1    
   153   77   78 2    
   154   77   79 am   BACKBONE|DICT|INTERRES
   155   79   80 1    
   156   79  200 1    
   157   80   81 1    
   158   80   82 1    
   159   80  201 1    
   160   81  202 1    
   161   81  203 1    
   162   81  204 1    
   163   82   83 2    
   164   82   84 am   BACKBONE|DICT|INTERRES
   165   84   85 1    
   166   84  205 1    
   167   85   86 1    
   168   85   87 1    
   169   85  206 1    
   170   86  207 1    
   171   86  208 1    
   172   86  209 1    
   173   87   88 2    
   174   87   89 am   BACKBONE|DICT|INTERRES
   175   89   90 1    
   176   89  210 1    
   177   90   91 1    
   178   90   92 1    
   179   90  211 1    
   180   91  212 1    
   181   91  213 1    
   182   91  214 1    
   183   92   93 2    
   184   92   94 am   BACKBONE|DICT|INTERRES
   185   94   95 1    
   186   94  215 1    
   187   95   96 1    
   188   95   97 1    
   189   95  216 1    
   190   96  217 1    
   191   96  218 1    
   192   96  219 1    
   193   97   98 2    
   194   97   99 am   BACKBONE|DICT|INTERRES
   195   99  100 1    
   196   99  220 1    
   197  100  101 1    
   198  100  102 1    
   199  100  221 1    
   200  101  222 1    
   201  101  223 1    
   202  101  224 1    
   203  102  103 2    
   204  102  104 am   BACKBONE|DICT|INTERRES
   205  104  105 1    
   206  104  225 1    
   207  105  106 1    
   208  105  107 1    
   209  105  226 1    
   210  106  227 1    
   211  106  228 1    
   212  106  229 1    
   213  107  108 2    
   214  107  109 am   BACKBONE|DICT|INTERRES
   215  109  110 1    
   216  109  230 1    
   217  110  111 1    
   218  110  112 1    
   219  110  231 1    
   220  111  232 1    
   221  111  233 1    
   222  111  234 1    
   223  112  113 2    
   224  112  114 am   BACKBONE|DICT|INTERRES
   225  114  115 1    
   226  114  235 1    
   227  115  116 1    
   228  115  117 1    
   229  115  236 1    
   230  116  237 1    
   231  116  238 1    
   232  116  239 1    
   233  117  118 2    
   234  117  119 am   BACKBONE|DICT|INTERRES
   235  119  120 1    
   236  119  240 1    
   237  120  121 1    
   238  120  124 1    
   239  120  241 1    
   240  121  122 am   BACKBONE|DICT|INTERRES
   241  121  123 2    
   242  122  242 1    
   243  122  243 1    
   244  124  125 1    
   245  124  244 1    
   246  124  245 1    
   247  125  126 1    
   248  126  246 1    
   249  126  247 1    
@<TRIPOS>SUBSTRUCTURE
     1 UNK         1 GROUP             0       ****    0 ROOT    
