@<TRIPOS>MOLECULE
3R540
247   249    1
SMALL
USER_CHARGES


@<TRIPOS>ATOM
      1 CA         -2.1005  -11.4018  -43.2096 C.3       0 UNK        -0.1800 
      2 C          -0.6642  -11.8562  -43.4193 C.2       0 UNK         0.5000 
      3 O           0.2466  -11.3328  -42.7773 O.2       0 UNK        -0.5000 
      4 N          -0.4534  -12.8461  -44.2970 N.am      1 UNK        -0.5000 
      5 CA          0.8696  -13.3792  -44.6567 C.3       1 UNK         0.1400 
      6 C6          0.8180  -14.3587  -45.8553 C.3       23 UNK        -0.0398 
      7 S7         -0.0119  -13.6389  -47.3178 S.3       23 UNK        -0.2404 
      8 C8         -1.5098  -14.6727  -47.4664 C.3       23 UNK        -0.0205 
      9 C9         -1.4208  -15.6738  -48.6123 C.ar      23 UNK        -0.0193 
     10 C10        -2.3932  -15.6781  -49.6168 C.ar      23 UNK        -0.1150 
     11 C11        -2.3195  -16.5861  -50.6777 C.ar      23 UNK        -0.0193 
     12 C12        -1.2625  -17.4985  -50.7302 C.ar      23 UNK        -0.1150 
     13 C13        -0.2891  -17.5121  -49.7275 C.ar      23 UNK        -0.0193 
     14 C14        -0.3778  -16.6020  -48.6713 C.ar      23 UNK        -0.1150 
     15 C15         0.8760  -18.4867  -49.7962 C.3       23 UNK        -0.0205 
     16 S16         0.7013  -19.8550  -48.6096 S.3       23 UNK        -0.2404 
     17 C17        -0.6737  -20.8073  -49.3322 C.3       23 UNK        -0.0398 
     18 CA         -1.8337  -21.0030  -48.3324 C.3       11 UNK         0.1400 
     19 N          -2.4005  -19.7349  -47.8482 N.am      11 UNK        -0.5000 
     20 C          -3.3043  -19.6366  -46.8647 C.2       10 UNK         0.5000 
     21 O          -3.8082  -20.6164  -46.3087 O.2       10 UNK        -0.5000 
     22 CA         -3.7614  -18.2220  -46.4783 C.3       10 UNK         0.1400 
     23 CB         -4.7930  -17.7094  -47.4945 C.3       10 UNK        -0.1800 
     24 N          -4.3973  -18.2729  -45.1598 N.am      10 UNK        -0.5000 
     25 C          -3.9344  -17.8571  -43.9738 C.2       9 UNK         0.5000 
     26 O          -4.5297  -18.1423  -42.9350 O.2       9 UNK        -0.5000 
     27 CA         -2.6321  -17.0382  -43.8756 C.3       9 UNK         0.1400 
     28 CB         -2.6814  -16.0357  -42.7084 C.3       9 UNK        -0.1800 
     29 N          -1.5089  -17.9518  -43.6690 N.am      9 UNK        -0.5000 
     30 C          -0.5567  -18.2067  -44.5721 C.2       8 UNK         0.5000 
     31 O          -0.5201  -17.6858  -45.6859 O.2       8 UNK        -0.5000 
     32 CA          0.5152  -19.2434  -44.1870 C.3       8 UNK         0.1400 
     33 CB          0.0486  -20.6561  -44.5711 C.3       8 UNK        -0.1800 
     34 N           1.7836  -18.9643  -44.8648 N.am      8 UNK        -0.5000 
     35 C           2.5954  -17.9474  -44.5498 C.2       7 UNK         0.5000 
     36 O           2.4331  -17.2380  -43.5565 O.2       7 UNK        -0.5000 
     37 CA          3.7747  -17.6677  -45.4988 C.3       7 UNK         0.1400 
     38 CB          3.3193  -17.6190  -46.9730 C.3       7 UNK        -0.1800 
     39 N           4.4018  -16.4011  -45.1212 N.am      7 UNK        -0.5000 
     40 C           5.5683  -15.9339  -45.5840 C.2       6 UNK         0.5000 
     41 O           6.3052  -16.5631  -46.3443 O.2       6 UNK        -0.5000 
     42 CA          5.9837  -14.5239  -45.1358 C.3       6 UNK         0.1400 
     43 CB          5.3359  -13.4643  -46.0420 C.3       6 UNK        -0.1800 
     44 N           5.5986  -14.2526  -43.7554 N.am      6 UNK        -0.5000 
     45 C           6.3757  -14.4442  -42.6837 C.2       5 UNK         0.5000 
     46 O           7.5130  -14.9160  -42.7401 O.2       5 UNK        -0.5000 
     47 CA          5.7717  -14.0211  -41.3270 C.3       5 UNK         0.1400 
     48 CB          6.8320  -13.8104  -40.2267 C.3       5 UNK        -0.1800 
     49 N           4.8916  -12.8518  -41.4381 N.am      5 UNK        -0.5000 
     50 C           5.2064  -11.6088  -41.8365 C.2       4 UNK         0.5000 
     51 O           6.3480  -11.2432  -42.1182 O.2       4 UNK        -0.5000 
     52 CA          4.0419  -10.6018  -41.9643 C.3       4 UNK         0.1400 
     53 CB          3.7005  -10.3703  -43.4449 C.3       4 UNK        -0.1800 
     54 N           2.8274  -11.0314  -41.2677 N.am      4 UNK        -0.5000 
     55 C           2.6685  -11.0486  -39.9366 C.2       3 UNK         0.5000 
     56 O           3.4872  -10.5875  -39.1410 O.2       3 UNK        -0.5000 
     57 CA          1.4079  -11.7592  -39.4115 C.3       3 UNK         0.1400 
     58 CB          0.2129  -10.7956  -39.3478 C.3       3 UNK        -0.1800 
     59 N           1.0667  -12.9214  -40.2370 N.am      3 UNK        -0.5000 
     60 C           1.7451  -14.0786  -40.2235 C.2       2 UNK         0.5000 
     61 O           2.6840  -14.3070  -39.4617 O.2       2 UNK        -0.5000 
     62 CA          1.3434  -15.1459  -41.2554 C.3       2 UNK         0.1400 
     63 CB          0.2921  -16.0987  -40.6688 C.3       2 UNK        -0.1800 
     64 N           0.8343  -14.5644  -42.4982 N.am      2 UNK        -0.5000 
     65 C           1.5989  -14.0257  -43.4589 C.2       1 UNK         0.5000 
     66 O           2.8283  -13.9930  -43.4155 O.2       1 UNK        -0.5000 
     67 C          -2.8825  -21.9804  -48.9045 C.2       11 UNK         0.5000 
     68 O          -2.6383  -23.1855  -48.8927 O.2       11 UNK        -0.5000 
     69 N          -4.0539  -21.4737  -49.3164 N.am      12 UNK        -0.5000 
     70 CA         -5.2163  -22.2751  -49.7067 C.3       12 UNK         0.1400 
     71 CB         -6.3461  -21.3378  -50.1570 C.3       12 UNK        -0.1800 
     72 C          -5.7320  -23.2191  -48.5997 C.2       12 UNK         0.5000 
     73 O          -6.2814  -24.2746  -48.9137 O.2       12 UNK        -0.5000 
     74 N          -5.5376  -22.8356  -47.3295 N.am      13 UNK        -0.5000 
     75 CA         -5.8546  -23.6648  -46.1672 C.3       13 UNK         0.1400 
     76 CB         -6.1423  -22.7506  -44.9658 C.3       13 UNK        -0.1800 
     77 C          -4.7244  -24.6570  -45.8303 C.2       13 UNK         0.5000 
     78 O          -4.9792  -25.6415  -45.1355 O.2       13 UNK        -0.5000 
     79 N          -3.5016  -24.3829  -46.3062 N.am      14 UNK        -0.5000 
     80 CA         -2.3162  -25.2023  -46.0666 C.3       14 UNK         0.1400 
     81 CB         -1.0578  -24.3197  -46.1129 C.3       14 UNK        -0.1800 
     82 C          -2.2065  -26.3672  -47.0645 C.2       14 UNK         0.5000 
     83 O          -1.8106  -27.4610  -46.6584 O.2       14 UNK        -0.5000 
     84 N          -2.5566  -26.1323  -48.3372 N.am      15 UNK        -0.5000 
     85 CA         -2.4923  -27.1357  -49.3962 C.3       15 UNK         0.1400 
     86 CB         -1.0675  -27.1890  -49.9773 C.3       15 UNK        -0.1800 
     87 C          -3.5052  -26.8289  -50.5049 C.2       15 UNK         0.5000 
     88 O          -3.6520  -25.6726  -50.9058 O.2       15 UNK        -0.5000 
     89 N          -4.1210  -27.8878  -51.0475 N.am      16 UNK        -0.5000 
     90 CA         -5.0177  -27.8281  -52.2061 C.3       16 UNK         0.1400 
     91 CB         -5.7304  -29.1789  -52.3660 C.3       16 UNK        -0.1800 
     92 C          -4.2881  -27.4445  -53.5091 C.2       16 UNK         0.5000 
     93 O          -4.8884  -26.8212  -54.3840 O.2       16 UNK        -0.5000 
     94 N          -2.9943  -27.7863  -53.5976 N.am      17 UNK        -0.5000 
     95 CA         -2.1016  -27.3907  -54.6880 C.3       17 UNK         0.1400 
     96 CB         -0.7826  -28.1686  -54.5687 C.3       17 UNK        -0.1800 
     97 C          -1.8354  -25.8738  -54.7109 C.2       17 UNK         0.5000 
     98 O          -1.7079  -25.2964  -55.7900 O.2       17 UNK        -0.5000 
     99 N          -1.7882  -25.2512  -53.5245 N.am      18 UNK        -0.5000 
    100 CA        -1.6743  -23.8032  -53.3665 C.3       18 UNK         0.1400 
    101 CB        -1.0997  -23.4752  -51.9845 C.3       18 UNK        -0.1800 
    102 C         -3.0231  -23.0997  -53.5880 C.2       18 UNK         0.5000 
    103 O         -3.0414  -22.0127  -54.1629 O.2       18 UNK        -0.5000 
    104 N         -4.1309  -23.7445  -53.1897 N.am      19 UNK        -0.5000 
    105 CA        -5.5069  -23.2756  -53.4047 C.3       19 UNK         0.1400 
    106 CB        -6.4908  -24.2174  -52.6920 C.3       19 UNK        -0.1800 
    107 C         -5.8990  -23.1366  -54.8900 C.2       19 UNK         0.5000 
    108 O         -6.8099  -22.3724  -55.2052 O.2       19 UNK        -0.5000 
    109 N         -5.2023  -23.8581  -55.7791 N.am      20 UNK        -0.5000 
    110 CA        -5.3388  -23.7405  -57.2312 C.3       20 UNK         0.1400 
    111 CB        -4.6011  -24.9087  -57.9019 C.3       20 UNK        -0.1800 
    112 C         -4.8305  -22.3892  -57.7768 C.2       20 UNK         0.5000 
    113 O         -5.3384  -21.9256  -58.7985 O.2       20 UNK        -0.5000 
    114 N         -3.8532  -21.7818  -57.0889 N.am      21 UNK        -0.5000 
    115 CA        -3.3306  -20.4483  -57.3841 C.3       21 UNK         0.1400 
    116 CB        -1.8100  -20.4355  -57.1578 C.3       21 UNK        -0.1800 
    117 C         -4.0261  -19.3941  -56.5075 C.2       21 UNK         0.5000 
    118 O         -4.5069  -18.3846  -57.0252 O.2       21 UNK        -0.5000 
    119 N         -4.0863  -19.6594  -55.1971 N.am      22 UNK        -0.5000 
    120 CA        -4.7647  -18.8520  -54.1775 C.3       22 UNK         0.1400 
    121 C         -6.3098  -19.0448  -54.2264 C.2       22 UNK         0.5000 
    122 N         -6.9601  -18.5983  -55.2926 N.am      22 UNK        -0.7600 
    123 O         -6.9231  -19.5983  -53.3185 O.2       22 UNK        -0.5000 
    124 C124       -4.1236  -19.0951  -52.7834 C.3       23 UNK        -0.0398 
    125 S125       -4.6242  -17.8575  -51.5364 S.3       23 UNK        -0.2404 
    126 C126       -3.3702  -16.5609  -51.7761 C.3       23 UNK        -0.0205 
    127 H127       -2.3807  -11.5181  -42.1627 H         1 UNK         0.0600 
    128 H128       -2.8006  -11.9768  -43.8161 H         1 UNK         0.0600 
    129 H129       -2.2019  -10.3499  -43.4759 H         1 UNK         0.0600 
    130 H130       -1.2325  -13.2184  -44.8196 H         1 UNK         0.3000 
    131 H131        1.4770  -12.5249  -44.9628 H         1 UNK         0.0600 
    132 H132        1.8298  -14.6359  -46.1564 H         1 UNK         0.0800 
    133 H133        0.3302  -15.2885  -45.5666 H         1 UNK         0.0800 
    134 H134       -1.7062  -15.2078  -46.5393 H         1 UNK         0.0800 
    135 H135       -2.3613  -14.0067  -47.6135 H         1 UNK         0.0800 
    136 H136       -3.2083  -14.9691  -49.5779 H         1 UNK         0.1150 
    137 H137       -1.1948  -18.1920  -51.5560 H         1 UNK         0.1150 
    138 H138        0.3725  -16.6108  -47.8949 H         1 UNK         0.1150 
    139 H139        0.9886  -18.8904  -50.8036 H         1 UNK         0.0800 
    140 H140        1.8013  -17.9508  -49.5814 H         1 UNK         0.0800 
    141 H141       -0.2631  -21.7740  -49.6290 H         1 UNK         0.0800 
    142 H142       -1.0291  -20.3320  -50.2469 H         1 UNK         0.0800 
    143 H143       -1.4203  -21.5043  -47.4556 H         1 UNK         0.0600 
    144 H144       -2.0065  -18.8933  -48.2473 H         1 UNK         0.3000 
    145 H145       -2.9020  -17.5587  -46.5121 H         1 UNK         0.0600 
    146 H146       -5.1383  -16.7090  -47.2330 H         1 UNK         0.0600 
    147 H147       -4.3620  -17.6486  -48.4940 H         1 UNK         0.0600 
    148 H148       -5.6661  -18.3609  -47.5527 H         1 UNK         0.0600 
    149 H149       -5.2169  -18.8615  -45.1384 H         1 UNK         0.3000 
    150 H150       -2.5083  -16.4358  -44.7727 H         1 UNK         0.0600 
    151 H151       -2.7141  -16.5355  -41.7395 H         1 UNK         0.0600 
    152 H152       -3.5625  -15.3966  -42.7790 H         1 UNK         0.0600 
    153 H153       -1.8119  -15.3821  -42.7202 H         1 UNK         0.0600 
    154 H154       -1.5148  -18.4640  -42.7982 H         1 UNK         0.3000 
    155 H155        0.6741  -19.2040  -43.1072 H         1 UNK         0.0600 
    156 H156       -0.0926  -20.7502  -45.6477 H         1 UNK         0.0600 
    157 H157       -0.9009  -20.9027  -44.0938 H         1 UNK         0.0600 
    158 H158        0.7733  -21.4094  -44.2619 H         1 UNK         0.0600 
    159 H159        1.9468  -19.4689  -45.7235 H         1 UNK         0.3000 
    160 H160        4.5037  -18.4696  -45.3685 H         1 UNK         0.0600 
    161 H161        2.5287  -16.8843  -47.1222 H         1 UNK         0.0600 
    162 H162        2.9429  -18.5872  -47.2979 H         1 UNK         0.0600 
    163 H163        4.1362  -17.3673  -47.6483 H         1 UNK         0.0600 
    164 H164        3.8787  -15.8651  -44.4374 H         1 UNK         0.3000 
    165 H165        7.0677  -14.4407  -45.2397 H         1 UNK         0.0600 
    166 H166        5.6087  -13.6228  -47.0861 H         1 UNK         0.0600 
    167 H167        4.2472  -13.4887  -45.9785 H         1 UNK         0.0600 
    168 H168        5.6630  -12.4609  -45.7684 H         1 UNK         0.0600 
    169 H169        4.6453  -13.9298  -43.6048 H         1 UNK         0.3000 
    170 H170        5.1336  -14.8484  -41.0131 H         1 UNK         0.0600 
    171 H171        7.3908  -14.7284  -40.0416 H         1 UNK         0.0600 
    172 H172        7.5526  -13.0389  -40.4991 H         1 UNK         0.0600 
    173 H173        6.3675  -13.5191  -39.2846 H         1 UNK         0.0600 
    174 H174        3.9159  -13.0349  -41.2542 H         1 UNK         0.3000 
    175 H175        4.3723   -9.6545  -41.5335 H         1 UNK         0.0600 
    176 H176        2.8948   -9.6444  -43.5567 H         1 UNK         0.0600 
    177 H177        4.5636   -9.9857  -43.9898 H         1 UNK         0.0600 
    178 H178        3.3903  -11.2935  -43.9347 H         1 UNK         0.0600 
    179 H179        2.0606  -11.3584  -41.8466 H         1 UNK         0.3000 
    180 H180        1.6161  -12.1042  -38.3963 H         1 UNK         0.0600 
    181 H181       -0.0371  -10.3887  -40.3276 H         1 UNK         0.0600 
    182 H182        0.4305   -9.9522  -38.6913 H         1 UNK         0.0600 
    183 H183       -0.6740  -11.2926  -38.9546 H         1 UNK         0.0600 
    184 H184        0.3468  -12.7835  -40.9316 H         1 UNK         0.3000 
    185 H185        2.2390  -15.7277  -41.4798 H         1 UNK         0.0600 
    186 H186        0.6596  -16.5694  -39.7561 H         1 UNK         0.0600 
    187 H187       -0.6328  -15.5777  -40.4196 H         1 UNK         0.0600 
    188 H188        0.0546  -16.8980  -41.3706 H         1 UNK         0.0600 
    189 H189       -0.1665  -14.5415  -42.6150 H         1 UNK         0.3000 
    190 H190       -4.1821  -20.4732  -49.2859 H         1 UNK         0.3000 
    191 H191       -4.9074  -22.8936  -50.5492 H         1 UNK         0.0600 
    192 H192       -6.0339  -20.6996  -50.9805 H         1 UNK         0.0600 
    193 H193       -7.2111  -21.9058  -50.5019 H         1 UNK         0.0600 
    194 H194       -6.6798  -20.6912  -49.3444 H         1 UNK         0.0600 
    195 H195       -5.0566  -21.9623  -47.1377 H         1 UNK         0.3000 
    196 H196       -6.7570  -24.2449  -46.3717 H         1 UNK         0.0600 
    197 H197       -6.4491  -23.3344  -44.0971 H         1 UNK         0.0600 
    198 H198       -6.9470  -22.0492  -45.1864 H         1 UNK         0.0600 
    199 H199       -5.2632  -22.1736  -44.6769 H         1 UNK         0.0600 
    200 H200       -3.3879  -23.5991  -46.9341 H         1 UNK         0.3000 
    201 H201       -2.3808  -25.6271  -45.0624 H         1 UNK         0.0600 
    202 H202       -0.1768  -24.8900  -45.8161 H         1 UNK         0.0600 
    203 H203       -0.8665  -23.9304  -47.1124 H         1 UNK         0.0600 
    204 H204       -1.1416  -23.4732  -45.4311 H         1 UNK         0.0600 
    205 H205       -2.8532  -25.2028  -48.6234 H         1 UNK         0.3000 
    206 H206       -2.7401  -28.1135  -48.9773 H         1 UNK         0.0600 
    207 H207       -0.3418  -27.4832  -49.2190 H         1 UNK         0.0600 
    208 H208       -0.9978  -27.9148  -50.7883 H         1 UNK         0.0600 
    209 H209       -0.7603  -26.2201  -50.3731 H         1 UNK         0.0600 
    210 H210       -3.9437  -28.8067  -50.6673 H         1 UNK         0.3000 
    211 H211       -5.7731  -27.0657  -52.0087 H         1 UNK         0.0600 
    212 H212       -5.0235  -29.9898  -52.5462 H         1 UNK         0.0600 
    213 H213       -6.4251  -29.1560  -53.2068 H         1 UNK         0.0600 
    214 H214       -6.3085  -29.4277  -51.4758 H         1 UNK         0.0600 
    215 H215       -2.5859  -28.3190  -52.8445 H         1 UNK         0.3000 
    216 H216       -2.5768  -27.6604  -55.6337 H         1 UNK         0.0600 
    217 H217       -0.1024  -27.9093  -55.3811 H         1 UNK         0.0600 
    218 H218       -0.9529  -29.2442  -54.6203 H         1 UNK         0.0600 
    219 H219       -0.2701  -27.9537  -53.6301 H         1 UNK         0.0600 
    220 H220       -1.9385  -25.7884  -52.6836 H         1 UNK         0.3000 
    221 H221       -0.9770  -23.4190  -54.1143 H         1 UNK         0.0600 
    222 H222       -1.7193  -23.8808  -51.1870 H         1 UNK         0.0600 
    223 H223       -0.0957  -23.8828  -51.8672 H         1 UNK         0.0600 
    224 H224       -1.0342  -22.3967  -51.8412 H         1 UNK         0.0600 
    225 H225       -4.0223  -24.6047  -52.6648 H         1 UNK         0.3000 
    226 H226       -5.5872  -22.2860  -52.9516 H         1 UNK         0.0600 
    227 H227       -7.4801  -23.7627  -52.6301 H         1 UNK         0.0600 
    228 H228       -6.6040  -25.1596  -53.2272 H         1 UNK         0.0600 
    229 H229       -6.1757  -24.4503  -51.6761 H         1 UNK         0.0600 
    230 H230       -4.5127  -24.5111  -55.4335 H         1 UNK         0.3000 
    231 H231       -6.3994  -23.8211  -57.4782 H         1 UNK         0.0600 
    232 H232       -3.5271  -24.8633  -57.7205 H         1 UNK         0.0600 
    233 H233       -4.7508  -24.8943  -58.9822 H         1 UNK         0.0600 
    234 H234       -4.9637  -25.8693  -57.5350 H         1 UNK         0.0600 
    235 H235       -3.5238  -22.2132  -56.2347 H         1 UNK         0.3000 
    236 H236       -3.5148  -20.1934  -58.4299 H         1 UNK         0.0600 
    237 H237       -1.3102  -21.1442  -57.8183 H         1 UNK         0.0600 
    238 H238       -1.3936  -19.4489  -57.3645 H         1 UNK         0.0600 
    239 H239       -1.5470  -20.6949  -56.1316 H         1 UNK         0.0600 
    240 H240       -3.6778  -20.5292  -54.8598 H         1 UNK         0.3000 
    241 H241       -4.5829  -17.8038  -54.4227 H         1 UNK         0.0600 
    242 H242       -6.4430  -18.2032  -56.0677 H         1 UNK         0.3800 
    243 H243       -7.9583  -18.7198  -55.3560 H         1 UNK         0.3800 
    244 H244       -3.0363  -19.0802  -52.8651 H         1 UNK         0.0800 
    245 H245       -4.3695  -20.0921  -52.4181 H         1 UNK         0.0800 
    246 H246       -3.8741  -15.5933  -51.7888 H         1 UNK         0.0800 
    247 H247       -2.8932  -16.6600  -52.7522 H         1 UNK         0.0800 
@<TRIPOS>BOND
     1    1    2 1    
     2    1  127 1    
     3    1  128 1    
     4    1  129 1    
     5    2    3 2    
     6    2    4 am   BACKBONE|DICT|INTERRES
     7    4    5 1    
     8    4  130 1    
     9    5    6 1    
    10    5   65 1    
    11    5  131 1    
    12    6    7 1    
    13    6  132 1    
    14    6  133 1    
    15    7    8 1    
    16    8    9 1    
    17    8  134 1    
    18    8  135 1    
    19    9   10 ar   
    20    9   14 ar   
    21   10   11 ar   
    22   10  136 1    
    23   11   12 ar   
    24   11  126 1    
    25   12   13 ar   
    26   12  137 1    
    27   13   14 ar   
    28   13   15 1    
    29   14  138 1    
    30   15   16 1    
    31   15  139 1    
    32   15  140 1    
    33   16   17 1    
    34   17   18 1    
    35   17  141 1    
    36   17  142 1    
    37   18   19 1    
    38   18   67 1    
    39   18  143 1    
    40   19   20 am   BACKBONE|DICT|INTERRES
    41   19  144 1    
    42   20   21 2    
    43   20   22 1    
    44   22   23 1    
    45   22   24 1    
    46   22  145 1    
    47   23  146 1    
    48   23  147 1    
    49   23  148 1    
    50   24   25 am   BACKBONE|DICT|INTERRES
    51   24  149 1    
    52   25   26 2    
    53   25   27 1    
    54   27   28 1    
    55   27   29 1    
    56   27  150 1    
    57   28  151 1    
    58   28  152 1    
    59   28  153 1    
    60   29   30 am   BACKBONE|DICT|INTERRES
    61   29  154 1    
    62   30   31 2    
    63   30   32 1    
    64   32   33 1    
    65   32   34 1    
    66   32  155 1    
    67   33  156 1    
    68   33  157 1    
    69   33  158 1    
    70   34   35 am   BACKBONE|DICT|INTERRES
    71   34  159 1    
    72   35   36 2    
    73   35   37 1    
    74   37   38 1    
    75   37   39 1    
    76   37  160 1    
    77   38  161 1    
    78   38  162 1    
    79   38  163 1    
    80   39   40 am   BACKBONE|DICT|INTERRES
    81   39  164 1    
    82   40   41 2    
    83   40   42 1    
    84   42   43 1    
    85   42   44 1    
    86   42  165 1    
    87   43  166 1    
    88   43  167 1    
    89   43  168 1    
    90   44   45 am   BACKBONE|DICT|INTERRES
    91   44  169 1    
    92   45   46 2    
    93   45   47 1    
    94   47   48 1    
    95   47   49 1    
    96   47  170 1    
    97   48  171 1    
    98   48  172 1    
    99   48  173 1    
   100   49   50 am   BACKBONE|DICT|INTERRES
   101   49  174 1    
   102   50   51 2    
   103   50   52 1    
   104   52   53 1    
   105   52   54 1    
   106   52  175 1    
   107   53  176 1    
   108   53  177 1    
   109   53  178 1    
   110   54   55 am   BACKBONE|DICT|INTERRES
   111   54  179 1    
   112   55   56 2    
   113   55   57 1    
   114   57   58 1    
   115   57   59 1    
   116   57  180 1    
   117   58  181 1    
   118   58  182 1    
   119   58  183 1    
   120   59   60 am   BACKBONE|DICT|INTERRES
   121   59  184 1    
   122   60   61 2    
   123   60   62 1    
   124   62   63 1    
   125   62   64 1    
   126   62  185 1    
   127   63  186 1    
   128   63  187 1    
   129   63  188 1    
   130   64   65 am   BACKBONE|DICT|INTERRES
   131   64  189 1    
   132   65   66 2    
   133   67   68 2    
   134   67   69 am   BACKBONE|DICT|INTERRES
   135   69   70 1    
   136   69  190 1    
   137   70   71 1    
   138   70   72 1    
   139   70  191 1    
   140   71  192 1    
   141   71  193 1    
   142   71  194 1    
   143   72   73 2    
   144   72   74 am   BACKBONE|DICT|INTERRES
   145   74   75 1    
   146   74  195 1    
   147   75   76 1    
   148   75   77 1    
   149   75  196 1    
   150   76  197 1    
   151   76  198 1    
   152   76  199 1    
   153   77   78 2    
   154   77   79 am   BACKBONE|DICT|INTERRES
   155   79   80 1    
   156   79  200 1    
   157   80   81 1    
   158   80   82 1    
   159   80  201 1    
   160   81  202 1    
   161   81  203 1    
   162   81  204 1    
   163   82   83 2    
   164   82   84 am   BACKBONE|DICT|INTERRES
   165   84   85 1    
   166   84  205 1    
   167   85   86 1    
   168   85   87 1    
   169   85  206 1    
   170   86  207 1    
   171   86  208 1    
   172   86  209 1    
   173   87   88 2    
   174   87   89 am   BACKBONE|DICT|INTERRES
   175   89   90 1    
   176   89  210 1    
   177   90   91 1    
   178   90   92 1    
   179   90  211 1    
   180   91  212 1    
   181   91  213 1    
   182   91  214 1    
   183   92   93 2    
   184   92   94 am   BACKBONE|DICT|INTERRES
   185   94   95 1    
   186   94  215 1    
   187   95   96 1    
   188   95   97 1    
   189   95  216 1    
   190   96  217 1    
   191   96  218 1    
   192   96  219 1    
   193   97   98 2    
   194   97   99 am   BACKBONE|DICT|INTERRES
   195   99  100 1    
   196   99  220 1    
   197  100  101 1    
   198  100  102 1    
   199  100  221 1    
   200  101  222 1    
   201  101  223 1    
   202  101  224 1    
   203  102  103 2    
   204  102  104 am   BACKBONE|DICT|INTERRES
   205  104  105 1    
   206  104  225 1    
   207  105  106 1    
   208  105  107 1    
   209  105  226 1    
   210  106  227 1    
   211  106  228 1    
   212  106  229 1    
   213  107  108 2    
   214  107  109 am   BACKBONE|DICT|INTERRES
   215  109  110 1    
   216  109  230 1    
   217  110  111 1    
   218  110  112 1    
   219  110  231 1    
   220  111  232 1    
   221  111  233 1    
   222  111  234 1    
   223  112  113 2    
   224  112  114 am   BACKBONE|DICT|INTERRES
   225  114  115 1    
   226  114  235 1    
   227  115  116 1    
   228  115  117 1    
   229  115  236 1    
   230  116  237 1    
   231  116  238 1    
   232  116  239 1    
   233  117  118 2    
   234  117  119 am   BACKBONE|DICT|INTERRES
   235  119  120 1    
   236  119  240 1    
   237  120  121 1    
   238  120  124 1    
   239  120  241 1    
   240  121  122 am   BACKBONE|DICT|INTERRES
   241  121  123 2    
   242  122  242 1    
   243  122  243 1    
   244  124  125 1    
   245  124  244 1    
   246  124  245 1    
   247  125  126 1    
   248  126  246 1    
   249  126  247 1    
@<TRIPOS>SUBSTRUCTURE
     1 UNK         1 GROUP             0       ****    0 ROOT    
