@<TRIPOS>MOLECULE
3R540
247   249    1
SMALL
USER_CHARGES


@<TRIPOS>ATOM
      1 CA          0.7278  -11.7320  -45.8580 C.3       0 UNK        -0.1800 
      2 C           2.1322  -11.3909  -46.3329 C.2       0 UNK         0.5000 
      3 O           2.4222  -10.2250  -46.6036 O.2       0 UNK        -0.5000 
      4 N           3.0062  -12.4000  -46.4244 N.am      1 UNK        -0.5000 
      5 CA          4.4075  -12.2828  -46.8429 C.3       1 UNK         0.1400 
      6 C6          5.0482  -13.6688  -47.0920 C.3       23 UNK        -0.0398 
      7 S7          4.3597  -14.4766  -48.5734 S.3       23 UNK        -0.2404 
      8 C8          3.1353  -15.6045  -47.8439 C.3       23 UNK        -0.0205 
      9 C9          2.4173  -16.3857  -48.9294 C.ar      23 UNK        -0.0193 
     10 C10         1.3477  -15.8092  -49.6214 C.ar      23 UNK        -0.1150 
     11 C11         0.7005  -16.5172  -50.6375 C.ar      23 UNK        -0.0193 
     12 C12         1.1323  -17.8062  -50.9611 C.ar      23 UNK        -0.1150 
     13 C13         2.1815  -18.4026  -50.2576 C.ar      23 UNK        -0.0193 
     14 C14         2.8244  -17.6847  -49.2454 C.ar      23 UNK        -0.1150 
     15 C15         2.6052  -19.8307  -50.5742 C.3       23 UNK        -0.0205 
     16 S16         1.2556  -21.0281  -50.3102 S.3       23 UNK        -0.2404 
     17 C17         0.7086  -20.5884  -48.6257 C.3       23 UNK        -0.0398 
     18 CA          0.1029  -21.7795  -47.8516 C.3       11 UNK         0.1400 
     19 N           0.0986  -21.5309  -46.4081 N.am      11 UNK        -0.5000 
     20 C          -0.1994  -22.4466  -45.4766 C.2       10 UNK         0.5000 
     21 O          -0.4496  -23.6238  -45.7314 O.2       10 UNK        -0.5000 
     22 CA         -0.2872  -21.9513  -44.0223 C.3       10 UNK         0.1400 
     23 CB          1.1103  -21.8520  -43.3935 C.3       10 UNK        -0.1800 
     24 N          -0.9754  -20.6636  -43.9129 N.am      10 UNK        -0.5000 
     25 C          -2.2620  -20.4656  -44.2352 C.2       9 UNK         0.5000 
     26 O          -3.0185  -21.3668  -44.5953 O.2       9 UNK        -0.5000 
     27 CA         -2.7808  -19.0162  -44.1974 C.3       9 UNK         0.1400 
     28 CB         -3.1493  -18.6060  -42.7647 C.3       9 UNK        -0.1800 
     29 N          -1.8292  -18.0561  -44.7599 N.am      9 UNK        -0.5000 
     30 C          -1.4139  -18.0520  -46.0352 C.2       8 UNK         0.5000 
     31 O          -1.8181  -18.8433  -46.8849 O.2       8 UNK        -0.5000 
     32 CA         -0.3202  -17.0364  -46.4105 C.3       8 UNK         0.1400 
     33 CB         -0.9145  -15.6459  -46.6804 C.3       8 UNK        -0.1800 
     34 N           0.7127  -16.9438  -45.3788 N.am      8 UNK        -0.5000 
     35 C           1.5681  -17.9335  -45.0853 C.2       7 UNK         0.5000 
     36 O           1.6163  -19.0015  -45.6959 O.2       7 UNK        -0.5000 
     37 CA          2.4828  -17.7096  -43.8690 C.3       7 UNK         0.1400 
     38 CB          3.7187  -16.8809  -44.2512 C.3       7 UNK        -0.1800 
     39 N           1.7710  -17.0588  -42.7675 N.am      7 UNK        -0.5000 
     40 C           0.8339  -17.6673  -42.0241 C.2       6 UNK         0.5000 
     41 O           0.4983  -18.8399  -42.1832 O.2       6 UNK        -0.5000 
     42 CA          0.1234  -16.8255  -40.9465 C.3       6 UNK         0.1400 
     43 CB          0.8908  -16.8984  -39.6184 C.3       6 UNK        -0.1800 
     44 N          -0.0496  -15.4235  -41.3237 N.am      6 UNK        -0.5000 
     45 C          -0.7490  -14.9858  -42.3804 C.2       5 UNK         0.5000 
     46 O          -1.3807  -15.7248  -43.1341 O.2       5 UNK        -0.5000 
     47 CA         -0.6795  -13.4756  -42.6789 C.3       5 UNK         0.1400 
     48 CB         -1.8740  -12.7444  -42.0509 C.3       5 UNK        -0.1800 
     49 N           0.5655  -12.8484  -42.2222 N.am      5 UNK        -0.5000 
     50 C           1.7930  -13.1812  -42.6413 C.2       4 UNK         0.5000 
     51 O           2.0063  -14.0277  -43.5125 O.2       4 UNK        -0.5000 
     52 CA          2.9609  -12.4336  -41.9760 C.3       4 UNK         0.1400 
     53 CB          4.2473  -13.2774  -41.9513 C.3       4 UNK        -0.1800 
     54 N           3.1982  -11.1672  -42.6679 N.am      4 UNK        -0.5000 
     55 C           2.4766  -10.0535  -42.4627 C.2       3 UNK         0.5000 
     56 O           1.5900   -9.9850  -41.6093 O.2       3 UNK        -0.5000 
     57 CA          2.7288   -8.8281  -43.3684 C.3       3 UNK         0.1400 
     58 CB          2.7878   -7.5075  -42.5722 C.3       3 UNK        -0.1800 
     59 N           3.8681   -8.9664  -44.2806 N.am      3 UNK        -0.5000 
     60 C           5.1789   -8.9487  -43.9925 C.2       2 UNK         0.5000 
     61 O           5.6367   -8.7487  -42.8667 O.2       2 UNK        -0.5000 
     62 CA          6.1252   -9.2468  -45.1802 C.3       2 UNK         0.1400 
     63 CB          7.5482   -9.6453  -44.7353 C.3       2 UNK        -0.1800 
     64 N           5.5650  -10.2461  -46.1026 N.am      2 UNK        -0.5000 
     65 C           5.1907  -11.4930  -45.7803 C.2       1 UNK         0.5000 
     66 O           5.3698  -11.9953  -44.6721 O.2       1 UNK        -0.5000 
     67 C          -1.3007  -22.1591  -48.3745 C.2       11 UNK         0.5000 
     68 O          -1.4218  -23.1101  -49.1451 O.2       11 UNK        -0.5000 
     69 N          -2.3378  -21.4497  -47.9063 N.am      12 UNK        -0.5000 
     70 CA         -3.7399  -21.7195  -48.2232 C.3       12 UNK         0.1400 
     71 CB         -4.6188  -20.5634  -47.7253 C.3       12 UNK        -0.1800 
     72 C          -4.2410  -23.0667  -47.6734 C.2       12 UNK         0.5000 
     73 O          -5.0102  -23.7442  -48.3533 O.2       12 UNK        -0.5000 
     74 N          -3.7797  -23.4563  -46.4774 N.am      13 UNK        -0.5000 
     75 CA         -4.0403  -24.7706  -45.8850 C.3       13 UNK         0.1400 
     76 CB         -3.6110  -24.7629  -44.4103 C.3       13 UNK        -0.1800 
     77 C          -3.3428  -25.9096  -46.6553 C.2       13 UNK         0.5000 
     78 O          -3.9174  -26.9875  -46.8094 O.2       13 UNK        -0.5000 
     79 N          -2.1328  -25.6350  -47.1580 N.am      14 UNK        -0.5000 
     80 CA         -1.3134  -26.5413  -47.9639 C.3       14 UNK         0.1400 
     81 CB          0.1625  -26.1428  -47.7935 C.3       14 UNK        -0.1800 
     82 C          -1.7044  -26.5819  -49.4583 C.2       14 UNK         0.5000 
     83 O          -1.0179  -27.2497  -50.2331 O.2       14 UNK        -0.5000 
     84 N          -2.7784  -25.8798  -49.8528 N.am      15 UNK        -0.5000 
     85 CA         -3.2343  -25.7372  -51.2398 C.3       15 UNK         0.1400 
     86 CB         -4.3288  -24.6606  -51.3047 C.3       15 UNK        -0.1800 
     87 C          -3.7324  -27.0420  -51.8935 C.2       15 UNK         0.5000 
     88 O          -3.8112  -27.0956  -53.1198 O.2       15 UNK        -0.5000 
     89 N          -4.0657  -28.0582  -51.0817 N.am      16 UNK        -0.5000 
     90 CA         -4.4906  -29.4046  -51.4878 C.3       16 UNK         0.1400 
     91 CB         -3.3197  -30.1667  -52.1434 C.3       16 UNK        -0.1800 
     92 C          -5.7660  -29.3875  -52.3571 C.2       16 UNK         0.5000 
     93 O          -5.8016  -29.9869  -53.4330 O.2       16 UNK        -0.5000 
     94 N          -6.7819  -28.6677  -51.8606 N.am      17 UNK        -0.5000 
     95 CA         -8.1109  -28.4554  -52.4491 C.3       17 UNK         0.1400 
     96 CB         -8.8407  -29.7899  -52.7141 C.3       17 UNK        -0.1800 
     97 C          -8.1369  -27.5119  -53.6714 C.2       17 UNK         0.5000 
     98 O          -9.1902  -27.3728  -54.2967 O.2       17 UNK        -0.5000 
     99 N          -7.0180  -26.8339  -53.9675 N.am      18 UNK        -0.5000 
    100 CA        -6.9753  -25.6891  -54.8809 C.3       18 UNK         0.1400 
    101 CB        -5.5276  -25.4543  -55.3414 C.3       18 UNK        -0.1800 
    102 C         -7.5577  -24.4276  -54.2091 C.2       18 UNK         0.5000 
    103 O         -7.8041  -24.4231  -52.9990 O.2       18 UNK        -0.5000 
    104 N         -7.7601  -23.3697  -55.0040 N.am      19 UNK        -0.5000 
    105 CA        -8.3829  -22.1001  -54.6136 C.3       19 UNK         0.1400 
    106 CB        -8.8295  -21.3653  -55.8911 C.3       19 UNK        -0.1800 
    107 C         -7.4968  -21.2190  -53.7011 C.2       19 UNK         0.5000 
    108 O         -7.1633  -20.0909  -54.0647 O.2       19 UNK        -0.5000 
    109 N         -7.1359  -21.7575  -52.5285 N.am      20 UNK        -0.5000 
    110 CA        -6.4039  -21.1236  -51.4240 C.3       20 UNK         0.1400 
    111 CB        -7.2342  -19.9760  -50.8117 C.3       20 UNK        -0.1800 
    112 C         -4.9633  -20.6890  -51.7694 C.2       20 UNK         0.5000 
    113 O         -4.4163  -19.8190  -51.0913 O.2       20 UNK        -0.5000 
    114 N         -4.3690  -21.3175  -52.7945 N.am      21 UNK        -0.5000 
    115 CA        -3.0029  -21.1612  -53.3158 C.3       21 UNK         0.1400 
    116 CB        -1.9521  -21.5449  -52.2555 C.3       21 UNK        -0.1800 
    117 C         -2.6841  -19.7829  -53.9335 C.2       21 UNK         0.5000 
    118 O         -2.1289  -19.7318  -55.0319 O.2       21 UNK        -0.5000 
    119 N         -3.0156  -18.7020  -53.2226 N.am      22 UNK        -0.5000 
    120 CA        -2.7902  -17.3049  -53.6134 C.3       22 UNK         0.1400 
    121 C         -3.6320  -16.8796  -54.8477 C.2       22 UNK         0.5000 
    122 N         -3.0501  -16.1346  -55.7781 N.am      22 UNK        -0.7600 
    123 O         -4.8199  -17.1767  -54.9471 O.2       22 UNK        -0.5000 
    124 C124       -3.0374  -16.3325  -52.4300 C.3       23 UNK        -0.0398 
    125 S125       -2.0275  -16.7242  -50.9612 S.3       23 UNK        -0.2404 
    126 C126       -0.4633  -15.9024  -51.3955 C.3       23 UNK        -0.0205 
    127 H127       -0.0082  -11.3905  -46.5856 H         1 UNK         0.0600 
    128 H128        0.5229  -11.2411  -44.9068 H         1 UNK         0.0600 
    129 H129        0.5989  -12.8061  -45.7247 H         1 UNK         0.0600 
    130 H130        2.7243  -13.3161  -46.1090 H         1 UNK         0.3000 
    131 H131        4.4360  -11.7207  -47.7790 H         1 UNK         0.0600 
    132 H132        6.1225  -13.5668  -47.2568 H         1 UNK         0.0800 
    133 H133        4.9372  -14.3183  -46.2215 H         1 UNK         0.0800 
    134 H134        2.4095  -15.0436  -47.2550 H         1 UNK         0.0800 
    135 H135        3.6362  -16.2876  -47.1575 H         1 UNK         0.0800 
    136 H136        1.0270  -14.8073  -49.3727 H         1 UNK         0.1150 
    137 H137        0.6282  -18.3593  -51.7416 H         1 UNK         0.1150 
    138 H138        3.6415  -18.1365  -48.7006 H         1 UNK         0.1150 
    139 H139        2.9323  -19.8858  -51.6132 H         1 UNK         0.0800 
    140 H140        3.4609  -20.1257  -49.9648 H         1 UNK         0.0800 
    141 H141        0.0106  -19.7511  -48.6821 H         1 UNK         0.0800 
    142 H142        1.5805  -20.2170  -48.0858 H         1 UNK         0.0800 
    143 H143        0.7515  -22.6438  -48.0102 H         1 UNK         0.0600 
    144 H144        0.3285  -20.5893  -46.1094 H         1 UNK         0.3000 
    145 H145       -0.8622  -22.6868  -43.4558 H         1 UNK         0.0600 
    146 H146        1.0483  -21.5911  -42.3369 H         1 UNK         0.0600 
    147 H147        1.6386  -22.8037  -43.4627 H         1 UNK         0.0600 
    148 H148        1.7233  -21.0983  -43.8882 H         1 UNK         0.0600 
    149 H149       -0.4299  -19.8852  -43.5556 H         1 UNK         0.3000 
    150 H150       -3.6875  -18.9723  -44.8039 H         1 UNK         0.0600 
    151 H151       -3.9093  -19.2712  -42.3532 H         1 UNK         0.0600 
    152 H152       -3.5511  -17.5930  -42.7338 H         1 UNK         0.0600 
    153 H153       -2.2864  -18.6457  -42.1010 H         1 UNK         0.0600 
    154 H154       -1.4933  -17.3279  -44.1352 H         1 UNK         0.3000 
    155 H155        0.1507  -17.3863  -47.3316 H         1 UNK         0.0600 
    156 H156       -1.6543  -15.6917  -47.4808 H         1 UNK         0.0600 
    157 H157       -0.1444  -14.9413  -46.9928 H         1 UNK         0.0600 
    158 H158       -1.4079  -15.2354  -45.7993 H         1 UNK         0.0600 
    159 H159        0.7137  -16.1161  -44.8001 H         1 UNK         0.3000 
    160 H160        2.8268  -18.6872  -43.5244 H         1 UNK         0.0600 
    161 H161        3.4473  -15.9025  -44.6472 H         1 UNK         0.0600 
    162 H162        4.3070  -17.3922  -45.0140 H         1 UNK         0.0600 
    163 H163        4.3699  -16.7234  -43.3913 H         1 UNK         0.0600 
    164 H164        1.9556  -16.0741  -42.6265 H         1 UNK         0.3000 
    165 H165       -0.8689  -17.2521  -40.7907 H         1 UNK         0.0600 
    166 H166        0.3566  -16.3762  -38.8244 H         1 UNK         0.0600 
    167 H167        1.0169  -17.9332  -39.2970 H         1 UNK         0.0600 
    168 H168        1.8849  -16.4572  -39.7023 H         1 UNK         0.0600 
    169 H169        0.4324  -14.7405  -40.7587 H         1 UNK         0.3000 
    170 H170       -0.7382  -13.3573  -43.7621 H         1 UNK         0.0600 
    171 H171       -2.8175  -13.1740  -42.3905 H         1 UNK         0.0600 
    172 H172       -1.8572  -12.8065  -40.9621 H         1 UNK         0.0600 
    173 H173       -1.8801  -11.6899  -42.3276 H         1 UNK         0.0600 
    174 H174        0.4760  -12.0965  -41.5509 H         1 UNK         0.3000 
    175 H175        2.6937  -12.2293  -40.9370 H         1 UNK         0.0600 
    176 H176        4.5262  -13.6381  -42.9409 H         1 UNK         0.0600 
    177 H177        5.0872  -12.7082  -41.5528 H         1 UNK         0.0600 
    178 H178        4.1181  -14.1556  -41.3179 H         1 UNK         0.0600 
    179 H179        3.9104  -11.1810  -43.3889 H         1 UNK         0.3000 
    180 H180        1.8540   -8.7681  -44.0174 H         1 UNK         0.0600 
    181 H181        3.5739   -7.5204  -41.8172 H         1 UNK         0.0600 
    182 H182        1.8466   -7.3234  -42.0532 H         1 UNK         0.0600 
    183 H183        2.9648   -6.6565  -43.2298 H         1 UNK         0.0600 
    184 H184        3.6056   -9.1870  -45.2362 H         1 UNK         0.3000 
    185 H185        6.2052   -8.3164  -45.7441 H         1 UNK         0.0600 
    186 H186        8.0175   -8.8431  -44.1646 H         1 UNK         0.0600 
    187 H187        7.5437  -10.5342  -44.1039 H         1 UNK         0.0600 
    188 H188        8.1876   -9.8475  -45.5945 H         1 UNK         0.0600 
    189 H189        5.3427   -9.9042  -47.0279 H         1 UNK         0.3000 
    190 H190       -2.1524  -20.6348  -47.3265 H         1 UNK         0.3000 
    191 H191       -3.8213  -21.7658  -49.3092 H         1 UNK         0.0600 
    192 H192       -4.5514  -20.4413  -46.6447 H         1 UNK         0.0600 
    193 H193       -5.6668  -20.7364  -47.9717 H         1 UNK         0.0600 
    194 H194       -4.3264  -19.6208  -48.1890 H         1 UNK         0.0600 
    195 H195       -3.2170  -22.8081  -45.9346 H         1 UNK         0.3000 
    196 H196       -5.1164  -24.9527  -45.9234 H         1 UNK         0.0600 
    197 H197       -3.8287  -25.7204  -43.9356 H         1 UNK         0.0600 
    198 H198       -4.1416  -23.9929  -43.8499 H         1 UNK         0.0600 
    199 H199       -2.5424  -24.5778  -44.3011 H         1 UNK         0.0600 
    200 H200       -1.7187  -24.7331  -46.9472 H         1 UNK         0.3000 
    201 H201       -1.4329  -27.5550  -47.5766 H         1 UNK         0.0600 
    202 H202        0.4543  -26.1503  -46.7431 H         1 UNK         0.0600 
    203 H203        0.3541  -25.1440  -48.1866 H         1 UNK         0.0600 
    204 H204        0.8234  -26.8349  -48.3165 H         1 UNK         0.0600 
    205 H205       -3.2705  -25.3338  -49.1594 H         1 UNK         0.3000 
    206 H206       -2.3833  -25.3873  -51.8276 H         1 UNK         0.0600 
    207 H207       -3.9793  -23.7188  -50.8835 H         1 UNK         0.0600 
    208 H208       -4.6261  -24.4588  -52.3328 H         1 UNK         0.0600 
    209 H209       -5.2241  -24.9632  -50.7605 H         1 UNK         0.0600 
    210 H210       -3.9819  -27.9021  -50.0870 H         1 UNK         0.3000 
    211 H211       -4.7525  -29.9361  -50.5717 H         1 UNK         0.0600 
    212 H212       -3.0216  -29.7174  -53.0912 H         1 UNK         0.0600 
    213 H213       -3.5922  -31.2034  -52.3445 H         1 UNK         0.0600 
    214 H214       -2.4461  -30.1812  -51.4915 H         1 UNK         0.0600 
    215 H215       -6.6263  -28.1954  -50.9807 H         1 UNK         0.3000 
    216 H216       -8.6802  -27.9336  -51.6786 H         1 UNK         0.0600 
    217 H217       -9.8895  -29.6187  -52.9592 H         1 UNK         0.0600 
    218 H218       -8.8168  -30.4353  -51.8361 H         1 UNK         0.0600 
    219 H219       -8.4011  -30.3374  -53.5479 H         1 UNK         0.0600 
    220 H220       -6.1864  -27.0047  -53.4194 H         1 UNK         0.3000 
    221 H221       -7.5809  -25.9185  -55.7602 H         1 UNK         0.0600 
    222 H222       -4.8928  -25.1047  -54.5287 H         1 UNK         0.0600 
    223 H223       -5.0867  -26.3687  -55.7390 H         1 UNK         0.0600 
    224 H224       -5.4825  -24.7054  -56.1326 H         1 UNK         0.0600 
    225 H225       -7.4999  -23.4448  -55.9769 H         1 UNK         0.3000 
    226 H226       -9.2841  -22.3305  -54.0414 H         1 UNK         0.0600 
    227 H227       -9.5219  -21.9726  -56.4745 H         1 UNK         0.0600 
    228 H228       -9.3445  -20.4347  -55.6491 H         1 UNK         0.0600 
    229 H229       -7.9811  -21.1158  -56.5296 H         1 UNK         0.0600 
    230 H230       -7.4197  -22.7234  -52.3741 H         1 UNK         0.3000 
    231 H231       -6.2993  -21.8934  -50.6577 H         1 UNK         0.0600 
    232 H232       -8.2349  -20.3135  -50.5421 H         1 UNK         0.0600 
    233 H233       -7.3361  -19.1385  -51.5024 H         1 UNK         0.0600 
    234 H234       -6.7689  -19.5921  -49.9034 H         1 UNK         0.0600 
    235 H235       -4.9416  -21.9753  -53.3026 H         1 UNK         0.3000 
    236 H236       -2.9193  -21.8871  -54.1262 H         1 UNK         0.0600 
    237 H237       -0.9445  -21.4919  -52.6694 H         1 UNK         0.0600 
    238 H238       -1.9789  -20.8822  -51.3898 H         1 UNK         0.0600 
    239 H239       -2.0996  -22.5640  -51.8996 H         1 UNK         0.0600 
    240 H240       -3.4805  -18.8554  -52.3308 H         1 UNK         0.3000 
    241 H241       -1.7378  -17.2303  -53.8927 H         1 UNK         0.0600 
    242 H242       -3.5913  -15.8381  -56.5757 H         1 UNK         0.3800 
    243 H243       -2.0784  -15.8716  -55.7174 H         1 UNK         0.3800 
    244 H244       -2.8367  -15.3016  -52.7272 H         1 UNK         0.0800 
    245 H245       -4.0867  -16.3635  -52.1307 H         1 UNK         0.0800 
    246 H246       -0.5477  -14.8346  -51.1877 H         1 UNK         0.0800 
    247 H247       -0.2713  -15.9964  -52.4648 H         1 UNK         0.0800 
@<TRIPOS>BOND
     1    1    2 1    
     2    1  127 1    
     3    1  128 1    
     4    1  129 1    
     5    2    3 2    
     6    2    4 am   BACKBONE|DICT|INTERRES
     7    4    5 1    
     8    4  130 1    
     9    5    6 1    
    10    5   65 1    
    11    5  131 1    
    12    6    7 1    
    13    6  132 1    
    14    6  133 1    
    15    7    8 1    
    16    8    9 1    
    17    8  134 1    
    18    8  135 1    
    19    9   10 ar   
    20    9   14 ar   
    21   10   11 ar   
    22   10  136 1    
    23   11   12 ar   
    24   11  126 1    
    25   12   13 ar   
    26   12  137 1    
    27   13   14 ar   
    28   13   15 1    
    29   14  138 1    
    30   15   16 1    
    31   15  139 1    
    32   15  140 1    
    33   16   17 1    
    34   17   18 1    
    35   17  141 1    
    36   17  142 1    
    37   18   19 1    
    38   18   67 1    
    39   18  143 1    
    40   19   20 am   BACKBONE|DICT|INTERRES
    41   19  144 1    
    42   20   21 2    
    43   20   22 1    
    44   22   23 1    
    45   22   24 1    
    46   22  145 1    
    47   23  146 1    
    48   23  147 1    
    49   23  148 1    
    50   24   25 am   BACKBONE|DICT|INTERRES
    51   24  149 1    
    52   25   26 2    
    53   25   27 1    
    54   27   28 1    
    55   27   29 1    
    56   27  150 1    
    57   28  151 1    
    58   28  152 1    
    59   28  153 1    
    60   29   30 am   BACKBONE|DICT|INTERRES
    61   29  154 1    
    62   30   31 2    
    63   30   32 1    
    64   32   33 1    
    65   32   34 1    
    66   32  155 1    
    67   33  156 1    
    68   33  157 1    
    69   33  158 1    
    70   34   35 am   BACKBONE|DICT|INTERRES
    71   34  159 1    
    72   35   36 2    
    73   35   37 1    
    74   37   38 1    
    75   37   39 1    
    76   37  160 1    
    77   38  161 1    
    78   38  162 1    
    79   38  163 1    
    80   39   40 am   BACKBONE|DICT|INTERRES
    81   39  164 1    
    82   40   41 2    
    83   40   42 1    
    84   42   43 1    
    85   42   44 1    
    86   42  165 1    
    87   43  166 1    
    88   43  167 1    
    89   43  168 1    
    90   44   45 am   BACKBONE|DICT|INTERRES
    91   44  169 1    
    92   45   46 2    
    93   45   47 1    
    94   47   48 1    
    95   47   49 1    
    96   47  170 1    
    97   48  171 1    
    98   48  172 1    
    99   48  173 1    
   100   49   50 am   BACKBONE|DICT|INTERRES
   101   49  174 1    
   102   50   51 2    
   103   50   52 1    
   104   52   53 1    
   105   52   54 1    
   106   52  175 1    
   107   53  176 1    
   108   53  177 1    
   109   53  178 1    
   110   54   55 am   BACKBONE|DICT|INTERRES
   111   54  179 1    
   112   55   56 2    
   113   55   57 1    
   114   57   58 1    
   115   57   59 1    
   116   57  180 1    
   117   58  181 1    
   118   58  182 1    
   119   58  183 1    
   120   59   60 am   BACKBONE|DICT|INTERRES
   121   59  184 1    
   122   60   61 2    
   123   60   62 1    
   124   62   63 1    
   125   62   64 1    
   126   62  185 1    
   127   63  186 1    
   128   63  187 1    
   129   63  188 1    
   130   64   65 am   BACKBONE|DICT|INTERRES
   131   64  189 1    
   132   65   66 2    
   133   67   68 2    
   134   67   69 am   BACKBONE|DICT|INTERRES
   135   69   70 1    
   136   69  190 1    
   137   70   71 1    
   138   70   72 1    
   139   70  191 1    
   140   71  192 1    
   141   71  193 1    
   142   71  194 1    
   143   72   73 2    
   144   72   74 am   BACKBONE|DICT|INTERRES
   145   74   75 1    
   146   74  195 1    
   147   75   76 1    
   148   75   77 1    
   149   75  196 1    
   150   76  197 1    
   151   76  198 1    
   152   76  199 1    
   153   77   78 2    
   154   77   79 am   BACKBONE|DICT|INTERRES
   155   79   80 1    
   156   79  200 1    
   157   80   81 1    
   158   80   82 1    
   159   80  201 1    
   160   81  202 1    
   161   81  203 1    
   162   81  204 1    
   163   82   83 2    
   164   82   84 am   BACKBONE|DICT|INTERRES
   165   84   85 1    
   166   84  205 1    
   167   85   86 1    
   168   85   87 1    
   169   85  206 1    
   170   86  207 1    
   171   86  208 1    
   172   86  209 1    
   173   87   88 2    
   174   87   89 am   BACKBONE|DICT|INTERRES
   175   89   90 1    
   176   89  210 1    
   177   90   91 1    
   178   90   92 1    
   179   90  211 1    
   180   91  212 1    
   181   91  213 1    
   182   91  214 1    
   183   92   93 2    
   184   92   94 am   BACKBONE|DICT|INTERRES
   185   94   95 1    
   186   94  215 1    
   187   95   96 1    
   188   95   97 1    
   189   95  216 1    
   190   96  217 1    
   191   96  218 1    
   192   96  219 1    
   193   97   98 2    
   194   97   99 am   BACKBONE|DICT|INTERRES
   195   99  100 1    
   196   99  220 1    
   197  100  101 1    
   198  100  102 1    
   199  100  221 1    
   200  101  222 1    
   201  101  223 1    
   202  101  224 1    
   203  102  103 2    
   204  102  104 am   BACKBONE|DICT|INTERRES
   205  104  105 1    
   206  104  225 1    
   207  105  106 1    
   208  105  107 1    
   209  105  226 1    
   210  106  227 1    
   211  106  228 1    
   212  106  229 1    
   213  107  108 2    
   214  107  109 am   BACKBONE|DICT|INTERRES
   215  109  110 1    
   216  109  230 1    
   217  110  111 1    
   218  110  112 1    
   219  110  231 1    
   220  111  232 1    
   221  111  233 1    
   222  111  234 1    
   223  112  113 2    
   224  112  114 am   BACKBONE|DICT|INTERRES
   225  114  115 1    
   226  114  235 1    
   227  115  116 1    
   228  115  117 1    
   229  115  236 1    
   230  116  237 1    
   231  116  238 1    
   232  116  239 1    
   233  117  118 2    
   234  117  119 am   BACKBONE|DICT|INTERRES
   235  119  120 1    
   236  119  240 1    
   237  120  121 1    
   238  120  124 1    
   239  120  241 1    
   240  121  122 am   BACKBONE|DICT|INTERRES
   241  121  123 2    
   242  122  242 1    
   243  122  243 1    
   244  124  125 1    
   245  124  244 1    
   246  124  245 1    
   247  125  126 1    
   248  126  246 1    
   249  126  247 1    
@<TRIPOS>SUBSTRUCTURE
     1 UNK         1 GROUP             0       ****    0 ROOT    
