@<TRIPOS>MOLECULE
3R540
247   249    1
SMALL
USER_CHARGES


@<TRIPOS>ATOM
      1 CA         -0.5665  -10.1727  -46.7428 C.3       0 UNK        -0.1800 
      2 C           0.8981  -10.5798  -46.6568 C.2       0 UNK         0.5000 
      3 O           1.7082   -9.8405  -46.0970 O.2       0 UNK        -0.5000 
      4 N           1.2382  -11.7466  -47.2176 N.am      1 UNK        -0.5000 
      5 CA          2.5704  -12.3564  -47.1752 C.3       1 UNK         0.1400 
      6 C6          2.7271  -13.4904  -48.2228 C.3       23 UNK        -0.0398 
      7 S7          1.3278  -14.6615  -48.3567 S.3       23 UNK        -0.2404 
      8 C8          1.7547  -15.4073  -49.9623 C.3       23 UNK        -0.0205 
      9 C9          0.8013  -16.5187  -50.3743 C.ar      23 UNK        -0.0193 
     10 C10        -0.3633  -16.2197  -51.0864 C.ar      23 UNK        -0.1150 
     11 C11        -1.2028  -17.2432  -51.5362 C.ar      23 UNK        -0.0193 
     12 C12        -0.8818  -18.5725  -51.2484 C.ar      23 UNK        -0.1150 
     13 C13         0.2770  -18.8895  -50.5345 C.ar      23 UNK        -0.0193 
     14 C14         1.1171  -17.8537  -50.1054 C.ar      23 UNK        -0.1150 
     15 C15         0.6234  -20.3573  -50.2886 C.3       23 UNK        -0.0205 
     16 S16         1.3742  -20.6819  -48.6600 S.3       23 UNK        -0.2404 
     17 C17         0.0162  -20.2091  -47.5452 C.3       23 UNK        -0.0398 
     18 CA         -0.3930  -21.3597  -46.5991 C.3       11 UNK         0.1400 
     19 N          -0.6807  -20.8727  -45.2479 N.am      11 UNK        -0.5000 
     20 C          -0.9688  -21.6380  -44.1860 C.2       10 UNK         0.5000 
     21 O          -1.0231  -22.8684  -44.2206 O.2       10 UNK        -0.5000 
     22 CA         -1.3057  -20.8894  -42.8871 C.3       10 UNK         0.1400 
     23 CB         -0.0306  -20.5705  -42.0918 C.3       10 UNK        -0.1800 
     24 N          -2.0423  -19.6568  -43.1808 N.am      10 UNK        -0.5000 
     25 C          -3.3605  -19.6293  -43.4236 C.2       9 UNK         0.5000 
     26 O          -4.0950  -20.6104  -43.3047 O.2       9 UNK        -0.5000 
     27 CA         -3.9624  -18.2984  -43.9059 C.3       9 UNK         0.1400 
     28 CB         -4.3607  -17.4211  -42.7100 C.3       9 UNK        -0.1800 
     29 N          -3.0767  -17.5511  -44.8030 N.am      9 UNK        -0.5000 
     30 C          -2.8158  -17.9112  -46.0694 C.2       8 UNK         0.5000 
     31 O          -3.2242  -18.9649  -46.5557 O.2       8 UNK        -0.5000 
     32 CA         -1.9418  -16.9911  -46.9497 C.3       8 UNK         0.1400 
     33 CB         -2.6284  -16.6589  -48.2875 C.3       8 UNK        -0.1800 
     34 N          -1.4572  -15.7836  -46.2827 N.am      8 UNK        -0.5000 
     35 C          -2.1366  -14.6899  -45.9125 C.2       7 UNK         0.5000 
     36 O          -3.3283  -14.4939  -46.1524 O.2       7 UNK        -0.5000 
     37 CA         -1.3202  -13.6675  -45.0914 C.3       7 UNK         0.1400 
     38 CB         -2.2019  -12.6979  -44.2790 C.3       7 UNK        -0.1800 
     39 N          -0.3159  -14.3085  -44.2298 N.am      7 UNK        -0.5000 
     40 C          -0.5547  -15.2295  -43.2842 C.2       6 UNK         0.5000 
     41 O          -1.6822  -15.6253  -42.9891 O.2       6 UNK        -0.5000 
     42 CA          0.6807  -15.8566  -42.6182 C.3       6 UNK         0.1400 
     43 CB          0.3169  -16.8015  -41.4552 C.3       6 UNK        -0.1800 
     44 N           1.5414  -16.5451  -43.5841 N.am      6 UNK        -0.5000 
     45 C           1.2443  -17.5751  -44.3919 C.2       5 UNK         0.5000 
     46 O           0.1242  -18.0786  -44.4967 O.2       5 UNK        -0.5000 
     47 CA          2.4055  -18.1573  -45.2186 C.3       5 UNK         0.1400 
     48 CB          2.5214  -17.4275  -46.5635 C.3       5 UNK        -0.1800 
     49 N           3.6777  -18.0299  -44.5123 N.am      5 UNK        -0.5000 
     50 C           4.3151  -19.0096  -43.8602 C.2       4 UNK         0.5000 
     51 O           3.9441  -20.1835  -43.8470 O.2       4 UNK        -0.5000 
     52 CA          5.5783  -18.5991  -43.0723 C.3       4 UNK         0.1400 
     53 CB          6.8224  -18.6773  -43.9700 C.3       4 UNK        -0.1800 
     54 N           5.4804  -17.2505  -42.5054 N.am      4 UNK        -0.5000 
     55 C           4.6221  -16.9008  -41.5379 C.2       3 UNK         0.5000 
     56 O           3.9284  -17.7134  -40.9266 O.2       3 UNK        -0.5000 
     57 CA          4.4844  -15.4012  -41.1952 C.3       3 UNK         0.1400 
     58 CB          5.2211  -15.0912  -39.8827 C.3       3 UNK        -0.1800 
     59 N           4.9146  -14.4279  -42.2109 N.am      3 UNK        -0.5000 
     60 C           4.5640  -14.3732  -43.5038 C.2       2 UNK         0.5000 
     61 O           3.9575  -15.2702  -44.0882 O.2       2 UNK        -0.5000 
     62 CA          5.0050  -13.1097  -44.2679 C.3       2 UNK         0.1400 
     63 CB          6.5150  -13.1664  -44.5527 C.3       2 UNK        -0.1800 
     64 N           4.3103  -12.8690  -45.5387 N.am      2 UNK        -0.5000 
     65 C           2.9870  -12.7917  -45.7497 C.2       1 UNK         0.5000 
     66 O           2.1288  -13.0182  -44.8914 O.2       1 UNK        -0.5000 
     67 C          -1.5472  -22.1953  -47.1876 C.2       11 UNK         0.5000 
     68 O          -1.2869  -23.2156  -47.8207 O.2       11 UNK        -0.5000 
     69 N          -2.7926  -21.7915  -46.8938 N.am      12 UNK        -0.5000 
     70 CA         -4.0277  -22.4940  -47.2437 C.3       12 UNK         0.1400 
     71 CB         -5.2309  -21.6749  -46.7528 C.3       12 UNK        -0.1800 
     72 C          -4.1140  -23.9413  -46.7160 C.2       12 UNK         0.5000 
     73 O          -4.8064  -24.7589  -47.3221 O.2       12 UNK        -0.5000 
     74 N          -3.4145  -24.2369  -45.6129 N.am      13 UNK        -0.5000 
     75 CA         -3.2625  -25.5863  -45.0776 C.3       13 UNK         0.1400 
     76 CB         -3.2732  -25.5301  -43.5414 C.3       13 UNK        -0.1800 
     77 C          -1.9672  -26.2347  -45.5936 C.2       13 UNK         0.5000 
     78 O          -1.9986  -27.3826  -46.0378 O.2       13 UNK        -0.5000 
     79 N          -0.8517  -25.4957  -45.5151 N.am      14 UNK        -0.5000 
     80 CA          0.4976  -25.9949  -45.7861 C.3       14 UNK         0.1400 
     81 CB          1.5196  -24.9811  -45.2492 C.3       14 UNK        -0.1800 
     82 C           0.7907  -26.3161  -47.2647 C.2       14 UNK         0.5000 
     83 O           1.5614  -27.2394  -47.5311 O.2       14 UNK        -0.5000 
     84 N           0.2034  -25.5501  -48.1914 N.am      15 UNK        -0.5000 
     85 CA          0.4846  -25.6030  -49.6288 C.3       15 UNK         0.1400 
     86 CB          1.3508  -24.3862  -50.0031 C.3       15 UNK        -0.1800 
     87 C          -0.8043  -25.6725  -50.4706 C.2       15 UNK         0.5000 
     88 O          -0.7653  -25.3467  -51.6585 O.2       15 UNK        -0.5000 
     89 N          -1.9089  -26.1067  -49.8445 N.am      16 UNK        -0.5000 
     90 CA         -3.2878  -26.1416  -50.3519 C.3       16 UNK         0.1400 
     91 CB         -3.4003  -26.9482  -51.6631 C.3       16 UNK        -0.1800 
     92 C          -3.9183  -24.7384  -50.4782 C.2       16 UNK         0.5000 
     93 O          -3.2211  -23.7282  -50.3758 O.2       16 UNK        -0.5000 
     94 N          -5.2511  -24.7218  -50.6351 N.am      17 UNK        -0.5000 
     95 CA         -6.1433  -23.5630  -50.5225 C.3       17 UNK         0.1400 
     96 CB         -7.5435  -23.9637  -51.0127 C.3       17 UNK        -0.1800 
     97 C          -5.6703  -22.3019  -51.2670 C.2       17 UNK         0.5000 
     98 O          -5.3820  -22.3700  -52.4633 O.2       17 UNK        -0.5000 
     99 N          -5.6499  -21.1654  -50.5565 N.am      18 UNK        -0.5000 
    100 CA        -5.2027  -19.8660  -51.0658 C.3       18 UNK         0.1400 
    101 CB        -5.2102  -18.8424  -49.9218 C.3       18 UNK        -0.1800 
    102 C         -6.0326  -19.3585  -52.2593 C.2       18 UNK         0.5000 
    103 O         -5.4765  -18.7479  -53.1705 O.2       18 UNK        -0.5000 
    104 N         -7.3352  -19.6732  -52.2582 N.am      19 UNK        -0.5000 
    105 CA        -8.2700  -19.3761  -53.3448 C.3       19 UNK         0.1400 
    106 CB        -9.6996  -19.6663  -52.8627 C.3       19 UNK        -0.1800 
    107 C         -7.9729  -20.1499  -54.6454 C.2       19 UNK         0.5000 
    108 O         -8.3475  -19.6793  -55.7198 O.2       19 UNK        -0.5000 
    109 N         -7.3100  -21.3096  -54.5321 N.am      20 UNK        -0.5000 
    110 CA        -6.8294  -22.0952  -55.6652 C.3       20 UNK         0.1400 
    111 CB        -6.8730  -23.5926  -55.3183 C.3       20 UNK        -0.1800 
    112 C         -5.4102  -21.6530  -56.0541 C.2       20 UNK         0.5000 
    113 O         -5.1643  -21.3764  -57.2286 O.2       20 UNK        -0.5000 
    114 N         -4.5143  -21.5600  -55.0595 N.am      21 UNK        -0.5000 
    115 CA        -3.1005  -21.2048  -55.2170 C.3       21 UNK         0.1400 
    116 CB        -2.3962  -21.3166  -53.8567 C.3       21 UNK        -0.1800 
    117 C         -2.8697  -19.8125  -55.8354 C.2       21 UNK         0.5000 
    118 O         -1.9785  -19.6646  -56.6729 O.2       21 UNK        -0.5000 
    119 N         -3.6961  -18.8386  -55.4391 N.am      22 UNK        -0.5000 
    120 CA        -3.7425  -17.4771  -55.9951 C.3       22 UNK         0.1400 
    121 C         -4.9931  -17.2474  -56.8955 C.2       22 UNK         0.5000 
    122 N         -5.6703  -18.2856  -57.3725 N.am      22 UNK        -0.7600 
    123 O         -5.3513  -16.1100  -57.1897 O.2       22 UNK        -0.5000 
    124 C124       -3.6030  -16.3998  -54.8856 C.3       23 UNK        -0.0398 
    125 S125       -1.9762  -16.4735  -54.0612 S.3       23 UNK        -0.2404 
    126 C126       -2.4385  -16.9160  -52.3590 C.3       23 UNK        -0.0205 
    127 H127       -1.1599  -10.9030  -47.2935 H         1 UNK         0.0600 
    128 H128       -0.6602   -9.2104  -47.2461 H         1 UNK         0.0600 
    129 H129       -0.9878  -10.0778  -45.7420 H         1 UNK         0.0600 
    130 H130        0.5328  -12.3111  -47.6683 H         1 UNK         0.3000 
    131 H131        3.2723  -11.5695  -47.4612 H         1 UNK         0.0600 
    132 H132        3.6435  -14.0598  -48.0571 H         1 UNK         0.0800 
    133 H133        2.8537  -13.0252  -49.2015 H         1 UNK         0.0800 
    134 H134        1.7598  -14.6315  -50.7295 H         1 UNK         0.0800 
    135 H135        2.7737  -15.7951  -49.9155 H         1 UNK         0.0800 
    136 H136       -0.6036  -15.1909  -51.3153 H         1 UNK         0.1150 
    137 H137       -1.5252  -19.3652  -51.6008 H         1 UNK         0.1150 
    138 H138        2.0306  -18.0852  -49.5769 H         1 UNK         0.1150 
    139 H139       -0.2645  -20.9845  -50.3891 H         1 UNK         0.0800 
    140 H140        1.3192  -20.6819  -51.0630 H         1 UNK         0.0800 
    141 H141        0.3863  -19.3652  -46.9698 H         1 UNK         0.0800 
    142 H142       -0.8354  -19.8223  -48.1087 H         1 UNK         0.0800 
    143 H143        0.4574  -22.0337  -46.4834 H         1 UNK         0.0600 
    144 H144       -0.6409  -19.8704  -45.1040 H         1 UNK         0.3000 
    145 H145       -1.9259  -21.5453  -42.2724 H         1 UNK         0.0600 
    146 H146       -0.2656  -20.0555  -41.1605 H         1 UNK         0.0600 
    147 H147        0.5002  -21.4867  -41.8299 H         1 UNK         0.0600 
    148 H148        0.6620  -19.9467  -42.6559 H         1 UNK         0.0600 
    149 H149       -1.4933  -18.8223  -43.3555 H         1 UNK         0.3000 
    150 H150       -4.8731  -18.5321  -44.4617 H         1 UNK         0.0600 
    151 H151       -5.1286  -17.9107  -42.1099 H         1 UNK         0.0600 
    152 H152       -4.7635  -16.4623  -43.0371 H         1 UNK         0.0600 
    153 H153       -3.5135  -17.2243  -42.0527 H         1 UNK         0.0600 
    154 H154       -2.6522  -16.7115  -44.4234 H         1 UNK         0.3000 
    155 H155       -1.0416  -17.5553  -47.1855 H         1 UNK         0.0600 
    156 H156       -2.0586  -15.9220  -48.8522 H         1 UNK         0.0600 
    157 H157       -3.6351  -16.2661  -48.1430 H         1 UNK         0.0600 
    158 H158       -2.7097  -17.5509  -48.9082 H         1 UNK         0.0600 
    159 H159       -0.4908  -15.8250  -45.9927 H         1 UNK         0.3000 
    160 H160       -0.7638  -13.0778  -45.8180 H         1 UNK         0.0600 
    161 H161       -1.5926  -11.9830  -43.7261 H         1 UNK         0.0600 
    162 H162       -2.8584  -12.1242  -44.9342 H         1 UNK         0.0600 
    163 H163       -2.8332  -13.2261  -43.5639 H         1 UNK         0.0600 
    164 H164        0.6459  -14.0198  -44.4050 H         1 UNK         0.3000 
    165 H165        1.2662  -15.0326  -42.2087 H         1 UNK         0.0600 
    166 H166       -0.3084  -17.6299  -41.7865 H         1 UNK         0.0600 
    167 H167        1.2091  -17.2213  -40.9915 H         1 UNK         0.0600 
    168 H168       -0.2340  -16.2690  -40.6793 H         1 UNK         0.0600 
    169 H169        2.4733  -16.1476  -43.6787 H         1 UNK         0.3000 
    170 H170        2.1838  -19.2088  -45.4109 H         1 UNK         0.0600 
    171 H171        1.5687  -17.4063  -47.0920 H         1 UNK         0.0600 
    172 H172        2.8431  -16.3940  -46.4304 H         1 UNK         0.0600 
    173 H173        3.2434  -17.9194  -47.2152 H         1 UNK         0.0600 
    174 H174        4.0376  -17.0829  -44.4281 H         1 UNK         0.3000 
    175 H175        5.7035  -19.3076  -42.2507 H         1 UNK         0.0600 
    176 H176        6.7640  -17.9736  -44.8015 H         1 UNK         0.0600 
    177 H177        7.7298  -18.4583  -43.4069 H         1 UNK         0.0600 
    178 H178        6.9362  -19.6764  -44.3926 H         1 UNK         0.0600 
    179 H179        6.0134  -16.5230  -42.9583 H         1 UNK         0.3000 
    180 H180        3.4207  -15.2239  -41.0280 H         1 UNK         0.0600 
    181 H181        6.3008  -15.1970  -39.9956 H         1 UNK         0.0600 
    182 H182        4.9070  -15.7660  -39.0849 H         1 UNK         0.0600 
    183 H183        5.0157  -14.0759  -39.5429 H         1 UNK         0.0600 
    184 H184        5.4557  -13.6563  -41.8479 H         1 UNK         0.3000 
    185 H185        4.8011  -12.2503  -43.6264 H         1 UNK         0.0600 
    186 H186        7.0911  -13.2936  -43.6352 H         1 UNK         0.0600 
    187 H187        6.7662  -13.9966  -45.2144 H         1 UNK         0.0600 
    188 H188        6.8638  -12.2463  -45.0222 H         1 UNK         0.0600 
    189 H189        4.9203  -12.6861  -46.3215 H         1 UNK         0.3000 
    190 H190       -2.9106  -20.8928  -46.4356 H         1 UNK         0.3000 
    191 H191       -4.0737  -22.5337  -48.3300 H         1 UNK         0.0600 
    192 H192       -5.2471  -20.6830  -47.2038 H         1 UNK         0.0600 
    193 H193       -6.1714  -22.1638  -47.0097 H         1 UNK         0.0600 
    194 H194       -5.2125  -21.5486  -45.6698 H         1 UNK         0.0600 
    195 H195       -2.8480  -23.5144  -45.1868 H         1 UNK         0.3000 
    196 H196       -4.1002  -26.2135  -45.3900 H         1 UNK         0.0600 
    197 H197       -3.1694  -26.5284  -43.1147 H         1 UNK         0.0600 
    198 H198       -4.2105  -25.1143  -43.1713 H         1 UNK         0.0600 
    199 H199       -2.4600  -24.9193  -43.1482 H         1 UNK         0.0600 
    200 H200       -0.9133  -24.5599  -45.1245 H         1 UNK         0.3000 
    201 H201        0.6227  -26.9226  -45.2236 H         1 UNK         0.0600 
    202 H202        1.3709  -24.7941  -44.1855 H         1 UNK         0.0600 
    203 H203        1.4492  -24.0264  -45.7698 H         1 UNK         0.0600 
    204 H204        2.5388  -25.3485  -45.3757 H         1 UNK         0.0600 
    205 H205       -0.4116  -24.7900  -47.9004 H         1 UNK         0.3000 
    206 H206        1.0474  -26.5062  -49.8718 H         1 UNK         0.0600 
    207 H207        2.2578  -24.3439  -49.3999 H         1 UNK         0.0600 
    208 H208        1.6589  -24.4242  -51.0485 H         1 UNK         0.0600 
    209 H209        0.8053  -23.4541  -49.8537 H         1 UNK         0.0600 
    210 H210       -1.8082  -26.3293  -48.8643 H         1 UNK         0.3000 
    211 H211       -3.8579  -26.6710  -49.5868 H         1 UNK         0.0600 
    212 H212       -2.9734  -26.4124  -52.5112 H         1 UNK         0.0600 
    213 H213       -4.4426  -27.1544  -51.9076 H         1 UNK         0.0600 
    214 H214       -2.8928  -27.9094  -51.5814 H         1 UNK         0.0600 
    215 H215       -5.7193  -25.6106  -50.7293 H         1 UNK         0.3000 
    216 H216       -6.2147  -23.3293  -49.4590 H         1 UNK         0.0600 
    217 H217       -7.9481  -24.7882  -50.4254 H         1 UNK         0.0600 
    218 H218       -7.5287  -24.2722  -52.0592 H         1 UNK         0.0600 
    219 H219       -8.2443  -23.1322  -50.9263 H         1 UNK         0.0600 
    220 H220       -5.9300  -21.1877  -49.5878 H         1 UNK         0.3000 
    221 H221       -4.1725  -19.9825  -51.4040 H         1 UNK         0.0600 
    222 H222       -4.8615  -17.8682  -50.2670 H         1 UNK         0.0600 
    223 H223       -6.2096  -18.7055  -49.5075 H         1 UNK         0.0600 
    224 H224       -4.5509  -19.1541  -49.1114 H         1 UNK         0.0600 
    225 H225       -7.7051  -20.1801  -51.4681 H         1 UNK         0.3000 
    226 H226       -8.1935  -18.3109  -53.5732 H         1 UNK         0.0600 
    227 H227      -10.4292  -19.4292  -53.6383 H         1 UNK         0.0600 
    228 H228       -9.8300  -20.7168  -52.5995 H         1 UNK         0.0600 
    229 H229       -9.9512  -19.0659  -51.9882 H         1 UNK         0.0600 
    230 H230       -6.9884  -21.6019  -53.6184 H         1 UNK         0.3000 
    231 H231       -7.4814  -21.9381  -56.5273 H         1 UNK         0.0600 
    232 H232       -6.5497  -24.1961  -56.1672 H         1 UNK         0.0600 
    233 H233       -7.8852  -23.9068  -55.0633 H         1 UNK         0.0600 
    234 H234       -6.2257  -23.8411  -54.4773 H         1 UNK         0.0600 
    235 H235       -4.8081  -21.8188  -54.1200 H         1 UNK         0.3000 
    236 H236       -2.6552  -21.9404  -55.8898 H         1 UNK         0.0600 
    237 H237       -2.4923  -22.3195  -53.4392 H         1 UNK         0.0600 
    238 H238       -1.3310  -21.0994  -53.9461 H         1 UNK         0.0600 
    239 H239       -2.8150  -20.6147  -53.1378 H         1 UNK         0.0600 
    240 H240       -4.3932  -19.0349  -54.7260 H         1 UNK         0.3000 
    241 H241       -2.9001  -17.3368  -56.6743 H         1 UNK         0.0600 
    242 H242       -6.4818  -18.1233  -57.9472 H         1 UNK         0.3800 
    243 H243       -5.3706  -19.2339  -57.1889 H         1 UNK         0.3800 
    244 H244       -4.4056  -16.4937  -54.1530 H         1 UNK         0.0800 
    245 H245       -3.6952  -15.3977  -55.3072 H         1 UNK         0.0800 
    246 H246       -2.9853  -16.0921  -51.8982 H         1 UNK         0.0800 
    247 H247       -3.1155  -17.7701  -52.3803 H         1 UNK         0.0800 
@<TRIPOS>BOND
     1    1    2 1    
     2    1  127 1    
     3    1  128 1    
     4    1  129 1    
     5    2    3 2    
     6    2    4 am   BACKBONE|DICT|INTERRES
     7    4    5 1    
     8    4  130 1    
     9    5    6 1    
    10    5   65 1    
    11    5  131 1    
    12    6    7 1    
    13    6  132 1    
    14    6  133 1    
    15    7    8 1    
    16    8    9 1    
    17    8  134 1    
    18    8  135 1    
    19    9   10 ar   
    20    9   14 ar   
    21   10   11 ar   
    22   10  136 1    
    23   11   12 ar   
    24   11  126 1    
    25   12   13 ar   
    26   12  137 1    
    27   13   14 ar   
    28   13   15 1    
    29   14  138 1    
    30   15   16 1    
    31   15  139 1    
    32   15  140 1    
    33   16   17 1    
    34   17   18 1    
    35   17  141 1    
    36   17  142 1    
    37   18   19 1    
    38   18   67 1    
    39   18  143 1    
    40   19   20 am   BACKBONE|DICT|INTERRES
    41   19  144 1    
    42   20   21 2    
    43   20   22 1    
    44   22   23 1    
    45   22   24 1    
    46   22  145 1    
    47   23  146 1    
    48   23  147 1    
    49   23  148 1    
    50   24   25 am   BACKBONE|DICT|INTERRES
    51   24  149 1    
    52   25   26 2    
    53   25   27 1    
    54   27   28 1    
    55   27   29 1    
    56   27  150 1    
    57   28  151 1    
    58   28  152 1    
    59   28  153 1    
    60   29   30 am   BACKBONE|DICT|INTERRES
    61   29  154 1    
    62   30   31 2    
    63   30   32 1    
    64   32   33 1    
    65   32   34 1    
    66   32  155 1    
    67   33  156 1    
    68   33  157 1    
    69   33  158 1    
    70   34   35 am   BACKBONE|DICT|INTERRES
    71   34  159 1    
    72   35   36 2    
    73   35   37 1    
    74   37   38 1    
    75   37   39 1    
    76   37  160 1    
    77   38  161 1    
    78   38  162 1    
    79   38  163 1    
    80   39   40 am   BACKBONE|DICT|INTERRES
    81   39  164 1    
    82   40   41 2    
    83   40   42 1    
    84   42   43 1    
    85   42   44 1    
    86   42  165 1    
    87   43  166 1    
    88   43  167 1    
    89   43  168 1    
    90   44   45 am   BACKBONE|DICT|INTERRES
    91   44  169 1    
    92   45   46 2    
    93   45   47 1    
    94   47   48 1    
    95   47   49 1    
    96   47  170 1    
    97   48  171 1    
    98   48  172 1    
    99   48  173 1    
   100   49   50 am   BACKBONE|DICT|INTERRES
   101   49  174 1    
   102   50   51 2    
   103   50   52 1    
   104   52   53 1    
   105   52   54 1    
   106   52  175 1    
   107   53  176 1    
   108   53  177 1    
   109   53  178 1    
   110   54   55 am   BACKBONE|DICT|INTERRES
   111   54  179 1    
   112   55   56 2    
   113   55   57 1    
   114   57   58 1    
   115   57   59 1    
   116   57  180 1    
   117   58  181 1    
   118   58  182 1    
   119   58  183 1    
   120   59   60 am   BACKBONE|DICT|INTERRES
   121   59  184 1    
   122   60   61 2    
   123   60   62 1    
   124   62   63 1    
   125   62   64 1    
   126   62  185 1    
   127   63  186 1    
   128   63  187 1    
   129   63  188 1    
   130   64   65 am   BACKBONE|DICT|INTERRES
   131   64  189 1    
   132   65   66 2    
   133   67   68 2    
   134   67   69 am   BACKBONE|DICT|INTERRES
   135   69   70 1    
   136   69  190 1    
   137   70   71 1    
   138   70   72 1    
   139   70  191 1    
   140   71  192 1    
   141   71  193 1    
   142   71  194 1    
   143   72   73 2    
   144   72   74 am   BACKBONE|DICT|INTERRES
   145   74   75 1    
   146   74  195 1    
   147   75   76 1    
   148   75   77 1    
   149   75  196 1    
   150   76  197 1    
   151   76  198 1    
   152   76  199 1    
   153   77   78 2    
   154   77   79 am   BACKBONE|DICT|INTERRES
   155   79   80 1    
   156   79  200 1    
   157   80   81 1    
   158   80   82 1    
   159   80  201 1    
   160   81  202 1    
   161   81  203 1    
   162   81  204 1    
   163   82   83 2    
   164   82   84 am   BACKBONE|DICT|INTERRES
   165   84   85 1    
   166   84  205 1    
   167   85   86 1    
   168   85   87 1    
   169   85  206 1    
   170   86  207 1    
   171   86  208 1    
   172   86  209 1    
   173   87   88 2    
   174   87   89 am   BACKBONE|DICT|INTERRES
   175   89   90 1    
   176   89  210 1    
   177   90   91 1    
   178   90   92 1    
   179   90  211 1    
   180   91  212 1    
   181   91  213 1    
   182   91  214 1    
   183   92   93 2    
   184   92   94 am   BACKBONE|DICT|INTERRES
   185   94   95 1    
   186   94  215 1    
   187   95   96 1    
   188   95   97 1    
   189   95  216 1    
   190   96  217 1    
   191   96  218 1    
   192   96  219 1    
   193   97   98 2    
   194   97   99 am   BACKBONE|DICT|INTERRES
   195   99  100 1    
   196   99  220 1    
   197  100  101 1    
   198  100  102 1    
   199  100  221 1    
   200  101  222 1    
   201  101  223 1    
   202  101  224 1    
   203  102  103 2    
   204  102  104 am   BACKBONE|DICT|INTERRES
   205  104  105 1    
   206  104  225 1    
   207  105  106 1    
   208  105  107 1    
   209  105  226 1    
   210  106  227 1    
   211  106  228 1    
   212  106  229 1    
   213  107  108 2    
   214  107  109 am   BACKBONE|DICT|INTERRES
   215  109  110 1    
   216  109  230 1    
   217  110  111 1    
   218  110  112 1    
   219  110  231 1    
   220  111  232 1    
   221  111  233 1    
   222  111  234 1    
   223  112  113 2    
   224  112  114 am   BACKBONE|DICT|INTERRES
   225  114  115 1    
   226  114  235 1    
   227  115  116 1    
   228  115  117 1    
   229  115  236 1    
   230  116  237 1    
   231  116  238 1    
   232  116  239 1    
   233  117  118 2    
   234  117  119 am   BACKBONE|DICT|INTERRES
   235  119  120 1    
   236  119  240 1    
   237  120  121 1    
   238  120  124 1    
   239  120  241 1    
   240  121  122 am   BACKBONE|DICT|INTERRES
   241  121  123 2    
   242  122  242 1    
   243  122  243 1    
   244  124  125 1    
   245  124  244 1    
   246  124  245 1    
   247  125  126 1    
   248  126  246 1    
   249  126  247 1    
@<TRIPOS>SUBSTRUCTURE
     1 UNK         1 GROUP             0       ****    0 ROOT    
