@<TRIPOS>MOLECULE
3R540
247   249    1
SMALL
USER_CHARGES


@<TRIPOS>ATOM
      1 CA         -3.4671  -10.6143  -46.5235 C.3       0 UNK        -0.1800 
      2 C          -2.5487  -11.5228  -47.3277 C.2       0 UNK         0.5000 
      3 O          -1.4069  -11.1539  -47.6034 O.2       0 UNK        -0.5000 
      4 N          -3.0317  -12.7195  -47.6880 N.am      1 UNK        -0.5000 
      5 CA         -2.3105  -13.7218  -48.4871 C.3       1 UNK         0.1400 
      6 C6         -3.2820  -14.6800  -49.2206 C.3       23 UNK        -0.0398 
      7 S7         -4.3520  -15.6943  -48.1320 S.3       23 UNK        -0.2404 
      8 C8         -3.7572  -17.3743  -48.5085 C.3       23 UNK        -0.0205 
      9 C9         -4.8861  -18.3903  -48.5902 C.ar      23 UNK        -0.0193 
     10 C10        -5.7166  -18.4114  -49.7134 C.ar      23 UNK        -0.1150 
     11 C11        -6.7062  -19.3905  -49.8563 C.ar      23 UNK        -0.0193 
     12 C12        -6.8653  -20.3464  -48.8484 C.ar      23 UNK        -0.1150 
     13 C13        -6.0482  -20.3335  -47.7138 C.ar      23 UNK        -0.0193 
     14 C14        -5.0684  -19.3437  -47.5842 C.ar      23 UNK        -0.1150 
     15 C15        -6.2331  -21.3913  -46.6349 C.3       23 UNK        -0.0205 
     16 S16        -5.2093  -22.8692  -46.9551 S.3       23 UNK        -0.2404 
     17 C17        -3.9360  -22.7165  -45.6579 C.3       23 UNK        -0.0398 
     18 CA         -2.7647  -21.7948  -46.0860 C.3       11 UNK         0.1400 
     19 N          -2.5222  -20.7289  -45.1159 N.am      11 UNK        -0.5000 
     20 C          -1.8778  -19.5926  -45.4058 C.2       10 UNK         0.5000 
     21 O          -1.3283  -19.3995  -46.4893 O.2       10 UNK        -0.5000 
     22 CA         -1.8123  -18.4881  -44.3346 C.3       10 UNK         0.1400 
     23 CB         -2.4393  -17.1766  -44.8478 C.3       10 UNK        -0.1800 
     24 N          -2.3585  -18.8672  -43.0261 N.am      10 UNK        -0.5000 
     25 C          -3.6351  -19.0565  -42.6621 C.2       9 UNK         0.5000 
     26 O          -4.6030  -18.8946  -43.4053 O.2       9 UNK        -0.5000 
     27 CA         -3.8286  -19.5726  -41.2199 C.3       9 UNK         0.1400 
     28 CB         -5.2586  -20.0825  -40.9437 C.3       9 UNK        -0.1800 
     29 N          -2.8288  -20.5891  -40.8616 N.am      9 UNK        -0.5000 
     30 C          -2.6298  -21.7658  -41.4762 C.2       8 UNK         0.5000 
     31 O          -3.3072  -22.1670  -42.4232 O.2       8 UNK        -0.5000 
     32 CA         -1.4208  -22.5876  -40.9843 C.3       8 UNK         0.1400 
     33 CB         -1.2030  -23.8749  -41.8031 C.3       8 UNK        -0.1800 
     34 N          -0.1896  -21.7885  -40.9357 N.am      8 UNK        -0.5000 
     35 C           0.3752  -21.1033  -41.9407 C.2       7 UNK         0.5000 
     36 O          -0.0466  -21.0842  -43.0999 O.2       7 UNK        -0.5000 
     37 CA          1.6097  -20.2594  -41.5761 C.3       7 UNK         0.1400 
     38 CB          2.8381  -20.7095  -42.3814 C.3       7 UNK        -0.1800 
     39 N           1.3800  -18.8322  -41.8057 N.am      7 UNK        -0.5000 
     40 C           0.4200  -18.0898  -41.2397 C.2       6 UNK         0.5000 
     41 O          -0.4073  -18.5427  -40.4462 O.2       6 UNK        -0.5000 
     42 CA          0.3628  -16.6019  -41.6479 C.3       6 UNK         0.1400 
     43 CB         -0.7053  -15.8158  -40.8663 C.3       6 UNK        -0.1800 
     44 N           1.6518  -15.9182  -41.5092 N.am      6 UNK        -0.5000 
     45 C           2.6667  -16.0048  -42.3769 C.2       5 UNK         0.5000 
     46 O           2.6554  -16.7458  -43.3601 O.2       5 UNK        -0.5000 
     47 CA          3.9097  -15.1613  -42.0787 C.3       5 UNK         0.1400 
     48 CB          4.9545  -16.0142  -41.3320 C.3       5 UNK        -0.1800 
     49 N           4.4558  -14.6501  -43.3356 N.am      5 UNK        -0.5000 
     50 C           5.3972  -13.7018  -43.4332 C.2       4 UNK         0.5000 
     51 O           5.8822  -13.1208  -42.4610 O.2       4 UNK        -0.5000 
     52 CA          5.8939  -13.3356  -44.8449 C.3       4 UNK         0.1400 
     53 CB          6.9574  -14.3387  -45.3181 C.3       4 UNK        -0.1800 
     54 N           4.8279  -13.2624  -45.8424 N.am      4 UNK        -0.5000 
     55 C           3.8903  -12.3074  -45.8999 C.2       3 UNK         0.5000 
     56 O           3.8167  -11.3717  -45.1021 O.2       3 UNK        -0.5000 
     57 CA          2.8515  -12.4081  -47.0382 C.3       3 UNK         0.1400 
     58 CB          3.3774  -13.1253  -48.3017 C.3       3 UNK        -0.1800 
     59 N           1.6009  -13.0166  -46.5785 N.am      3 UNK        -0.5000 
     60 C           1.4564  -14.2276  -46.0193 C.2       2 UNK         0.5000 
     61 O           2.3741  -15.0337  -45.8715 O.2       2 UNK        -0.5000 
     62 CA          0.0435  -14.5961  -45.5354 C.3       2 UNK         0.1400 
     63 CB         -0.2037  -13.9938  -44.1434 C.3       2 UNK        -0.1800 
     64 N          -1.0232  -14.1353  -46.4239 N.am      2 UNK        -0.5000 
     65 C          -1.1929  -14.4647  -47.7125 C.2       1 UNK         0.5000 
     66 O          -0.5003  -15.2968  -48.2984 O.2       1 UNK        -0.5000 
     67 C          -1.4851  -22.5757  -46.4392 C.2       11 UNK         0.5000 
     68 O          -1.3233  -22.9533  -47.5989 O.2       11 UNK        -0.5000 
     69 N          -0.5720  -22.7652  -45.4737 N.am      12 UNK        -0.5000 
     70 CA          0.7275  -23.3988  -45.7203 C.3       12 UNK         0.1400 
     71 CB          1.3309  -23.9461  -44.4190 C.3       12 UNK        -0.1800 
     72 C           1.7027  -22.4393  -46.4197 C.2       12 UNK         0.5000 
     73 O           2.4785  -22.8838  -47.2657 O.2       12 UNK        -0.5000 
     74 N           1.6035  -21.1366  -46.1120 N.am      13 UNK        -0.5000 
     75 CA          2.3307  -20.0671  -46.8052 C.3       13 UNK         0.1400 
     76 CB          2.1191  -18.7350  -46.0700 C.3       13 UNK        -0.1800 
     77 C           1.9211  -19.9517  -48.2874 C.2       13 UNK         0.5000 
     78 O           2.7702  -19.7022  -49.1427 O.2       13 UNK        -0.5000 
     79 N           0.6349  -20.2022  -48.5613 N.am      14 UNK        -0.5000 
     80 CA          0.0407  -20.2871  -49.8927 C.3       14 UNK         0.1400 
     81 CB         -1.4386  -19.9005  -49.7790 C.3       14 UNK        -0.1800 
     82 C           0.1986  -21.6697  -50.5604 C.2       14 UNK         0.5000 
     83 O          -0.3976  -21.8840  -51.6169 O.2       14 UNK        -0.5000 
     84 N           0.9721  -22.5828  -49.9525 N.am      15 UNK        -0.5000 
     85 CA          1.2936  -23.9321  -50.4320 C.3       15 UNK         0.1400 
     86 CB          2.1625  -23.8564  -51.7056 C.3       15 UNK        -0.1800 
     87 C           0.0424  -24.8163  -50.6119 C.2       15 UNK         0.5000 
     88 O          -0.1525  -25.4068  -51.6738 O.2       15 UNK        -0.5000 
     89 N          -0.8071  -24.8504  -49.5759 N.am      16 UNK        -0.5000 
     90 CA         -2.1295  -25.4868  -49.5326 C.3       16 UNK         0.1400 
     91 CB         -2.0311  -27.0162  -49.7151 C.3       16 UNK        -0.1800 
     92 C          -3.1192  -24.8106  -50.5034 C.2       16 UNK         0.5000 
     93 O          -3.9193  -25.4879  -51.1500 O.2       16 UNK        -0.5000 
     94 N          -3.0110  -23.4760  -50.5929 N.am      17 UNK        -0.5000 
     95 CA         -3.7656  -22.5606  -51.4569 C.3       17 UNK         0.1400 
     96 CB         -5.2690  -22.6198  -51.1313 C.3       17 UNK        -0.1800 
     97 C          -3.4773  -22.7185  -52.9676 C.2       17 UNK         0.5000 
     98 O          -4.1993  -22.1444  -53.7874 O.2       17 UNK        -0.5000 
     99 N          -2.4237  -23.4662  -53.3246 N.am      18 UNK        -0.5000 
    100 CA        -2.0042  -23.7006  -54.7047 C.3       18 UNK         0.1400 
    101 CB        -1.1395  -24.9670  -54.7747 C.3       18 UNK        -0.1800 
    102 C         -1.2461  -22.5021  -55.2972 C.2       18 UNK         0.5000 
    103 O         -1.4431  -22.1911  -56.4716 O.2       18 UNK        -0.5000 
    104 N         -0.4175  -21.8318  -54.4822 N.am      19 UNK        -0.5000 
    105 CA         0.3502  -20.6514  -54.8916 C.3       19 UNK         0.1400 
    106 CB         1.5337  -20.4386  -53.9356 C.3       19 UNK        -0.1800 
    107 C         -0.5301  -19.3915  -54.9592 C.2       19 UNK         0.5000 
    108 O         -0.2789  -18.5153  -55.7867 O.2       19 UNK        -0.5000 
    109 N         -1.5674  -19.3448  -54.1115 N.am      20 UNK        -0.5000 
    110 CA        -2.6178  -18.3248  -54.1375 C.3       20 UNK         0.1400 
    111 CB        -3.2709  -18.2492  -52.7496 C.3       20 UNK        -0.1800 
    112 C         -3.6683  -18.5744  -55.2426 C.2       20 UNK         0.5000 
    113 O         -4.4391  -17.6651  -55.5511 O.2       20 UNK        -0.5000 
    114 N         -3.6610  -19.7844  -55.8255 N.am      21 UNK        -0.5000 
    115 CA        -4.5199  -20.2726  -56.9083 C.3       21 UNK         0.1400 
    116 CB        -4.2285  -19.5136  -58.2197 C.3       21 UNK        -0.1800 
    117 C         -6.0134  -20.2824  -56.5251 C.2       21 UNK         0.5000 
    118 O         -6.8596  -19.8260  -57.2973 O.2       21 UNK        -0.5000 
    119 N         -6.3034  -20.8010  -55.3283 N.am      22 UNK        -0.5000 
    120 CA        -7.6465  -20.8434  -54.7274 C.3       22 UNK         0.1400 
    121 C         -7.9634  -22.1631  -53.9683 C.2       22 UNK         0.5000 
    122 N         -7.0724  -23.1464  -53.9381 N.am      22 UNK        -0.7600 
    123 O         -9.0551  -22.3164  -53.4272 O.2       22 UNK        -0.5000 
    124 C124       -7.9555  -19.5653  -53.9010 C.3       23 UNK        -0.0398 
    125 S125       -6.6893  -19.1964  -52.6395 S.3       23 UNK        -0.2404 
    126 C126       -7.6108  -19.4243  -51.0853 C.3       23 UNK        -0.0205 
    127 H127       -3.6298   -9.6784  -47.0579 H         1 UNK         0.0600 
    128 H128       -4.4381  -11.0763  -46.3434 H         1 UNK         0.0600 
    129 H129       -3.0157  -10.3832  -45.5586 H         1 UNK         0.0600 
    130 H130       -3.9694  -12.9814  -47.4160 H         1 UNK         0.3000 
    131 H131       -1.7843  -13.1729  -49.2713 H         1 UNK         0.0600 
    132 H132       -3.9428  -14.0916  -49.8585 H         1 UNK         0.0800 
    133 H133       -2.7233  -15.3114  -49.9122 H         1 UNK         0.0800 
    134 H134       -3.0205  -17.6696  -47.7617 H         1 UNK         0.0800 
    135 H135       -3.2385  -17.3856  -49.4662 H         1 UNK         0.0800 
    136 H136       -5.5776  -17.6701  -50.4876 H         1 UNK         0.1150 
    137 H137       -7.6225  -21.1112  -48.9494 H         1 UNK         0.1150 
    138 H138       -4.4378  -19.3264  -46.7082 H         1 UNK         0.1150 
    139 H139       -6.0105  -20.9643  -45.6558 H         1 UNK         0.0800 
    140 H140       -7.2798  -21.6962  -46.5950 H         1 UNK         0.0800 
    141 H141       -4.4236  -22.3476  -44.7554 H         1 UNK         0.0800 
    142 H142       -3.5927  -23.7190  -45.3952 H         1 UNK         0.0800 
    143 H143       -3.0510  -21.2938  -47.0128 H         1 UNK         0.0600 
    144 H144       -2.9055  -20.8590  -44.1880 H         1 UNK         0.3000 
    145 H145       -0.7495  -18.3060  -44.1738 H         1 UNK         0.0600 
    146 H146       -2.3522  -16.3794  -44.1111 H         1 UNK         0.0600 
    147 H147       -1.9459  -16.8412  -45.7590 H         1 UNK         0.0600 
    148 H148       -3.4948  -17.2931  -45.0933 H         1 UNK         0.0600 
    149 H149       -1.6644  -19.1086  -42.3311 H         1 UNK         0.3000 
    150 H150       -3.6494  -18.7190  -40.5645 H         1 UNK         0.0600 
    151 H151       -5.9904  -19.2870  -41.0890 H         1 UNK         0.0600 
    152 H152       -5.3605  -20.4326  -39.9167 H         1 UNK         0.0600 
    153 H153       -5.5342  -20.9030  -41.6070 H         1 UNK         0.0600 
    154 H154       -2.1760  -20.3171  -40.1377 H         1 UNK         0.3000 
    155 H155       -1.6424  -22.8828  -39.9577 H         1 UNK         0.0600 
    156 H156       -0.3163  -24.4142  -41.4700 H         1 UNK         0.0600 
    157 H157       -1.0907  -23.6605  -42.8642 H         1 UNK         0.0600 
    158 H158       -2.0538  -24.5491  -41.6991 H         1 UNK         0.0600 
    159 H159        0.2293  -21.7090  -40.0195 H         1 UNK         0.3000 
    160 H160        1.8322  -20.3905  -40.5153 H         1 UNK         0.0600 
    161 H161        2.6814  -20.6013  -43.4544 H         1 UNK         0.0600 
    162 H162        3.0675  -21.7582  -42.1887 H         1 UNK         0.0600 
    163 H163        3.7211  -20.1294  -42.1126 H         1 UNK         0.0600 
    164 H164        1.9944  -18.3692  -42.4685 H         1 UNK         0.3000 
    165 H165        0.0742  -16.5799  -42.7000 H         1 UNK         0.0600 
    166 H166       -0.5033  -15.8195  -39.7945 H         1 UNK         0.0600 
    167 H167       -0.7529  -14.7772  -41.1935 H         1 UNK         0.0600 
    168 H168       -1.6967  -16.2456  -41.0170 H         1 UNK         0.0600 
    169 H169        1.7564  -15.3331  -40.6924 H         1 UNK         0.3000 
    170 H170        3.6173  -14.3141  -41.4547 H         1 UNK         0.0600 
    171 H171        4.5313  -16.4455  -40.4238 H         1 UNK         0.0600 
    172 H172        5.3126  -16.8383  -41.9504 H         1 UNK         0.0600 
    173 H173        5.8187  -15.4224  -41.0311 H         1 UNK         0.0600 
    174 H174        4.0560  -15.0601  -44.1737 H         1 UNK         0.3000 
    175 H175        6.3644  -12.3518  -44.7837 H         1 UNK         0.0600 
    176 H176        6.5437  -15.3416  -45.4316 H         1 UNK         0.0600 
    177 H177        7.3829  -14.0401  -46.2763 H         1 UNK         0.0600 
    178 H178        7.7797  -14.4019  -44.6040 H         1 UNK         0.0600 
    179 H179        4.7713  -14.0226  -46.5045 H         1 UNK         0.3000 
    180 H180        2.6092  -11.3834  -47.3242 H         1 UNK         0.0600 
    181 H181        4.3042  -12.6697  -48.6527 H         1 UNK         0.0600 
    182 H182        3.5722  -14.1847  -48.1334 H         1 UNK         0.0600 
    183 H183        2.6554  -13.0526  -49.1151 H         1 UNK         0.0600 
    184 H184        0.7805  -12.4296  -46.6480 H         1 UNK         0.3000 
    185 H185        0.0010  -15.6837  -45.4652 H         1 UNK         0.0600 
    186 H186       -0.2758  -12.9062  -44.1833 H         1 UNK         0.0600 
    187 H187       -1.1257  -14.3718  -43.7035 H         1 UNK         0.0600 
    188 H188        0.6092  -14.2318  -43.4599 H         1 UNK         0.0600 
    189 H189       -1.6532  -13.4449  -46.0438 H         1 UNK         0.3000 
    190 H190       -0.7134  -22.3430  -44.5613 H         1 UNK         0.3000 
    191 H191        0.5762  -24.2507  -46.3871 H         1 UNK         0.0600 
    192 H192        2.3003  -24.4094  -44.6070 H         1 UNK         0.0600 
    193 H193        0.6925  -24.7122  -43.9807 H         1 UNK         0.0600 
    194 H194        1.4861  -23.1647  -43.6780 H         1 UNK         0.0600 
    195 H195        0.9328  -20.8580  -45.4091 H         1 UNK         0.3000 
    196 H196        3.3950  -20.3091  -46.7709 H         1 UNK         0.0600 
    197 H197        2.7034  -17.9374  -46.5307 H         1 UNK         0.0600 
    198 H198        2.4349  -18.8046  -45.0303 H         1 UNK         0.0600 
    199 H199        1.0768  -18.4186  -46.0831 H         1 UNK         0.0600 
    200 H200       -0.0052  -20.3137  -47.7825 H         1 UNK         0.3000 
    201 H201        0.5291  -19.5594  -50.5434 H         1 UNK         0.0600 
    202 H202       -1.5363  -18.9178  -49.3224 H         1 UNK         0.0600 
    203 H203       -2.0007  -20.6104  -49.1716 H         1 UNK         0.0600 
    204 H204       -1.9090  -19.8521  -50.7591 H         1 UNK         0.0600 
    205 H205        1.4054  -22.3268  -49.0742 H         1 UNK         0.3000 
    206 H206        1.8930  -24.4023  -49.6513 H         1 UNK         0.0600 
    207 H207        3.0427  -23.2336  -51.5463 H         1 UNK         0.0600 
    208 H208        2.5137  -24.8470  -51.9967 H         1 UNK         0.0600 
    209 H209        1.6104  -23.4462  -52.5516 H         1 UNK         0.0600 
    210 H210       -0.6171  -24.2428  -48.7831 H         1 UNK         0.3000 
    211 H211       -2.5209  -25.3045  -48.5307 H         1 UNK         0.0600 
    212 H212       -1.7286  -27.2894  -50.7262 H         1 UNK         0.0600 
    213 H213       -2.9940  -27.4917  -49.5258 H         1 UNK         0.0600 
    214 H214       -1.3129  -27.4506  -49.0199 H         1 UNK         0.0600 
    215 H215       -2.2977  -23.0406  -50.0244 H         1 UNK         0.3000 
    216 H216       -3.4254  -21.5591  -51.1984 H         1 UNK         0.0600 
    217 H217       -5.7166  -23.5659  -51.4340 H         1 UNK         0.0600 
    218 H218       -5.8108  -21.8253  -51.6419 H         1 UNK         0.0600 
    219 H219       -5.4434  -22.4948  -50.0635 H         1 UNK         0.0600 
    220 H220       -1.8567  -23.8832  -52.5982 H         1 UNK         0.3000 
    221 H221       -2.8960  -23.8697  -55.3121 H         1 UNK         0.0600 
    222 H222       -0.1905  -24.8362  -54.2538 H         1 UNK         0.0600 
    223 H223       -1.6511  -25.8218  -54.3317 H         1 UNK         0.0600 
    224 H224       -0.9099  -25.2235  -55.8096 H         1 UNK         0.0600 
    225 H225       -0.3536  -22.1004  -53.5030 H         1 UNK         0.3000 
    226 H226        0.7551  -20.8308  -55.8899 H         1 UNK         0.0600 
    227 H227        2.1458  -21.3367  -53.8546 H         1 UNK         0.0600 
    228 H228        2.1797  -19.6363  -54.2941 H         1 UNK         0.0600 
    229 H229        1.2032  -20.1632  -52.9349 H         1 UNK         0.0600 
    230 H230       -1.6844  -20.1079  -53.4612 H         1 UNK         0.3000 
    231 H231       -2.1613  -17.3545  -54.3439 H         1 UNK         0.0600 
    232 H232       -3.6840  -19.2114  -52.4453 H         1 UNK         0.0600 
    233 H233       -2.5515  -17.9328  -51.9948 H         1 UNK         0.0600 
    234 H234       -4.0844  -17.5227  -52.7381 H         1 UNK         0.0600 
    235 H235       -2.9934  -20.4576  -55.4790 H         1 UNK         0.3000 
    236 H236       -4.2421  -21.3156  -57.0669 H         1 UNK         0.0600 
    237 H237       -3.1680  -19.5539  -58.4690 H         1 UNK         0.0600 
    238 H238       -4.7745  -19.9537  -59.0548 H         1 UNK         0.0600 
    239 H239       -4.5187  -18.4645  -58.1557 H         1 UNK         0.0600 
    240 H240       -5.5452  -21.1365  -54.7403 H         1 UNK         0.3000 
    241 H241       -8.3692  -20.8624  -55.5450 H         1 UNK         0.0600 
    242 H242       -6.1486  -23.0216  -54.3250 H         1 UNK         0.3800 
    243 H243       -7.3040  -24.0027  -53.4612 H         1 UNK         0.3800 
    244 H244       -8.9433  -19.6213  -53.4410 H         1 UNK         0.0800 
    245 H245       -7.9978  -18.7087  -54.5748 H         1 UNK         0.0800 
    246 H246       -8.1449  -20.3747  -51.1351 H         1 UNK         0.0800 
    247 H247       -8.3644  -18.6413  -50.9943 H         1 UNK         0.0800 
@<TRIPOS>BOND
     1    1    2 1    
     2    1  127 1    
     3    1  128 1    
     4    1  129 1    
     5    2    3 2    
     6    2    4 am   BACKBONE|DICT|INTERRES
     7    4    5 1    
     8    4  130 1    
     9    5    6 1    
    10    5   65 1    
    11    5  131 1    
    12    6    7 1    
    13    6  132 1    
    14    6  133 1    
    15    7    8 1    
    16    8    9 1    
    17    8  134 1    
    18    8  135 1    
    19    9   10 ar   
    20    9   14 ar   
    21   10   11 ar   
    22   10  136 1    
    23   11   12 ar   
    24   11  126 1    
    25   12   13 ar   
    26   12  137 1    
    27   13   14 ar   
    28   13   15 1    
    29   14  138 1    
    30   15   16 1    
    31   15  139 1    
    32   15  140 1    
    33   16   17 1    
    34   17   18 1    
    35   17  141 1    
    36   17  142 1    
    37   18   19 1    
    38   18   67 1    
    39   18  143 1    
    40   19   20 am   BACKBONE|DICT|INTERRES
    41   19  144 1    
    42   20   21 2    
    43   20   22 1    
    44   22   23 1    
    45   22   24 1    
    46   22  145 1    
    47   23  146 1    
    48   23  147 1    
    49   23  148 1    
    50   24   25 am   BACKBONE|DICT|INTERRES
    51   24  149 1    
    52   25   26 2    
    53   25   27 1    
    54   27   28 1    
    55   27   29 1    
    56   27  150 1    
    57   28  151 1    
    58   28  152 1    
    59   28  153 1    
    60   29   30 am   BACKBONE|DICT|INTERRES
    61   29  154 1    
    62   30   31 2    
    63   30   32 1    
    64   32   33 1    
    65   32   34 1    
    66   32  155 1    
    67   33  156 1    
    68   33  157 1    
    69   33  158 1    
    70   34   35 am   BACKBONE|DICT|INTERRES
    71   34  159 1    
    72   35   36 2    
    73   35   37 1    
    74   37   38 1    
    75   37   39 1    
    76   37  160 1    
    77   38  161 1    
    78   38  162 1    
    79   38  163 1    
    80   39   40 am   BACKBONE|DICT|INTERRES
    81   39  164 1    
    82   40   41 2    
    83   40   42 1    
    84   42   43 1    
    85   42   44 1    
    86   42  165 1    
    87   43  166 1    
    88   43  167 1    
    89   43  168 1    
    90   44   45 am   BACKBONE|DICT|INTERRES
    91   44  169 1    
    92   45   46 2    
    93   45   47 1    
    94   47   48 1    
    95   47   49 1    
    96   47  170 1    
    97   48  171 1    
    98   48  172 1    
    99   48  173 1    
   100   49   50 am   BACKBONE|DICT|INTERRES
   101   49  174 1    
   102   50   51 2    
   103   50   52 1    
   104   52   53 1    
   105   52   54 1    
   106   52  175 1    
   107   53  176 1    
   108   53  177 1    
   109   53  178 1    
   110   54   55 am   BACKBONE|DICT|INTERRES
   111   54  179 1    
   112   55   56 2    
   113   55   57 1    
   114   57   58 1    
   115   57   59 1    
   116   57  180 1    
   117   58  181 1    
   118   58  182 1    
   119   58  183 1    
   120   59   60 am   BACKBONE|DICT|INTERRES
   121   59  184 1    
   122   60   61 2    
   123   60   62 1    
   124   62   63 1    
   125   62   64 1    
   126   62  185 1    
   127   63  186 1    
   128   63  187 1    
   129   63  188 1    
   130   64   65 am   BACKBONE|DICT|INTERRES
   131   64  189 1    
   132   65   66 2    
   133   67   68 2    
   134   67   69 am   BACKBONE|DICT|INTERRES
   135   69   70 1    
   136   69  190 1    
   137   70   71 1    
   138   70   72 1    
   139   70  191 1    
   140   71  192 1    
   141   71  193 1    
   142   71  194 1    
   143   72   73 2    
   144   72   74 am   BACKBONE|DICT|INTERRES
   145   74   75 1    
   146   74  195 1    
   147   75   76 1    
   148   75   77 1    
   149   75  196 1    
   150   76  197 1    
   151   76  198 1    
   152   76  199 1    
   153   77   78 2    
   154   77   79 am   BACKBONE|DICT|INTERRES
   155   79   80 1    
   156   79  200 1    
   157   80   81 1    
   158   80   82 1    
   159   80  201 1    
   160   81  202 1    
   161   81  203 1    
   162   81  204 1    
   163   82   83 2    
   164   82   84 am   BACKBONE|DICT|INTERRES
   165   84   85 1    
   166   84  205 1    
   167   85   86 1    
   168   85   87 1    
   169   85  206 1    
   170   86  207 1    
   171   86  208 1    
   172   86  209 1    
   173   87   88 2    
   174   87   89 am   BACKBONE|DICT|INTERRES
   175   89   90 1    
   176   89  210 1    
   177   90   91 1    
   178   90   92 1    
   179   90  211 1    
   180   91  212 1    
   181   91  213 1    
   182   91  214 1    
   183   92   93 2    
   184   92   94 am   BACKBONE|DICT|INTERRES
   185   94   95 1    
   186   94  215 1    
   187   95   96 1    
   188   95   97 1    
   189   95  216 1    
   190   96  217 1    
   191   96  218 1    
   192   96  219 1    
   193   97   98 2    
   194   97   99 am   BACKBONE|DICT|INTERRES
   195   99  100 1    
   196   99  220 1    
   197  100  101 1    
   198  100  102 1    
   199  100  221 1    
   200  101  222 1    
   201  101  223 1    
   202  101  224 1    
   203  102  103 2    
   204  102  104 am   BACKBONE|DICT|INTERRES
   205  104  105 1    
   206  104  225 1    
   207  105  106 1    
   208  105  107 1    
   209  105  226 1    
   210  106  227 1    
   211  106  228 1    
   212  106  229 1    
   213  107  108 2    
   214  107  109 am   BACKBONE|DICT|INTERRES
   215  109  110 1    
   216  109  230 1    
   217  110  111 1    
   218  110  112 1    
   219  110  231 1    
   220  111  232 1    
   221  111  233 1    
   222  111  234 1    
   223  112  113 2    
   224  112  114 am   BACKBONE|DICT|INTERRES
   225  114  115 1    
   226  114  235 1    
   227  115  116 1    
   228  115  117 1    
   229  115  236 1    
   230  116  237 1    
   231  116  238 1    
   232  116  239 1    
   233  117  118 2    
   234  117  119 am   BACKBONE|DICT|INTERRES
   235  119  120 1    
   236  119  240 1    
   237  120  121 1    
   238  120  124 1    
   239  120  241 1    
   240  121  122 am   BACKBONE|DICT|INTERRES
   241  121  123 2    
   242  122  242 1    
   243  122  243 1    
   244  124  125 1    
   245  124  244 1    
   246  124  245 1    
   247  125  126 1    
   248  126  246 1    
   249  126  247 1    
@<TRIPOS>SUBSTRUCTURE
     1 UNK         1 GROUP             0       ****    0 ROOT    
