@<TRIPOS>MOLECULE
3R540
247   249    1
SMALL
USER_CHARGES


@<TRIPOS>ATOM
      1 CA         -1.8038  -14.5584  -44.5342 C.3       0 UNK        -0.1800 
      2 C          -1.0514  -13.5013  -45.3245 C.2       0 UNK         0.5000 
      3 O          -1.0128  -12.3436  -44.9101 O.2       0 UNK        -0.5000 
      4 N          -0.4373  -13.9043  -46.4447 N.am      1 UNK        -0.5000 
      5 CA          0.2387  -13.0524  -47.4381 C.3       1 UNK         0.1400 
      6 C6          0.7818  -13.8885  -48.6229 C.3       23 UNK        -0.0398 
      7 S7         -0.5157  -14.8944  -49.4224 S.3       23 UNK        -0.2404 
      8 C8          0.3698  -15.5009  -50.8902 C.3       23 UNK        -0.0205 
      9 C9          0.6801  -16.9877  -50.8002 C.ar      23 UNK        -0.0193 
     10 C10        -0.1061  -17.9055  -51.5023 C.ar      23 UNK        -0.1150 
     11 C11         0.2192  -19.2635  -51.5021 C.ar      23 UNK        -0.0193 
     12 C12         1.3276  -19.7059  -50.7776 C.ar      23 UNK        -0.1150 
     13 C13         2.1146  -18.8037  -50.0540 C.ar      23 UNK        -0.0193 
     14 C14         1.7827  -17.4438  -50.0693 C.ar      23 UNK        -0.1150 
     15 C15         3.3678  -19.2745  -49.3215 C.3       23 UNK        -0.0205 
     16 S16         3.1470  -20.8294  -48.3915 S.3       23 UNK        -0.2404 
     17 C17         2.1153  -20.2702  -47.0007 C.3       23 UNK        -0.0398 
     18 CA          0.9520  -21.2404  -46.6799 C.3       11 UNK         0.1400 
     19 N           0.5905  -21.1791  -45.2609 N.am      11 UNK        -0.5000 
     20 C          -0.2938  -21.9768  -44.6462 C.2       10 UNK         0.5000 
     21 O          -0.8887  -22.9006  -45.1991 O.2       10 UNK        -0.5000 
     22 CA         -0.5947  -21.6546  -43.1717 C.3       10 UNK         0.1400 
     23 CB          0.4477  -22.2975  -42.2443 C.3       10 UNK        -0.1800 
     24 N          -0.6512  -20.2129  -42.9250 N.am      10 UNK        -0.5000 
     25 C          -1.6071  -19.4023  -43.4023 C.2       9 UNK         0.5000 
     26 O          -2.5627  -19.7886  -44.0724 O.2       9 UNK        -0.5000 
     27 CA         -1.4238  -17.8972  -43.1459 C.3       9 UNK         0.1400 
     28 CB         -1.7890  -17.5297  -41.6999 C.3       9 UNK        -0.1800 
     29 N          -0.0582  -17.4579  -43.4313 N.am      9 UNK        -0.5000 
     30 C           0.5246  -17.5092  -44.6375 C.2       8 UNK         0.5000 
     31 O          -0.0613  -17.8297  -45.6694 O.2       8 UNK        -0.5000 
     32 CA          2.0265  -17.1886  -44.6944 C.3       8 UNK         0.1400 
     33 CB          2.2547  -15.7368  -45.1184 C.3       8 UNK        -0.1800 
     34 N           2.7061  -17.4408  -43.4250 N.am      8 UNK        -0.5000 
     35 C           2.9413  -18.6644  -42.9276 C.2       7 UNK         0.5000 
     36 O           2.5315  -19.6933  -43.4685 O.2       7 UNK        -0.5000 
     37 CA          3.7186  -18.7516  -41.5964 C.3       7 UNK         0.1400 
     38 CB          4.6358  -19.9893  -41.5273 C.3       7 UNK        -0.1800 
     39 N           4.4471  -17.5200  -41.2659 N.am      7 UNK        -0.5000 
     40 C           5.4756  -16.9662  -41.9297 C.2       6 UNK         0.5000 
     41 O           6.0404  -17.5026  -42.8831 O.2       6 UNK        -0.5000 
     42 CA          5.9156  -15.5514  -41.4995 C.3       6 UNK         0.1400 
     43 CB          5.8323  -14.5851  -42.6918 C.3       6 UNK        -0.1800 
     44 N           5.0860  -15.0158  -40.4180 N.am      6 UNK        -0.5000 
     45 C           5.3775  -15.1001  -39.1128 C.2       5 UNK         0.5000 
     46 O           6.4204  -15.5860  -38.6743 O.2       5 UNK        -0.5000 
     47 CA          4.3090  -14.5843  -38.1266 C.3       5 UNK         0.1400 
     48 CB          4.5693  -13.1114  -37.7764 C.3       5 UNK        -0.1800 
     49 N           2.9369  -14.7187  -38.6242 N.am      5 UNK        -0.5000 
     50 C           2.3273  -15.8763  -38.9190 C.2       4 UNK         0.5000 
     51 O           2.8518  -16.9790  -38.7700 O.2       4 UNK        -0.5000 
     52 CA          0.9191  -15.7924  -39.5392 C.3       4 UNK         0.1400 
     53 CB         -0.1588  -16.0202  -38.4698 C.3       4 UNK        -0.1800 
     54 N           0.6562  -14.5250  -40.2265 N.am      4 UNK        -0.5000 
     55 C           1.2934  -14.1019  -41.3262 C.2       3 UNK         0.5000 
     56 O           2.1565  -14.7720  -41.9016 O.2       3 UNK        -0.5000 
     57 CA          0.8779  -12.7042  -41.8337 C.3       3 UNK         0.1400 
     58 CB          1.1918  -11.6080  -40.7932 C.3       3 UNK        -0.1800 
     59 N           1.4297  -12.3572  -43.1478 N.am      3 UNK        -0.5000 
     60 C           2.7091  -12.1220  -43.4835 C.2       2 UNK         0.5000 
     61 O           3.6380  -12.0881  -42.6763 O.2       2 UNK        -0.5000 
     62 CA          2.9868  -11.8926  -44.9841 C.3       2 UNK         0.1400 
     63 CB          4.4105  -12.3023  -45.4044 C.3       2 UNK        -0.1800 
     64 N           2.0123  -12.6237  -45.7935 N.am      2 UNK        -0.5000 
     65 C           1.3564  -12.1524  -46.8592 C.2       1 UNK         0.5000 
     66 O           1.5788  -11.0543  -47.3704 O.2       1 UNK        -0.5000 
     67 C          -0.2682  -21.0118  -47.6003 C.2       11 UNK         0.5000 
     68 O          -0.4973  -21.7977  -48.5204 O.2       11 UNK        -0.5000 
     69 N          -1.0600  -19.9734  -47.2977 N.am      12 UNK        -0.5000 
     70 CA         -2.3105  -19.6595  -47.9846 C.3       12 UNK         0.1400 
     71 CB         -2.7805  -18.2566  -47.5723 C.3       12 UNK        -0.1800 
     72 C          -3.4057  -20.7099  -47.7222 C.2       12 UNK         0.5000 
     73 O          -4.0718  -21.1372  -48.6658 O.2       12 UNK        -0.5000 
     74 N          -3.5560  -21.1394  -46.4599 N.am      13 UNK        -0.5000 
     75 CA         -4.5399  -22.1394  -46.0297 C.3       13 UNK         0.1400 
     76 CB         -4.5711  -22.2137  -44.4965 C.3       13 UNK        -0.1800 
     77 C          -4.3208  -23.5420  -46.6272 C.2       13 UNK         0.5000 
     78 O          -5.2847  -24.2978  -46.7429 O.2       13 UNK        -0.5000 
     79 N          -3.0791  -23.8644  -47.0149 N.am      14 UNK        -0.5000 
     80 CA         -2.7329  -25.0936  -47.7299 C.3       14 UNK         0.1400 
     81 CB         -1.2060  -25.2568  -47.7603 C.3       14 UNK        -0.1800 
     82 C          -3.3158  -25.1378  -49.1568 C.2       14 UNK         0.5000 
     83 O          -3.6556  -26.2209  -49.6346 O.2       14 UNK        -0.5000 
     84 N          -3.4357  -23.9685  -49.8016 N.am      15 UNK        -0.5000 
     85 CA         -4.0808  -23.8089  -51.1044 C.3       15 UNK         0.1400 
     86 CB         -3.4326  -22.6357  -51.8526 C.3       15 UNK        -0.1800 
     87 C          -5.5950  -23.5884  -50.9613 C.2       15 UNK         0.5000 
     88 O          -6.3644  -24.1151  -51.7677 O.2       15 UNK        -0.5000 
     89 N          -5.9882  -22.7920  -49.9534 N.am      16 UNK        -0.5000 
     90 CA         -7.3582  -22.4700  -49.5243 C.3       16 UNK         0.1400 
     91 CB         -8.0555  -23.7392  -48.9915 C.3       16 UNK        -0.1800 
     92 C          -8.2238  -21.7640  -50.5921 C.2       16 UNK         0.5000 
     93 O          -9.4461  -21.7203  -50.4481 O.2       16 UNK        -0.5000 
     94 N          -7.5838  -21.2750  -51.6656 N.am      17 UNK        -0.5000 
     95 CA         -8.1691  -20.8185  -52.9341 C.3       17 UNK         0.1400 
     96 CB         -9.0718  -19.5851  -52.7260 C.3       17 UNK        -0.1800 
     97 C          -8.8762  -21.9387  -53.7364 C.2       17 UNK         0.5000 
     98 O          -9.5196  -21.6460  -54.7451 O.2       17 UNK        -0.5000 
     99 N          -8.7291  -23.1975  -53.2997 N.am      18 UNK        -0.5000 
    100 CA        -9.2279  -24.3926  -53.9744 C.3       18 UNK         0.1400 
    101 CB        -9.5164  -25.4803  -52.9281 C.3       18 UNK        -0.1800 
    102 C         -8.2064  -24.8855  -55.0097 C.2       18 UNK         0.5000 
    103 O         -8.5933  -25.2824  -56.1098 O.2       18 UNK        -0.5000 
    104 N         -6.9160  -24.8132  -54.6534 N.am      19 UNK        -0.5000 
    105 CA        -5.7928  -25.0230  -55.5593 C.3       19 UNK         0.1400 
    106 CB        -4.5337  -25.3470  -54.7385 C.3       19 UNK        -0.1800 
    107 C         -5.6058  -23.7608  -56.4165 C.2       19 UNK         0.5000 
    108 O         -4.9522  -22.8125  -55.9765 O.2       19 UNK        -0.5000 
    109 N         -6.2068  -23.7544  -57.6130 N.am      20 UNK        -0.5000 
    110 CA        -6.2563  -22.6180  -58.5432 C.3       20 UNK         0.1400 
    111 CB        -7.1336  -23.0021  -59.7447 C.3       20 UNK        -0.1800 
    112 C         -4.8817  -22.1038  -59.0218 C.2       20 UNK         0.5000 
    113 O         -4.7856  -20.9639  -59.4776 O.2       20 UNK        -0.5000 
    114 N         -3.8435  -22.9396  -58.8901 N.am      21 UNK        -0.5000 
    115 CA        -2.4456  -22.6040  -59.1556 C.3       21 UNK         0.1400 
    116 CB        -1.6353  -23.9084  -59.2215 C.3       21 UNK        -0.1800 
    117 C         -1.8252  -21.6386  -58.1221 C.2       21 UNK         0.5000 
    118 O         -0.7791  -21.0576  -58.4155 O.2       21 UNK        -0.5000 
    119 N         -2.4491  -21.4885  -56.9445 N.am      22 UNK        -0.5000 
    120 CA        -1.9722  -20.6250  -55.8521 C.3       22 UNK         0.1400 
    121 C         -3.1003  -19.8041  -55.1656 C.2       22 UNK         0.5000 
    122 N         -4.3444  -20.2635  -55.1380 N.am      22 UNK        -0.7600 
    123 O         -2.8513  -18.7088  -54.6704 O.2       22 UNK        -0.5000 
    124 C124       -1.1317  -21.4343  -54.8294 C.3       23 UNK        -0.0398 
    125 S125        0.1310  -20.4280  -53.9841 S.3       23 UNK        -0.2404 
    126 C126       -0.5945  -20.2456  -52.3255 C.3       23 UNK        -0.0205 
    127 H127       -2.7920  -14.1911  -44.2577 H         1 UNK         0.0600 
    128 H128       -1.2607  -14.8024  -43.6216 H         1 UNK         0.0600 
    129 H129       -1.9344  -15.4686  -45.1192 H         1 UNK         0.0600 
    130 H130       -0.5325  -14.8708  -46.7251 H         1 UNK         0.3000 
    131 H131       -0.5246  -12.3772  -47.8304 H         1 UNK         0.0600 
    132 H132        1.5842  -14.5524  -48.2977 H         1 UNK         0.0800 
    133 H133        1.2135  -13.2277  -49.3772 H         1 UNK         0.0800 
    134 H134       -0.2444  -15.2989  -51.7692 H         1 UNK         0.0800 
    135 H135        1.2950  -14.9435  -51.0425 H         1 UNK         0.0800 
    136 H136       -0.9519  -17.5601  -52.0808 H         1 UNK         0.1150 
    137 H137        1.5884  -20.7547  -50.7972 H         1 UNK         0.1150 
    138 H138        2.3988  -16.7327  -49.5374 H         1 UNK         0.1150 
    139 H139        4.1562  -19.4240  -50.0601 H         1 UNK         0.0800 
    140 H140        3.7300  -18.5043  -48.6385 H         1 UNK         0.0800 
    141 H141        2.7864  -20.1926  -46.1444 H         1 UNK         0.0800 
    142 H142        1.7469  -19.2601  -47.1857 H         1 UNK         0.0800 
    143 H143        1.2991  -22.2615  -46.8533 H         1 UNK         0.0600 
    144 H144        1.0730  -20.4869  -44.6990 H         1 UNK         0.3000 
    145 H145       -1.5699  -22.0795  -42.9270 H         1 UNK         0.0600 
    146 H146        0.2098  -22.1142  -41.1964 H         1 UNK         0.0600 
    147 H147        0.4781  -23.3786  -42.3857 H         1 UNK         0.0600 
    148 H148        1.4514  -21.9156  -42.4323 H         1 UNK         0.0600 
    149 H149        0.1273  -19.8095  -42.4265 H         1 UNK         0.3000 
    150 H150       -2.1044  -17.3689  -43.8145 H         1 UNK         0.0600 
    151 H151       -2.8159  -17.8193  -41.4732 H         1 UNK         0.0600 
    152 H152       -1.7121  -16.4548  -41.5349 H         1 UNK         0.0600 
    153 H153       -1.1417  -18.0281  -40.9776 H         1 UNK         0.0600 
    154 H154        0.5057  -17.1657  -42.6480 H         1 UNK         0.3000 
    155 H155        2.4816  -17.8298  -45.4498 H         1 UNK         0.0600 
    156 H156        1.8857  -15.5762  -46.1309 H         1 UNK         0.0600 
    157 H157        3.3152  -15.4850  -45.1139 H         1 UNK         0.0600 
    158 H158        1.7358  -15.0465  -44.4552 H         1 UNK         0.0600 
    159 H159        3.0103  -16.6286  -42.9029 H         1 UNK         0.3000 
    160 H160        2.9611  -18.8671  -40.8204 H         1 UNK         0.0600 
    161 H161        5.1773  -20.0264  -40.5821 H         1 UNK         0.0600 
    162 H162        5.3671  -20.0011  -42.3356 H         1 UNK         0.0600 
    163 H163        4.0551  -20.9094  -41.6034 H         1 UNK         0.0600 
    164 H164        4.0801  -17.0176  -40.4663 H         1 UNK         0.3000 
    165 H165        6.9580  -15.6116  -41.1804 H         1 UNK         0.0600 
    166 H166        4.8196  -14.5393  -43.0935 H         1 UNK         0.0600 
    167 H167        6.1244  -13.5747  -42.4051 H         1 UNK         0.0600 
    168 H168        6.4934  -14.8958  -43.5016 H         1 UNK         0.0600 
    169 H169        4.2030  -14.6074  -40.6980 H         1 UNK         0.3000 
    170 H170        4.3921  -15.1756  -37.2124 H         1 UNK         0.0600 
    171 H171        5.5765  -12.9761  -37.3798 H         1 UNK         0.0600 
    172 H172        4.4713  -12.4668  -38.6510 H         1 UNK         0.0600 
    173 H173        3.8724  -12.7566  -37.0169 H         1 UNK         0.0600 
    174 H174        2.4288  -13.8611  -38.7805 H         1 UNK         0.3000 
    175 H175        0.8442  -16.5949  -40.2753 H         1 UNK         0.0600 
    176 H176       -0.1448  -15.2371  -37.7108 H         1 UNK         0.0600 
    177 H177       -1.1553  -16.0429  -38.9114 H         1 UNK         0.0600 
    178 H178       -0.0094  -16.9736  -37.9611 H         1 UNK         0.0600 
    179 H179       -0.0476  -13.9320  -39.8104 H         1 UNK         0.3000 
    180 H180       -0.2038  -12.7329  -41.9730 H         1 UNK         0.0600 
    181 H181        2.2446  -11.6017  -40.5094 H         1 UNK         0.0600 
    182 H182        0.6124  -11.7490  -39.8804 H         1 UNK         0.0600 
    183 H183        0.9438  -10.6186  -41.1776 H         1 UNK         0.0600 
    184 H184        0.7377  -12.3043  -43.8882 H         1 UNK         0.3000 
    185 H185        2.8754  -10.8192  -45.1499 H         1 UNK         0.0600 
    186 H186        5.1638  -11.7572  -44.8344 H         1 UNK         0.0600 
    187 H187        4.5848  -13.3667  -45.2490 H         1 UNK         0.0600 
    188 H188        4.5850  -12.0864  -46.4584 H         1 UNK         0.0600 
    189 H189        1.7594  -13.5377  -45.4475 H         1 UNK         0.3000 
    190 H190       -0.7818  -19.3376  -46.5548 H         1 UNK         0.3000 
    191 H191       -2.1111  -19.6470  -49.0585 H         1 UNK         0.0600 
    192 H192       -2.0406  -17.5017  -47.8403 H         1 UNK         0.0600 
    193 H193       -3.7119  -17.9922  -48.0742 H         1 UNK         0.0600 
    194 H194       -2.9520  -18.1883  -46.4972 H         1 UNK         0.0600 
    195 H195       -2.9987  -20.7146  -45.7240 H         1 UNK         0.3000 
    196 H196       -5.5204  -21.7984  -46.3685 H         1 UNK         0.0600 
    197 H197       -5.3102  -22.9388  -44.1535 H         1 UNK         0.0600 
    198 H198       -4.8373  -21.2514  -44.0594 H         1 UNK         0.0600 
    199 H199       -3.6048  -22.5143  -44.0923 H         1 UNK         0.0600 
    200 H200       -2.3211  -23.2261  -46.8031 H         1 UNK         0.3000 
    201 H201       -3.1517  -25.9354  -47.1746 H         1 UNK         0.0600 
    202 H202       -0.7907  -25.2772  -46.7526 H         1 UNK         0.0600 
    203 H203       -0.7243  -24.4448  -48.3049 H         1 UNK         0.0600 
    204 H204       -0.9236  -26.1908  -48.2476 H         1 UNK         0.0600 
    205 H205       -3.1548  -23.1216  -49.3246 H         1 UNK         0.3000 
    206 H206       -3.9295  -24.7127  -51.6979 H         1 UNK         0.0600 
    207 H207       -3.5060  -21.7021  -51.2939 H         1 UNK         0.0600 
    208 H208       -2.3770  -22.8373  -52.0292 H         1 UNK         0.0600 
    209 H209       -3.9042  -22.4750  -52.8230 H         1 UNK         0.0600 
    210 H210       -5.2589  -22.3297  -49.4143 H         1 UNK         0.3000 
    211 H211       -7.2593  -21.7676  -48.6957 H         1 UNK         0.0600 
    212 H212       -8.2598  -24.4533  -49.7900 H         1 UNK         0.0600 
    213 H213       -9.0078  -23.4972  -48.5184 H         1 UNK         0.0600 
    214 H214       -7.4462  -24.2434  -48.2430 H         1 UNK         0.0600 
    215 H215       -6.5775  -21.3604  -51.6641 H         1 UNK         0.3000 
    216 H216       -7.3259  -20.5041  -53.5506 H         1 UNK         0.0600 
    217 H217       -8.5582  -18.8117  -52.1550 H         1 UNK         0.0600 
    218 H218       -9.9926  -19.8369  -52.1998 H         1 UNK         0.0600 
    219 H219       -9.3567  -19.1450  -53.6823 H         1 UNK         0.0600 
    220 H220       -8.1318  -23.3586  -52.4971 H         1 UNK         0.3000 
    221 H221      -10.1601  -24.1596  -54.4935 H         1 UNK         0.0600 
    222 H222       -8.6190  -25.7577  -52.3734 H         1 UNK         0.0600 
    223 H223      -10.2625  -25.1439  -52.2079 H         1 UNK         0.0600 
    224 H224       -9.9035  -26.3835  -53.4013 H         1 UNK         0.0600 
    225 H225       -6.6897  -24.4840  -53.7208 H         1 UNK         0.3000 
    226 H226       -6.0010  -25.8740  -56.2112 H         1 UNK         0.0600 
    227 H227       -4.6785  -26.2393  -54.1293 H         1 UNK         0.0600 
    228 H228       -3.6803  -25.5317  -55.3920 H         1 UNK         0.0600 
    229 H229       -4.2633  -24.5288  -54.0724 H         1 UNK         0.0600 
    230 H230       -6.7574  -24.5615  -57.8720 H         1 UNK         0.3000 
    231 H231       -6.7393  -21.7909  -58.0189 H         1 UNK         0.0600 
    232 H232       -7.2259  -22.1710  -60.4453 H         1 UNK         0.0600 
    233 H233       -8.1418  -23.2701  -59.4277 H         1 UNK         0.0600 
    234 H234       -6.7162  -23.8484  -60.2919 H         1 UNK         0.0600 
    235 H235       -4.0234  -23.8586  -58.5143 H         1 UNK         0.3000 
    236 H236       -2.3908  -22.1169  -60.1314 H         1 UNK         0.0600 
    237 H237       -2.0176  -24.5725  -59.9970 H         1 UNK         0.0600 
    238 H238       -1.6623  -24.4467  -58.2732 H         1 UNK         0.0600 
    239 H239       -0.5887  -23.7082  -59.4554 H         1 UNK         0.0600 
    240 H240       -3.3150  -21.9873  -56.7745 H         1 UNK         0.3000 
    241 H241       -1.3197  -19.8694  -56.2943 H         1 UNK         0.0600 
    242 H242       -5.0559  -19.6924  -54.7139 H         1 UNK         0.3800 
    243 H243       -4.5861  -21.1899  -55.4863 H         1 UNK         0.3800 
    244 H244       -0.5861  -22.2266  -55.3438 H         1 UNK         0.0800 
    245 H245       -1.7697  -21.9451  -54.1092 H         1 UNK         0.0800 
    246 H246       -1.6276  -19.9036  -52.4046 H         1 UNK         0.0800 
    247 H247       -0.6212  -21.2153  -51.8264 H         1 UNK         0.0800 
@<TRIPOS>BOND
     1    1    2 1    
     2    1  127 1    
     3    1  128 1    
     4    1  129 1    
     5    2    3 2    
     6    2    4 am   BACKBONE|DICT|INTERRES
     7    4    5 1    
     8    4  130 1    
     9    5    6 1    
    10    5   65 1    
    11    5  131 1    
    12    6    7 1    
    13    6  132 1    
    14    6  133 1    
    15    7    8 1    
    16    8    9 1    
    17    8  134 1    
    18    8  135 1    
    19    9   10 ar   
    20    9   14 ar   
    21   10   11 ar   
    22   10  136 1    
    23   11   12 ar   
    24   11  126 1    
    25   12   13 ar   
    26   12  137 1    
    27   13   14 ar   
    28   13   15 1    
    29   14  138 1    
    30   15   16 1    
    31   15  139 1    
    32   15  140 1    
    33   16   17 1    
    34   17   18 1    
    35   17  141 1    
    36   17  142 1    
    37   18   19 1    
    38   18   67 1    
    39   18  143 1    
    40   19   20 am   BACKBONE|DICT|INTERRES
    41   19  144 1    
    42   20   21 2    
    43   20   22 1    
    44   22   23 1    
    45   22   24 1    
    46   22  145 1    
    47   23  146 1    
    48   23  147 1    
    49   23  148 1    
    50   24   25 am   BACKBONE|DICT|INTERRES
    51   24  149 1    
    52   25   26 2    
    53   25   27 1    
    54   27   28 1    
    55   27   29 1    
    56   27  150 1    
    57   28  151 1    
    58   28  152 1    
    59   28  153 1    
    60   29   30 am   BACKBONE|DICT|INTERRES
    61   29  154 1    
    62   30   31 2    
    63   30   32 1    
    64   32   33 1    
    65   32   34 1    
    66   32  155 1    
    67   33  156 1    
    68   33  157 1    
    69   33  158 1    
    70   34   35 am   BACKBONE|DICT|INTERRES
    71   34  159 1    
    72   35   36 2    
    73   35   37 1    
    74   37   38 1    
    75   37   39 1    
    76   37  160 1    
    77   38  161 1    
    78   38  162 1    
    79   38  163 1    
    80   39   40 am   BACKBONE|DICT|INTERRES
    81   39  164 1    
    82   40   41 2    
    83   40   42 1    
    84   42   43 1    
    85   42   44 1    
    86   42  165 1    
    87   43  166 1    
    88   43  167 1    
    89   43  168 1    
    90   44   45 am   BACKBONE|DICT|INTERRES
    91   44  169 1    
    92   45   46 2    
    93   45   47 1    
    94   47   48 1    
    95   47   49 1    
    96   47  170 1    
    97   48  171 1    
    98   48  172 1    
    99   48  173 1    
   100   49   50 am   BACKBONE|DICT|INTERRES
   101   49  174 1    
   102   50   51 2    
   103   50   52 1    
   104   52   53 1    
   105   52   54 1    
   106   52  175 1    
   107   53  176 1    
   108   53  177 1    
   109   53  178 1    
   110   54   55 am   BACKBONE|DICT|INTERRES
   111   54  179 1    
   112   55   56 2    
   113   55   57 1    
   114   57   58 1    
   115   57   59 1    
   116   57  180 1    
   117   58  181 1    
   118   58  182 1    
   119   58  183 1    
   120   59   60 am   BACKBONE|DICT|INTERRES
   121   59  184 1    
   122   60   61 2    
   123   60   62 1    
   124   62   63 1    
   125   62   64 1    
   126   62  185 1    
   127   63  186 1    
   128   63  187 1    
   129   63  188 1    
   130   64   65 am   BACKBONE|DICT|INTERRES
   131   64  189 1    
   132   65   66 2    
   133   67   68 2    
   134   67   69 am   BACKBONE|DICT|INTERRES
   135   69   70 1    
   136   69  190 1    
   137   70   71 1    
   138   70   72 1    
   139   70  191 1    
   140   71  192 1    
   141   71  193 1    
   142   71  194 1    
   143   72   73 2    
   144   72   74 am   BACKBONE|DICT|INTERRES
   145   74   75 1    
   146   74  195 1    
   147   75   76 1    
   148   75   77 1    
   149   75  196 1    
   150   76  197 1    
   151   76  198 1    
   152   76  199 1    
   153   77   78 2    
   154   77   79 am   BACKBONE|DICT|INTERRES
   155   79   80 1    
   156   79  200 1    
   157   80   81 1    
   158   80   82 1    
   159   80  201 1    
   160   81  202 1    
   161   81  203 1    
   162   81  204 1    
   163   82   83 2    
   164   82   84 am   BACKBONE|DICT|INTERRES
   165   84   85 1    
   166   84  205 1    
   167   85   86 1    
   168   85   87 1    
   169   85  206 1    
   170   86  207 1    
   171   86  208 1    
   172   86  209 1    
   173   87   88 2    
   174   87   89 am   BACKBONE|DICT|INTERRES
   175   89   90 1    
   176   89  210 1    
   177   90   91 1    
   178   90   92 1    
   179   90  211 1    
   180   91  212 1    
   181   91  213 1    
   182   91  214 1    
   183   92   93 2    
   184   92   94 am   BACKBONE|DICT|INTERRES
   185   94   95 1    
   186   94  215 1    
   187   95   96 1    
   188   95   97 1    
   189   95  216 1    
   190   96  217 1    
   191   96  218 1    
   192   96  219 1    
   193   97   98 2    
   194   97   99 am   BACKBONE|DICT|INTERRES
   195   99  100 1    
   196   99  220 1    
   197  100  101 1    
   198  100  102 1    
   199  100  221 1    
   200  101  222 1    
   201  101  223 1    
   202  101  224 1    
   203  102  103 2    
   204  102  104 am   BACKBONE|DICT|INTERRES
   205  104  105 1    
   206  104  225 1    
   207  105  106 1    
   208  105  107 1    
   209  105  226 1    
   210  106  227 1    
   211  106  228 1    
   212  106  229 1    
   213  107  108 2    
   214  107  109 am   BACKBONE|DICT|INTERRES
   215  109  110 1    
   216  109  230 1    
   217  110  111 1    
   218  110  112 1    
   219  110  231 1    
   220  111  232 1    
   221  111  233 1    
   222  111  234 1    
   223  112  113 2    
   224  112  114 am   BACKBONE|DICT|INTERRES
   225  114  115 1    
   226  114  235 1    
   227  115  116 1    
   228  115  117 1    
   229  115  236 1    
   230  116  237 1    
   231  116  238 1    
   232  116  239 1    
   233  117  118 2    
   234  117  119 am   BACKBONE|DICT|INTERRES
   235  119  120 1    
   236  119  240 1    
   237  120  121 1    
   238  120  124 1    
   239  120  241 1    
   240  121  122 am   BACKBONE|DICT|INTERRES
   241  121  123 2    
   242  122  242 1    
   243  122  243 1    
   244  124  125 1    
   245  124  244 1    
   246  124  245 1    
   247  125  126 1    
   248  126  246 1    
   249  126  247 1    
@<TRIPOS>SUBSTRUCTURE
     1 UNK         1 GROUP             0       ****    0 ROOT    
