@<TRIPOS>MOLECULE
3R540
247   249    1
SMALL
USER_CHARGES


@<TRIPOS>ATOM
      1 CA          0.2385   -8.1046  -45.9541 C.3       0 UNK        -0.1800 
      2 C           1.0164   -9.0588  -46.8492 C.2       0 UNK         0.5000 
      3 O           1.9854   -8.6466  -47.4870 O.2       0 UNK        -0.5000 
      4 N           0.5944  -10.3294  -46.8994 N.am      1 UNK        -0.5000 
      5 CA          1.2335  -11.4032  -47.6722 C.3       1 UNK         0.1400 
      6 C6          0.2984  -12.6337  -47.7719 C.3       23 UNK        -0.0398 
      7 S7          0.7800  -13.8233  -49.0667 S.3       23 UNK        -0.2404 
      8 C8         -0.1880  -15.2782  -48.5611 C.3       23 UNK        -0.0205 
      9 C9          0.1560  -16.4863  -49.4147 C.ar      23 UNK        -0.0193 
     10 C10        -0.6152  -16.8076  -50.5340 C.ar      23 UNK        -0.1150 
     11 C11        -0.2941  -17.9144  -51.3268 C.ar      23 UNK        -0.0193 
     12 C12         0.8173  -18.6980  -50.9915 C.ar      23 UNK        -0.1150 
     13 C13         1.6079  -18.3740  -49.8826 C.ar      23 UNK        -0.0193 
     14 C14         1.2630  -17.2740  -49.0930 C.ar      23 UNK        -0.1150 
     15 C15         2.8795  -19.1561  -49.5752 C.3       23 UNK        -0.0205 
     16 S16         2.5750  -20.7916  -48.8366 S.3       23 UNK        -0.2404 
     17 C17         1.7987  -20.3731  -47.2353 C.3       23 UNK        -0.0398 
     18 CA          0.5662  -21.2570  -46.9338 C.3       11 UNK         0.1400 
     19 N           0.1217  -21.1337  -45.5445 N.am      11 UNK        -0.5000 
     20 C          -0.7943  -21.9246  -44.9670 C.2       10 UNK         0.5000 
     21 O          -1.3365  -22.8736  -45.5335 O.2       10 UNK        -0.5000 
     22 CA         -1.2090  -21.5707  -43.5286 C.3       10 UNK         0.1400 
     23 CB         -0.1519  -22.0465  -42.5211 C.3       10 UNK        -0.1800 
     24 N          -1.4566  -20.1396  -43.3515 N.am      10 UNK        -0.5000 
     25 C          -2.4187  -19.4543  -43.9867 C.2       9 UNK         0.5000 
     26 O          -3.2264  -19.9656  -44.7622 O.2       9 UNK        -0.5000 
     27 CA         -2.4618  -17.9346  -43.7505 C.3       9 UNK         0.1400 
     28 CB         -3.1367  -17.6096  -42.4098 C.3       9 UNK        -0.1800 
     29 N          -1.1384  -17.3126  -43.8024 N.am      9 UNK        -0.5000 
     30 C          -0.3403  -17.3136  -44.8795 C.2       8 UNK         0.5000 
     31 O          -0.6392  -17.8247  -45.9571 O.2       8 UNK        -0.5000 
     32 CA          1.0475  -16.6731  -44.7149 C.3       8 UNK         0.1400 
     33 CB          0.9471  -15.1397  -44.6875 C.3       8 UNK        -0.1800 
     34 N           1.7496  -17.1519  -43.5248 N.am      8 UNK        -0.5000 
     35 C           2.0566  -18.4343  -43.2822 C.2       7 UNK         0.5000 
     36 O           1.8632  -19.3519  -44.0795 O.2       7 UNK        -0.5000 
     37 CA          2.6192  -18.7512  -41.8876 C.3       7 UNK         0.1400 
     38 CB          4.1242  -18.4536  -41.8209 C.3       7 UNK        -0.1800 
     39 N           1.9152  -18.0094  -40.8404 N.am      7 UNK        -0.5000 
     40 C           0.6478  -18.2471  -40.4720 C.2       6 UNK         0.5000 
     41 O          -0.0501  -19.1364  -40.9586 O.2       6 UNK        -0.5000 
     42 CA          0.0475  -17.3117  -39.4069 C.3       6 UNK         0.1400 
     43 CB          0.4568  -17.7622  -37.9968 C.3       6 UNK        -0.1800 
     44 N           0.4326  -15.9134  -39.6013 N.am      6 UNK        -0.5000 
     45 C           0.0444  -15.1595  -40.6393 C.2       5 UNK         0.5000 
     46 O          -0.7026  -15.5580  -41.5322 O.2       5 UNK        -0.5000 
     47 CA          0.6251  -13.7351  -40.7165 C.3       5 UNK         0.1400 
     48 CB         -0.2317  -12.7576  -39.8990 C.3       5 UNK        -0.1800 
     49 N           2.0208  -13.6360  -40.2801 N.am      5 UNK        -0.5000 
     50 C           3.0468  -14.3174  -40.8060 C.2       4 UNK         0.5000 
     51 O           2.9241  -15.1593  -41.6981 O.2       4 UNK        -0.5000 
     52 CA          4.4431  -13.9549  -40.2716 C.3       4 UNK         0.1400 
     53 CB          5.4669  -15.0814  -40.4943 C.3       4 UNK        -0.1800 
     54 N           4.9098  -12.7518  -40.9514 N.am      4 UNK        -0.5000 
     55 C           4.5792  -11.4960  -40.6211 C.2       3 UNK         0.5000 
     56 O           3.9463  -11.1983  -39.6072 O.2       3 UNK        -0.5000 
     57 CA          4.9928  -10.3970  -41.6200 C.3       3 UNK         0.1400 
     58 CB          6.3940   -9.8616  -41.2884 C.3       3 UNK        -0.1800 
     59 N           4.9694  -10.8727  -43.0075 N.am      3 UNK        -0.5000 
     60 C           3.8497  -11.1795  -43.6757 C.2       2 UNK         0.5000 
     61 O           2.7116  -11.0016  -43.2310 O.2       2 UNK        -0.5000 
     62 CA          4.0346  -11.8315  -45.0520 C.3       2 UNK         0.1400 
     63 CB          4.4320  -13.3128  -44.9003 C.3       2 UNK        -0.1800 
     64 N           2.7786  -11.7060  -45.7829 N.am      2 UNK        -0.5000 
     65 C           2.6314  -11.7640  -47.1119 C.2       1 UNK         0.5000 
     66 O           3.5504  -12.0356  -47.8862 O.2       1 UNK        -0.5000 
     67 C          -0.5882  -21.0108  -47.9248 C.2       11 UNK         0.5000 
     68 O          -0.7746  -21.8181  -48.8344 O.2       11 UNK        -0.5000 
     69 N          -1.3708  -19.9453  -47.7031 N.am      12 UNK        -0.5000 
     70 CA         -2.5416  -19.6064  -48.5093 C.3       12 UNK         0.1400 
     71 CB         -3.1236  -18.2611  -48.0516 C.3       12 UNK        -0.1800 
     72 C          -3.6149  -20.7078  -48.4872 C.2       12 UNK         0.5000 
     73 O          -4.1181  -21.0777  -49.5459 O.2       12 UNK        -0.5000 
     74 N          -3.9095  -21.2470  -47.2951 N.am      13 UNK        -0.5000 
     75 CA         -4.8330  -22.3650  -47.0983 C.3       13 UNK         0.1400 
     76 CB         -5.0547  -22.5950  -45.5959 C.3       13 UNK        -0.1800 
     77 C          -4.3609  -23.6586  -47.7864 C.2       13 UNK         0.5000 
     78 O          -5.1628  -24.3194  -48.4478 O.2       13 UNK        -0.5000 
     79 N          -3.0664  -23.9800  -47.6489 N.am      14 UNK        -0.5000 
     80 CA         -2.4280  -25.1233  -48.3010 C.3       14 UNK         0.1400 
     81 CB         -0.9980  -25.2977  -47.7683 C.3       14 UNK        -0.1800 
     82 C          -2.4339  -25.0021  -49.8343 C.2       14 UNK         0.5000 
     83 O          -2.7985  -25.9600  -50.5148 O.2       14 UNK        -0.5000 
     84 N          -2.0744  -23.8188  -50.3485 N.am      15 UNK        -0.5000 
     85 CA         -2.0867  -23.4918  -51.7729 C.3       15 UNK         0.1400 
     86 CB         -1.4269  -22.1238  -51.9897 C.3       15 UNK        -0.1800 
     87 C          -3.5014  -23.5289  -52.3761 C.2       15 UNK         0.5000 
     88 O          -3.6777  -24.0763  -53.4642 O.2       15 UNK        -0.5000 
     89 N          -4.4911  -22.9974  -51.6443 N.am      16 UNK        -0.5000 
     90 CA         -5.9066  -23.0439  -52.0086 C.3       16 UNK         0.1400 
     91 CB         -6.7338  -22.2120  -51.0180 C.3       16 UNK        -0.1800 
     92 C          -6.4582  -24.4759  -52.0904 C.2       16 UNK         0.5000 
     93 O          -7.2231  -24.7725  -53.0066 O.2       16 UNK        -0.5000 
     94 N          -6.0495  -25.3411  -51.1540 N.am      17 UNK        -0.5000 
     95 CA         -6.4078  -26.7575  -51.1434 C.3       17 UNK         0.1400 
     96 CB         -6.0671  -27.3614  -49.7722 C.3       17 UNK        -0.1800 
     97 C          -5.7261  -27.5474  -52.2764 C.2       17 UNK         0.5000 
     98 O          -6.3808  -28.3650  -52.9243 O.2       17 UNK        -0.5000 
     99 N          -4.4261  -27.3014  -52.4839 N.am      18 UNK        -0.5000 
    100 CA        -3.5906  -28.0390  -53.4285 C.3       18 UNK         0.1400 
    101 CB        -2.1126  -27.8587  -53.0472 C.3       18 UNK        -0.1800 
    102 C         -3.8124  -27.6441  -54.8983 C.2       18 UNK         0.5000 
    103 O         -3.9168  -28.5312  -55.7468 O.2       18 UNK        -0.5000 
    104 N         -3.8317  -26.3354  -55.1815 N.am      19 UNK        -0.5000 
    105 CA        -3.7301  -25.7884  -56.5380 C.3       19 UNK         0.1400 
    106 CB        -2.4676  -24.9112  -56.6059 C.3       19 UNK        -0.1800 
    107 C         -4.9734  -24.9989  -56.9861 C.2       19 UNK         0.5000 
    108 O         -4.9959  -24.5518  -58.1335 O.2       19 UNK        -0.5000 
    109 N         -5.9718  -24.8562  -56.1002 N.am      20 UNK        -0.5000 
    110 CA        -7.2045  -24.0659  -56.2309 C.3       20 UNK         0.1400 
    111 CB        -7.9967  -24.4077  -57.5084 C.3       20 UNK        -0.1800 
    112 C         -6.9385  -22.5525  -56.1185 C.2       20 UNK         0.5000 
    113 O         -6.0274  -22.0313  -56.7670 O.2       20 UNK        -0.5000 
    114 N         -7.7489  -21.8730  -55.2925 N.am      21 UNK        -0.5000 
    115 CA        -7.7352  -20.4391  -54.9565 C.3       21 UNK         0.1400 
    116 CB        -8.0229  -19.5650  -56.1932 C.3       21 UNK        -0.1800 
    117 C         -6.4590  -19.9850  -54.2189 C.2       21 UNK         0.5000 
    118 O         -6.5429  -19.5426  -53.0749 O.2       21 UNK        -0.5000 
    119 N         -5.3113  -20.1393  -54.8799 N.am      22 UNK        -0.5000 
    120 CA        -3.9464  -20.0043  -54.3576 C.3       22 UNK         0.1400 
    121 C         -2.8881  -20.6080  -55.3324 C.2       22 UNK         0.5000 
    122 N         -3.2605  -21.3970  -56.3359 N.am      22 UNK        -0.7600 
    123 O         -1.6957  -20.3580  -55.1908 O.2       22 UNK        -0.5000 
    124 C124       -3.5980  -18.5575  -53.8886 C.3       23 UNK        -0.0398 
    125 S125       -2.8684  -18.5184  -52.2138 S.3       23 UNK        -0.2404 
    126 C126       -1.1091  -18.2161  -52.5793 C.3       23 UNK        -0.0205 
    127 H127       -0.5999   -8.6000  -45.4639 H         1 UNK         0.0600 
    128 H128       -0.1535   -7.2742  -46.5413 H         1 UNK         0.0600 
    129 H129        0.8921   -7.6992  -45.1817 H         1 UNK         0.0600 
    130 H130       -0.2142  -10.5971  -46.3563 H         1 UNK         0.3000 
    131 H131        1.3834  -11.0176  -48.6833 H         1 UNK         0.0600 
    132 H132        0.2343  -13.1393  -46.8098 H         1 UNK         0.0800 
    133 H133       -0.7159  -12.3078  -48.0079 H         1 UNK         0.0800 
    134 H134       -1.2531  -15.0521  -48.6316 H         1 UNK         0.0800 
    135 H135        0.0110  -15.5101  -47.5156 H         1 UNK         0.0800 
    136 H136       -1.4632  -16.1906  -50.7960 H         1 UNK         0.1150 
    137 H137        1.0877  -19.5433  -51.6087 H         1 UNK         0.1150 
    138 H138        1.8720  -17.0102  -48.2399 H         1 UNK         0.1150 
    139 H139        3.4409  -19.2936  -50.5003 H         1 UNK         0.0800 
    140 H140        3.5317  -18.5853  -48.9123 H         1 UNK         0.0800 
    141 H141        1.5332  -19.3166  -47.1928 H         1 UNK         0.0800 
    142 H142        2.5552  -20.5211  -46.4638 H         1 UNK         0.0800 
    143 H143        0.8757  -22.2969  -47.0603 H         1 UNK         0.0600 
    144 H144        0.5459  -20.3887  -44.9980 H         1 UNK         0.3000 
    145 H145       -2.1413  -22.0973  -43.3143 H         1 UNK         0.0600 
    146 H146        0.7960  -21.5245  -42.6541 H         1 UNK         0.0600 
    147 H147       -0.4832  -21.8810  -41.4959 H         1 UNK         0.0600 
    148 H148        0.0414  -23.1141  -42.6323 H         1 UNK         0.0600 
    149 H149       -0.8568  -19.6523  -42.6926 H         1 UNK         0.3000 
    150 H150       -3.0638  -17.4943  -44.5479 H         1 UNK         0.0600 
    151 H151       -4.1290  -18.0587  -42.3521 H         1 UNK         0.0600 
    152 H152       -3.2587  -16.5339  -42.2816 H         1 UNK         0.0600 
    153 H153       -2.5563  -17.9827  -41.5655 H         1 UNK         0.0600 
    154 H154       -0.8332  -16.8269  -42.9631 H         1 UNK         0.3000 
    155 H155        1.6356  -16.9582  -45.5897 H         1 UNK         0.0600 
    156 H156        1.8436  -14.6846  -45.1039 H         1 UNK         0.0600 
    157 H157        0.1016  -14.7831  -45.2739 H         1 UNK         0.0600 
    158 H158        0.8137  -14.7572  -43.6774 H         1 UNK         0.0600 
    159 H159        1.9904  -16.4580  -42.8228 H         1 UNK         0.3000 
    160 H160        2.4774  -19.8180  -41.7021 H         1 UNK         0.0600 
    161 H161        4.6707  -19.0616  -42.5428 H         1 UNK         0.0600 
    162 H162        4.5295  -18.6773  -40.8340 H         1 UNK         0.0600 
    163 H163        4.3412  -17.4098  -42.0462 H         1 UNK         0.0600 
    164 H164        2.3971  -17.2164  -40.4437 H         1 UNK         0.3000 
    165 H165       -1.0400  -17.3771  -39.4828 H         1 UNK         0.0600 
    166 H166       -0.0283  -17.1546  -37.2327 H         1 UNK         0.0600 
    167 H167        0.1660  -18.7985  -37.8192 H         1 UNK         0.0600 
    168 H168        1.5349  -17.6933  -37.8468 H         1 UNK         0.0600 
    169 H169        1.0503  -15.5063  -38.9147 H         1 UNK         0.3000 
    170 H170        0.5891  -13.4197  -41.7606 H         1 UNK         0.0600 
    171 H171       -1.2748  -12.7925  -40.2167 H         1 UNK         0.0600 
    172 H172       -0.2042  -12.9906  -38.8338 H         1 UNK         0.0600 
    173 H173        0.1114  -11.7308  -40.0276 H         1 UNK         0.0600 
    174 H174        2.2264  -12.9252  -39.5908 H         1 UNK         0.3000 
    175 H175        4.3693  -13.7723  -39.1973 H         1 UNK         0.0600 
    176 H176        5.6158  -15.2927  -41.5540 H         1 UNK         0.0600 
    177 H177        6.4356  -14.8204  -40.0680 H         1 UNK         0.0600 
    178 H178        5.1403  -16.0052  -40.0153 H         1 UNK         0.0600 
    179 H179        5.4061  -12.8972  -41.8175 H         1 UNK         0.3000 
    180 H180        4.2806   -9.5745  -41.5247 H         1 UNK         0.0600 
    181 H181        7.1554  -10.6372  -41.3801 H         1 UNK         0.0600 
    182 H182        6.4341   -9.4816  -40.2666 H         1 UNK         0.0600 
    183 H183        6.6691   -9.0402  -41.9502 H         1 UNK         0.0600 
    184 H184        5.8654  -11.0311  -43.4461 H         1 UNK         0.3000 
    185 H185        4.8145  -11.2917  -45.5933 H         1 UNK         0.0600 
    186 H186        4.4202  -13.8355  -45.8567 H         1 UNK         0.0600 
    187 H187        5.4408  -13.4041  -44.4970 H         1 UNK         0.0600 
    188 H188        3.7656  -13.8417  -44.2182 H         1 UNK         0.0600 
    189 H189        1.9991  -11.4211  -45.2022 H         1 UNK         0.3000 
    190 H190       -1.1365  -19.3002  -46.9517 H         1 UNK         0.3000 
    191 H191       -2.1993  -19.4968  -49.5390 H         1 UNK         0.0600 
    192 H192       -3.4579  -18.2978  -47.0146 H         1 UNK         0.0600 
    193 H193       -3.9785  -17.9783  -48.6668 H         1 UNK         0.0600 
    194 H194       -2.3853  -17.4644  -48.1360 H         1 UNK         0.0600 
    195 H195       -3.4733  -20.8642  -46.4605 H         1 UNK         0.3000 
    196 H196       -5.7903  -22.0854  -47.5428 H         1 UNK         0.0600 
    197 H197       -5.7456  -23.4213  -45.4241 H         1 UNK         0.0600 
    198 H198       -5.4802  -21.7106  -45.1215 H         1 UNK         0.0600 
    199 H199       -4.1222  -22.8324  -45.0827 H         1 UNK         0.0600 
    200 H200       -2.4734  -23.4018  -47.0607 H         1 UNK         0.3000 
    201 H201       -2.9976  -26.0170  -48.0379 H         1 UNK         0.0600 
    202 H202       -0.9979  -25.4714  -46.6921 H         1 UNK         0.0600 
    203 H203       -0.3838  -24.4183  -47.9639 H         1 UNK         0.0600 
    204 H204       -0.5082  -26.1524  -48.2364 H         1 UNK         0.0600 
    205 H205       -1.7539  -23.0840  -49.7196 H         1 UNK         0.3000 
    206 H206       -1.4863  -24.2427  -52.2905 H         1 UNK         0.0600 
    207 H207       -0.4056  -22.1117  -51.6087 H         1 UNK         0.0600 
    208 H208       -1.3778  -21.8796  -53.0495 H         1 UNK         0.0600 
    209 H209       -1.9776  -21.3277  -51.4880 H         1 UNK         0.0600 
    210 H210       -4.2629  -22.5096  -50.7810 H         1 UNK         0.3000 
    211 H211       -6.0026  -22.5975  -52.9987 H         1 UNK         0.0600 
    212 H212       -6.6733  -22.6121  -50.0057 H         1 UNK         0.0600 
    213 H213       -7.7858  -22.1952  -51.3048 H         1 UNK         0.0600 
    214 H214       -6.3907  -21.1785  -50.9862 H         1 UNK         0.0600 
    215 H215       -5.4581  -25.0091  -50.3994 H         1 UNK         0.3000 
    216 H216       -7.4878  -26.8367  -51.2853 H         1 UNK         0.0600 
    217 H217       -6.3407  -28.4164  -49.7306 H         1 UNK         0.0600 
    218 H218       -6.6077  -26.8528  -48.9737 H         1 UNK         0.0600 
    219 H219       -5.0020  -27.2885  -49.5509 H         1 UNK         0.0600 
    220 H220       -3.9471  -26.6464  -51.8708 H         1 UNK         0.3000 
    221 H221       -3.8270  -29.1012  -53.3338 H         1 UNK         0.0600 
    222 H222       -1.8133  -26.8102  -53.0799 H         1 UNK         0.0600 
    223 H223       -1.9181  -28.2295  -52.0407 H         1 UNK         0.0600 
    224 H224       -1.4614  -28.4087  -53.7278 H         1 UNK         0.0600 
    225 H225       -3.7597  -25.6549  -54.4269 H         1 UNK         0.3000 
    226 H226       -3.6071  -26.5917  -57.2670 H         1 UNK         0.0600 
    227 H227       -1.5738  -25.4924  -56.3793 H         1 UNK         0.0600 
    228 H228       -2.3323  -24.4857  -57.6010 H         1 UNK         0.0600 
    229 H229       -2.5146  -24.0844  -55.8973 H         1 UNK         0.0600 
    230 H230       -5.8283  -25.2648  -55.1868 H         1 UNK         0.3000 
    231 H231       -7.8349  -24.3620  -55.3940 H         1 UNK         0.0600 
    232 H232       -8.9869  -23.9517  -57.4792 H         1 UNK         0.0600 
    233 H233       -8.1370  -25.4836  -57.6120 H         1 UNK         0.0600 
    234 H234       -7.5047  -24.0420  -58.4098 H         1 UNK         0.0600 
    235 H235       -8.4513  -22.4058  -54.7979 H         1 UNK         0.3000 
    236 H236       -8.5633  -20.2920  -54.2610 H         1 UNK         0.0600 
    237 H237       -8.0802  -18.5112  -55.9181 H         1 UNK         0.0600 
    238 H238       -8.9758  -19.8333  -56.6492 H         1 UNK         0.0600 
    239 H239       -7.2507  -19.6591  -56.9569 H         1 UNK         0.0600 
    240 H240       -5.3789  -20.5474  -55.8064 H         1 UNK         0.3000 
    241 H241       -3.9157  -20.6648  -53.4898 H         1 UNK         0.0600 
    242 H242       -2.5447  -21.7516  -56.9487 H         1 UNK         0.3800 
    243 H243       -4.2238  -21.6762  -56.4966 H         1 UNK         0.3800 
    244 H244       -2.9451  -18.0454  -54.5973 H         1 UNK         0.0800 
    245 H245       -4.4932  -17.9369  -53.8452 H         1 UNK         0.0800 
    246 H246       -0.7023  -19.0841  -53.0991 H         1 UNK         0.0800 
    247 H247       -1.0193  -17.3713  -53.2633 H         1 UNK         0.0800 
@<TRIPOS>BOND
     1    1    2 1    
     2    1  127 1    
     3    1  128 1    
     4    1  129 1    
     5    2    3 2    
     6    2    4 am   BACKBONE|DICT|INTERRES
     7    4    5 1    
     8    4  130 1    
     9    5    6 1    
    10    5   65 1    
    11    5  131 1    
    12    6    7 1    
    13    6  132 1    
    14    6  133 1    
    15    7    8 1    
    16    8    9 1    
    17    8  134 1    
    18    8  135 1    
    19    9   10 ar   
    20    9   14 ar   
    21   10   11 ar   
    22   10  136 1    
    23   11   12 ar   
    24   11  126 1    
    25   12   13 ar   
    26   12  137 1    
    27   13   14 ar   
    28   13   15 1    
    29   14  138 1    
    30   15   16 1    
    31   15  139 1    
    32   15  140 1    
    33   16   17 1    
    34   17   18 1    
    35   17  141 1    
    36   17  142 1    
    37   18   19 1    
    38   18   67 1    
    39   18  143 1    
    40   19   20 am   BACKBONE|DICT|INTERRES
    41   19  144 1    
    42   20   21 2    
    43   20   22 1    
    44   22   23 1    
    45   22   24 1    
    46   22  145 1    
    47   23  146 1    
    48   23  147 1    
    49   23  148 1    
    50   24   25 am   BACKBONE|DICT|INTERRES
    51   24  149 1    
    52   25   26 2    
    53   25   27 1    
    54   27   28 1    
    55   27   29 1    
    56   27  150 1    
    57   28  151 1    
    58   28  152 1    
    59   28  153 1    
    60   29   30 am   BACKBONE|DICT|INTERRES
    61   29  154 1    
    62   30   31 2    
    63   30   32 1    
    64   32   33 1    
    65   32   34 1    
    66   32  155 1    
    67   33  156 1    
    68   33  157 1    
    69   33  158 1    
    70   34   35 am   BACKBONE|DICT|INTERRES
    71   34  159 1    
    72   35   36 2    
    73   35   37 1    
    74   37   38 1    
    75   37   39 1    
    76   37  160 1    
    77   38  161 1    
    78   38  162 1    
    79   38  163 1    
    80   39   40 am   BACKBONE|DICT|INTERRES
    81   39  164 1    
    82   40   41 2    
    83   40   42 1    
    84   42   43 1    
    85   42   44 1    
    86   42  165 1    
    87   43  166 1    
    88   43  167 1    
    89   43  168 1    
    90   44   45 am   BACKBONE|DICT|INTERRES
    91   44  169 1    
    92   45   46 2    
    93   45   47 1    
    94   47   48 1    
    95   47   49 1    
    96   47  170 1    
    97   48  171 1    
    98   48  172 1    
    99   48  173 1    
   100   49   50 am   BACKBONE|DICT|INTERRES
   101   49  174 1    
   102   50   51 2    
   103   50   52 1    
   104   52   53 1    
   105   52   54 1    
   106   52  175 1    
   107   53  176 1    
   108   53  177 1    
   109   53  178 1    
   110   54   55 am   BACKBONE|DICT|INTERRES
   111   54  179 1    
   112   55   56 2    
   113   55   57 1    
   114   57   58 1    
   115   57   59 1    
   116   57  180 1    
   117   58  181 1    
   118   58  182 1    
   119   58  183 1    
   120   59   60 am   BACKBONE|DICT|INTERRES
   121   59  184 1    
   122   60   61 2    
   123   60   62 1    
   124   62   63 1    
   125   62   64 1    
   126   62  185 1    
   127   63  186 1    
   128   63  187 1    
   129   63  188 1    
   130   64   65 am   BACKBONE|DICT|INTERRES
   131   64  189 1    
   132   65   66 2    
   133   67   68 2    
   134   67   69 am   BACKBONE|DICT|INTERRES
   135   69   70 1    
   136   69  190 1    
   137   70   71 1    
   138   70   72 1    
   139   70  191 1    
   140   71  192 1    
   141   71  193 1    
   142   71  194 1    
   143   72   73 2    
   144   72   74 am   BACKBONE|DICT|INTERRES
   145   74   75 1    
   146   74  195 1    
   147   75   76 1    
   148   75   77 1    
   149   75  196 1    
   150   76  197 1    
   151   76  198 1    
   152   76  199 1    
   153   77   78 2    
   154   77   79 am   BACKBONE|DICT|INTERRES
   155   79   80 1    
   156   79  200 1    
   157   80   81 1    
   158   80   82 1    
   159   80  201 1    
   160   81  202 1    
   161   81  203 1    
   162   81  204 1    
   163   82   83 2    
   164   82   84 am   BACKBONE|DICT|INTERRES
   165   84   85 1    
   166   84  205 1    
   167   85   86 1    
   168   85   87 1    
   169   85  206 1    
   170   86  207 1    
   171   86  208 1    
   172   86  209 1    
   173   87   88 2    
   174   87   89 am   BACKBONE|DICT|INTERRES
   175   89   90 1    
   176   89  210 1    
   177   90   91 1    
   178   90   92 1    
   179   90  211 1    
   180   91  212 1    
   181   91  213 1    
   182   91  214 1    
   183   92   93 2    
   184   92   94 am   BACKBONE|DICT|INTERRES
   185   94   95 1    
   186   94  215 1    
   187   95   96 1    
   188   95   97 1    
   189   95  216 1    
   190   96  217 1    
   191   96  218 1    
   192   96  219 1    
   193   97   98 2    
   194   97   99 am   BACKBONE|DICT|INTERRES
   195   99  100 1    
   196   99  220 1    
   197  100  101 1    
   198  100  102 1    
   199  100  221 1    
   200  101  222 1    
   201  101  223 1    
   202  101  224 1    
   203  102  103 2    
   204  102  104 am   BACKBONE|DICT|INTERRES
   205  104  105 1    
   206  104  225 1    
   207  105  106 1    
   208  105  107 1    
   209  105  226 1    
   210  106  227 1    
   211  106  228 1    
   212  106  229 1    
   213  107  108 2    
   214  107  109 am   BACKBONE|DICT|INTERRES
   215  109  110 1    
   216  109  230 1    
   217  110  111 1    
   218  110  112 1    
   219  110  231 1    
   220  111  232 1    
   221  111  233 1    
   222  111  234 1    
   223  112  113 2    
   224  112  114 am   BACKBONE|DICT|INTERRES
   225  114  115 1    
   226  114  235 1    
   227  115  116 1    
   228  115  117 1    
   229  115  236 1    
   230  116  237 1    
   231  116  238 1    
   232  116  239 1    
   233  117  118 2    
   234  117  119 am   BACKBONE|DICT|INTERRES
   235  119  120 1    
   236  119  240 1    
   237  120  121 1    
   238  120  124 1    
   239  120  241 1    
   240  121  122 am   BACKBONE|DICT|INTERRES
   241  121  123 2    
   242  122  242 1    
   243  122  243 1    
   244  124  125 1    
   245  124  244 1    
   246  124  245 1    
   247  125  126 1    
   248  126  246 1    
   249  126  247 1    
@<TRIPOS>SUBSTRUCTURE
     1 UNK         1 GROUP             0       ****    0 ROOT    
