@<TRIPOS>MOLECULE
3R540
247   249    1
SMALL
USER_CHARGES


@<TRIPOS>ATOM
      1 CA          2.3638  -17.4133  -51.9462 C.3       0 UNK        -0.1800 
      2 C           2.5022  -16.1834  -52.8434 C.2       0 UNK         0.5000 
      3 O           2.7568  -16.3360  -54.0360 O.2       0 UNK        -0.5000 
      4 N           2.3300  -14.9542  -52.3373 N.am      1 UNK        -0.5000 
      5 CA          2.1218  -14.5980  -50.9315 C.3       1 UNK         0.1400 
      6 C6          1.4859  -13.1891  -50.7950 C.3       23 UNK        -0.0398 
      7 S7          0.4760  -13.0249  -49.2832 S.3       23 UNK        -0.2404 
      8 C8         -1.2034  -13.3035  -49.9373 C.3       23 UNK        -0.0205 
      9 C9         -1.3929  -14.7446  -50.3843 C.ar      23 UNK        -0.0193 
     10 C10        -1.2337  -15.1008  -51.7259 C.ar      23 UNK        -0.1150 
     11 C11        -1.3454  -16.4353  -52.1255 C.ar      23 UNK        -0.0193 
     12 C12        -1.6362  -17.4183  -51.1730 C.ar      23 UNK        -0.1150 
     13 C13        -1.8169  -17.0690  -49.8305 C.ar      23 UNK        -0.0193 
     14 C14        -1.6994  -15.7309  -49.4459 C.ar      23 UNK        -0.1150 
     15 C15        -2.1277  -18.1235  -48.7815 C.3       23 UNK        -0.0205 
     16 S16        -0.6350  -18.5524  -47.8366 S.3       23 UNK        -0.2404 
     17 C17        -1.3171  -19.2618  -46.2957 C.3       23 UNK        -0.0398 
     18 CA         -0.8666  -20.7304  -46.0881 C.3       11 UNK         0.1400 
     19 N          -0.3574  -20.9838  -44.7350 N.am      11 UNK        -0.5000 
     20 C           0.3723  -22.0598  -44.4044 C.2       10 UNK         0.5000 
     21 O           0.7236  -22.9160  -45.2136 O.2       10 UNK        -0.5000 
     22 CA          0.7061  -22.2505  -42.9169 C.3       10 UNK         0.1400 
     23 CB          1.9311  -21.4204  -42.5033 C.3       10 UNK        -0.1800 
     24 N          -0.4448  -21.9242  -42.0753 N.am      10 UNK        -0.5000 
     25 C          -1.5423  -22.6914  -41.9950 C.2       9 UNK         0.5000 
     26 O          -1.6508  -23.7774  -42.5648 O.2       9 UNK        -0.5000 
     27 CA         -2.7293  -22.1438  -41.1783 C.3       9 UNK         0.1400 
     28 CB         -2.6253  -22.5971  -39.7148 C.3       9 UNK        -0.1800 
     29 N          -2.8359  -20.6846  -41.2211 N.am      9 UNK        -0.5000 
     30 C          -3.1148  -19.9603  -42.3154 C.2       8 UNK         0.5000 
     31 O          -3.3624  -20.4499  -43.4155 O.2       8 UNK        -0.5000 
     32 CA         -3.0218  -18.4285  -42.1677 C.3       8 UNK         0.1400 
     33 CB         -4.3620  -17.8451  -41.6982 C.3       8 UNK        -0.1800 
     34 N          -1.9568  -18.0244  -41.2436 N.am      8 UNK        -0.5000 
     35 C          -0.6594  -18.2817  -41.4513 C.2       7 UNK         0.5000 
     36 O          -0.2330  -18.8094  -42.4803 O.2       7 UNK        -0.5000 
     37 CA          0.2882  -18.0161  -40.2770 C.3       7 UNK         0.1400 
     38 CB          0.3017  -19.2461  -39.3445 C.3       7 UNK        -0.1800 
     39 N           1.6311  -17.7317  -40.7759 N.am      7 UNK        -0.5000 
     40 C           2.6468  -17.2760  -40.0293 C.2       6 UNK         0.5000 
     41 O           2.5687  -17.0604  -38.8191 O.2       6 UNK        -0.5000 
     42 CA          3.9605  -16.9639  -40.7620 C.3       6 UNK         0.1400 
     43 CB          4.6502  -18.2446  -41.2620 C.3       6 UNK        -0.1800 
     44 N           3.7071  -16.0531  -41.8753 N.am      6 UNK        -0.5000 
     45 C           3.6022  -14.7215  -41.7469 C.2       5 UNK         0.5000 
     46 O           3.8330  -14.1175  -40.6985 O.2       5 UNK        -0.5000 
     47 CA          3.1548  -13.9206  -42.9855 C.3       5 UNK         0.1400 
     48 CB          4.3694  -13.3172  -43.7069 C.3       5 UNK        -0.1800 
     49 N           2.3760  -14.7273  -43.9261 N.am      5 UNK        -0.5000 
     50 C           1.1072  -15.1095  -43.7123 C.2       4 UNK         0.5000 
     51 O           0.4424  -14.7449  -42.7421 O.2       4 UNK        -0.5000 
     52 CA          0.4733  -16.0805  -44.7290 C.3       4 UNK         0.1400 
     53 CB         -0.4114  -15.3156  -45.7240 C.3       4 UNK        -0.1800 
     54 N           1.4382  -16.8949  -45.4725 N.am      4 UNK        -0.5000 
     55 C           2.3122  -17.7523  -44.9274 C.2       3 UNK         0.5000 
     56 O           2.3890  -17.9692  -43.7193 O.2       3 UNK        -0.5000 
     57 CA          3.3297  -18.4123  -45.8772 C.3       3 UNK         0.1400 
     58 CB          2.8359  -19.7847  -46.3540 C.3       3 UNK        -0.1800 
     59 N           3.6888  -17.5941  -47.0417 N.am      3 UNK        -0.5000 
     60 C           4.2789  -16.3909  -46.9751 C.2       2 UNK         0.5000 
     61 O           4.4725  -15.7802  -45.9249 O.2       2 UNK        -0.5000 
     62 CA          4.6891  -15.7557  -48.3065 C.3       2 UNK         0.1400 
     63 CB          5.7313  -16.6178  -49.0479 C.3       2 UNK        -0.1800 
     64 N           3.5052  -15.5325  -49.1324 N.am      2 UNK        -0.5000 
     65 C           3.4601  -14.6962  -50.1751 C.2       1 UNK         0.5000 
     66 O           4.4214  -14.0279  -50.5628 O.2       1 UNK        -0.5000 
     67 C          -1.9538  -21.7433  -46.5071 C.2       11 UNK         0.5000 
     68 O          -2.0371  -22.0839  -47.6871 O.2       11 UNK        -0.5000 
     69 N          -2.7415  -22.2441  -45.5441 N.am      12 UNK        -0.5000 
     70 CA         -3.6958  -23.3389  -45.7338 C.3       12 UNK         0.1400 
     71 CB         -4.5839  -23.4986  -44.4914 C.3       12 UNK        -0.1800 
     72 C          -3.0029  -24.6633  -46.0945 C.2       12 UNK         0.5000 
     73 O          -3.4789  -25.3713  -46.9804 O.2       12 UNK        -0.5000 
     74 N          -1.8730  -24.9552  -45.4388 N.am      13 UNK        -0.5000 
     75 CA         -1.0314  -26.1094  -45.7481 C.3       13 UNK         0.1400 
     76 CB         -0.0388  -26.3422  -44.5984 C.3       13 UNK        -0.1800 
     77 C          -0.2948  -25.9559  -47.0931 C.2       13 UNK         0.5000 
     78 O          -0.2448  -26.9106  -47.8694 O.2       13 UNK        -0.5000 
     79 N           0.2706  -24.7661  -47.3371 N.am      14 UNK        -0.5000 
     80 CA          1.1100  -24.4756  -48.4977 C.3       14 UNK         0.1400 
     81 CB          1.9678  -23.2331  -48.2077 C.3       14 UNK        -0.1800 
     82 C           0.3281  -24.2850  -49.8091 C.2       14 UNK         0.5000 
     83 O           0.7646  -24.7974  -50.8410 O.2       14 UNK        -0.5000 
     84 N          -0.7714  -23.5206  -49.7642 N.am      15 UNK        -0.5000 
     85 CA         -1.4407  -22.9855  -50.9537 C.3       15 UNK         0.1400 
     86 CB         -1.0085  -21.5171  -51.1295 C.3       15 UNK        -0.1800 
     87 C          -2.9748  -23.1036  -50.9163 C.2       15 UNK         0.5000 
     88 O          -3.6161  -22.6633  -51.8677 O.2       15 UNK        -0.5000 
     89 N          -3.5437  -23.6798  -49.8474 N.am      16 UNK        -0.5000 
     90 CA         -4.9856  -23.7833  -49.5726 C.3       16 UNK         0.1400 
     91 CB         -5.7432  -24.5231  -50.6966 C.3       16 UNK        -0.1800 
     92 C          -5.6395  -22.4384  -49.1841 C.2       16 UNK         0.5000 
     93 O          -6.8538  -22.2855  -49.3279 O.2       16 UNK        -0.5000 
     94 N          -4.8357  -21.5073  -48.6458 N.am      17 UNK        -0.5000 
     95 CA         -5.2339  -20.2164  -48.0748 C.3       17 UNK         0.1400 
     96 CB         -5.9172  -20.4190  -46.7037 C.3       17 UNK        -0.1800 
     97 C          -6.0528  -19.3606  -49.0629 C.2       17 UNK         0.5000 
     98 O          -5.5139  -18.9420  -50.0859 O.2       17 UNK        -0.5000 
     99 N          -7.3362  -19.1294  -48.7576 N.am      18 UNK        -0.5000 
    100 CA        -8.2728  -18.3594  -49.5777 C.3       18 UNK         0.1400 
    101 CB        -9.5447  -18.0950  -48.7569 C.3       18 UNK        -0.1800 
    102 C         -8.6278  -19.0256  -50.9229 C.2       18 UNK         0.5000 
    103 O         -9.0853  -18.3301  -51.8303 O.2       18 UNK        -0.5000 
    104 N         -8.4141  -20.3441  -51.0386 N.am      19 UNK        -0.5000 
    105 CA        -8.6522  -21.1176  -52.2581 C.3       19 UNK         0.1400 
    106 CB        -9.0805  -22.5434  -51.8723 C.3       19 UNK        -0.1800 
    107 C         -7.4376  -21.1355  -53.2099 C.2       19 UNK         0.5000 
    108 O         -7.5159  -21.7834  -54.2553 O.2       19 UNK        -0.5000 
    109 N         -6.3416  -20.4482  -52.8515 N.am      20 UNK        -0.5000 
    110 CA        -5.1297  -20.3281  -53.6624 C.3       20 UNK         0.1400 
    111 CB        -4.0550  -19.5664  -52.8705 C.3       20 UNK        -0.1800 
    112 C         -5.3912  -19.6198  -55.0039 C.2       20 UNK         0.5000 
    113 O         -6.0054  -18.5503  -55.0234 O.2       20 UNK        -0.5000 
    114 N         -4.8992  -20.2193  -56.0953 N.am      21 UNK        -0.5000 
    115 CA        -4.9342  -19.6333  -57.4371 C.3       21 UNK         0.1400 
    116 CB        -4.7759  -20.7505  -58.4801 C.3       21 UNK        -0.1800 
    117 C         -3.8470  -18.5585  -57.6261 C.2       21 UNK         0.5000 
    118 O         -4.0554  -17.6130  -58.3870 O.2       21 UNK        -0.5000 
    119 N         -2.7158  -18.7296  -56.9256 N.am      22 UNK        -0.5000 
    120 CA        -1.5534  -17.8229  -56.8926 C.3       22 UNK         0.1400 
    121 C         -0.7748  -17.6985  -58.2401 C.2       22 UNK         0.5000 
    122 N         -0.9376  -18.6170  -59.1846 N.am      22 UNK        -0.7600 
    123 O          0.0147  -16.7764  -58.4265 O.2       22 UNK        -0.5000 
    124 C124       -1.8770  -16.4394  -56.2595 C.3       23 UNK        -0.0398 
    125 S125       -2.6039  -16.5525  -54.5867 S.3       23 UNK        -0.2404 
    126 C126       -1.1096  -16.8033  -53.5814 C.3       23 UNK        -0.0205 
    127 H127        1.4345  -17.3940  -51.3777 H         1 UNK         0.0600 
    128 H128        3.2028  -17.4852  -51.2551 H         1 UNK         0.0600 
    129 H129        2.3538  -18.3215  -52.5491 H         1 UNK         0.0600 
    130 H130        2.4603  -14.1679  -52.9570 H         1 UNK         0.3000 
    131 H131        1.4246  -15.3207  -50.5060 H         1 UNK         0.0600 
    132 H132        2.2403  -12.4000  -50.8049 H         1 UNK         0.0800 
    133 H133        0.8461  -12.9759  -51.6519 H         1 UNK         0.0800 
    134 H134       -1.9292  -13.0645  -49.1586 H         1 UNK         0.0800 
    135 H135       -1.4018  -12.6137  -50.7591 H         1 UNK         0.0800 
    136 H136       -0.9986  -14.3432  -52.4600 H         1 UNK         0.1150 
    137 H137       -1.7155  -18.4529  -51.4739 H         1 UNK         0.1150 
    138 H138       -1.8267  -15.4572  -48.4090 H         1 UNK         0.1150 
    139 H139       -2.8960  -17.7364  -48.1112 H         1 UNK         0.0800 
    140 H140       -2.5331  -19.0210  -49.2503 H         1 UNK         0.0800 
    141 H141       -0.9482  -18.6376  -45.4817 H         1 UNK         0.0800 
    142 H142       -2.4026  -19.1541  -46.2627 H         1 UNK         0.0800 
    143 H143       -0.0244  -20.9229  -46.7540 H         1 UNK         0.0600 
    144 H144       -0.5807  -20.3066  -44.0148 H         1 UNK         0.3000 
    145 H145        0.9544  -23.3033  -42.7647 H         1 UNK         0.0600 
    146 H146        2.1756  -21.5723  -41.4521 H         1 UNK         0.0600 
    147 H147        2.8073  -21.7083  -43.0853 H         1 UNK         0.0600 
    148 H148        1.7783  -20.3544  -42.6602 H         1 UNK         0.0600 
    149 H149       -0.4435  -21.0164  -41.6350 H         1 UNK         0.3000 
    150 H150       -3.6455  -22.5601  -41.6011 H         1 UNK         0.0600 
    151 H151       -2.5690  -23.6844  -39.6463 H         1 UNK         0.0600 
    152 H152       -3.4970  -22.2819  -39.1410 H         1 UNK         0.0600 
    153 H153       -1.7373  -22.1910  -39.2286 H         1 UNK         0.0600 
    154 H154       -2.6538  -20.1940  -40.3587 H         1 UNK         0.3000 
    155 H155       -2.7925  -18.0139  -43.1519 H         1 UNK         0.0600 
    156 H156       -4.3258  -16.7562  -41.6601 H         1 UNK         0.0600 
    157 H157       -4.6358  -18.2076  -40.7066 H         1 UNK         0.0600 
    158 H158       -5.1668  -18.1187  -42.3819 H         1 UNK         0.0600 
    159 H159       -2.2463  -17.5954  -40.3762 H         1 UNK         0.3000 
    160 H160       -0.0730  -17.1424  -39.7308 H         1 UNK         0.0600 
    161 H161        0.7331  -20.1180  -39.8372 H         1 UNK         0.0600 
    162 H162       -0.7061  -19.5134  -39.0248 H         1 UNK         0.0600 
    163 H163        0.8776  -19.0601  -38.4385 H         1 UNK         0.0600 
    164 H164        1.7598  -17.8798  -41.7749 H         1 UNK         0.3000 
    165 H165        4.6393  -16.4834  -40.0540 H         1 UNK         0.0600 
    166 H166        4.0155  -18.8266  -41.9294 H         1 UNK         0.0600 
    167 H167        5.5719  -18.0123  -41.7956 H         1 UNK         0.0600 
    168 H168        4.9138  -18.8910  -40.4242 H         1 UNK         0.0600 
    169 H169        3.4377  -16.4846  -42.7515 H         1 UNK         0.3000 
    170 H170        2.5273  -13.0966  -42.6392 H         1 UNK         0.0600 
    171 H171        4.8983  -12.6191  -43.0568 H         1 UNK         0.0600 
    172 H172        5.0832  -14.0847  -44.0068 H         1 UNK         0.0600 
    173 H173        4.0694  -12.7678  -44.5993 H         1 UNK         0.0600 
    174 H174        2.8763  -15.0880  -44.7309 H         1 UNK         0.3000 
    175 H175       -0.1658  -16.7584  -44.1622 H         1 UNK         0.0600 
    176 H176       -1.1147  -14.6626  -45.2055 H         1 UNK         0.0600 
    177 H177        0.1799  -14.6943  -46.3978 H         1 UNK         0.0600 
    178 H178       -1.0015  -16.0039  -46.3264 H         1 UNK         0.0600 
    179 H179        1.4453  -16.7825  -46.4743 H         1 UNK         0.3000 
    180 H180        4.2415  -18.5703  -45.2974 H         1 UNK         0.0600 
    181 H181        1.9742  -19.6947  -47.0133 H         1 UNK         0.0600 
    182 H182        2.5473  -20.4109  -45.5100 H         1 UNK         0.0600 
    183 H183        3.6161  -20.3180  -46.8972 H         1 UNK         0.0600 
    184 H184        3.5745  -18.0310  -47.9443 H         1 UNK         0.3000 
    185 H185        5.1424  -14.7891  -48.0749 H         1 UNK         0.0600 
    186 H186        6.5736  -16.8580  -48.3977 H         1 UNK         0.0600 
    187 H187        5.3069  -17.5586  -49.3995 H         1 UNK         0.0600 
    188 H188        6.1357  -16.0940  -49.9140 H         1 UNK         0.0600 
    189 H189        2.6665  -16.0168  -48.8460 H         1 UNK         0.3000 
    190 H190       -2.6986  -21.8308  -44.6180 H         1 UNK         0.3000 
    191 H191       -4.3473  -23.0760  -46.5645 H         1 UNK         0.0600 
    192 H192       -5.3772  -24.2238  -44.6764 H         1 UNK         0.0600 
    193 H193       -5.0620  -22.5582  -44.2176 H         1 UNK         0.0600 
    194 H194       -4.0197  -23.8520  -43.6303 H         1 UNK         0.0600 
    195 H195       -1.5641  -24.3445  -44.6921 H         1 UNK         0.3000 
    196 H196       -1.6731  -26.9904  -45.8183 H         1 UNK         0.0600 
    197 H197        0.5778  -27.2216  -44.7880 H         1 UNK         0.0600 
    198 H198       -0.5609  -26.5071  -43.6556 H         1 UNK         0.0600 
    199 H199        0.6327  -25.4943  -44.4625 H         1 UNK         0.0600 
    200 H200        0.2416  -24.0554  -46.6101 H         1 UNK         0.3000 
    201 H201        1.7905  -25.3180  -48.6403 H         1 UNK         0.0600 
    202 H202        2.5866  -23.3775  -47.3218 H         1 UNK         0.0600 
    203 H203        1.3534  -22.3476  -48.0450 H         1 UNK         0.0600 
    204 H204        2.6383  -23.0171  -49.0404 H         1 UNK         0.0600 
    205 H205       -1.0699  -23.1219  -48.8773 H         1 UNK         0.3000 
    206 H206       -1.1304  -23.5367  -51.8434 H         1 UNK         0.0600 
    207 H207        0.0738  -21.4331  -51.2285 H         1 UNK         0.0600 
    208 H208       -1.4477  -21.0774  -52.0255 H         1 UNK         0.0600 
    209 H209       -1.3129  -20.9075  -50.2782 H         1 UNK         0.0600 
    210 H210       -2.9365  -24.0311  -49.1197 H         1 UNK         0.3000 
    211 H211       -5.0765  -24.4073  -48.6856 H         1 UNK         0.0600 
    212 H212       -5.8528  -23.9094  -51.5910 H         1 UNK         0.0600 
    213 H213       -6.7467  -24.7978  -50.3701 H         1 UNK         0.0600 
    214 H214       -5.2329  -25.4440  -50.9785 H         1 UNK         0.0600 
    215 H215       -3.8466  -21.7235  -48.5864 H         1 UNK         0.3000 
    216 H216       -4.3146  -19.6659  -47.8879 H         1 UNK         0.0600 
    217 H217       -5.2262  -20.8619  -45.9886 H         1 UNK         0.0600 
    218 H218       -6.2347  -19.4685  -46.2729 H         1 UNK         0.0600 
    219 H219       -6.7904  -21.0691  -46.7669 H         1 UNK         0.0600 
    220 H220       -7.7092  -19.5384  -47.9134 H         1 UNK         0.3000 
    221 H221       -7.8072  -17.3982  -49.8056 H         1 UNK         0.0600 
    222 H222      -10.0458  -19.0241  -48.4824 H         1 UNK         0.0600 
    223 H223       -9.3175  -17.5508  -47.8400 H         1 UNK         0.0600 
    224 H224      -10.2572  -17.4924  -49.3219 H         1 UNK         0.0600 
    225 H225       -7.9983  -20.8514  -50.2634 H         1 UNK         0.3000 
    226 H226       -9.4799  -20.6685  -52.8109 H         1 UNK         0.0600 
    227 H227       -8.2750  -23.0886  -51.3830 H         1 UNK         0.0600 
    228 H228       -9.9361  -22.5305  -51.1971 H         1 UNK         0.0600 
    229 H229       -9.3724  -23.1164  -52.7531 H         1 UNK         0.0600 
    230 H230       -6.3476  -19.9357  -51.9793 H         1 UNK         0.3000 
    231 H231       -4.7642  -21.3375  -53.8591 H         1 UNK         0.0600 
    232 H232       -3.1182  -19.5224  -53.4268 H         1 UNK         0.0600 
    233 H233       -3.8436  -20.0472  -51.9162 H         1 UNK         0.0600 
    234 H234       -4.3604  -18.5401  -52.6615 H         1 UNK         0.0600 
    235 H235       -4.4385  -21.1131  -56.0019 H         1 UNK         0.3000 
    236 H236       -5.9056  -19.1588  -57.5927 H         1 UNK         0.0600 
    237 H237       -5.5765  -21.4854  -58.3938 H         1 UNK         0.0600 
    238 H238       -4.8149  -20.3467  -59.4927 H         1 UNK         0.0600 
    239 H239       -3.8256  -21.2746  -58.3717 H         1 UNK         0.0600 
    240 H240       -2.6470  -19.5440  -56.3348 H         1 UNK         0.3000 
    241 H241       -0.8388  -18.3091  -56.2281 H         1 UNK         0.0600 
    242 H242       -1.5729  -19.3867  -59.0485 H         1 UNK         0.3800 
    243 H243       -0.4243  -18.5367  -60.0486 H         1 UNK         0.3800 
    244 H244       -0.9809  -15.8198  -56.2003 H         1 UNK         0.0800 
    245 H245       -2.5731  -15.8892  -56.8937 H         1 UNK         0.0800 
    246 H246       -0.7862  -17.8418  -53.6654 H         1 UNK         0.0800 
    247 H247       -0.2949  -16.1945  -53.9752 H         1 UNK         0.0800 
@<TRIPOS>BOND
     1    1    2 1    
     2    1  127 1    
     3    1  128 1    
     4    1  129 1    
     5    2    3 2    
     6    2    4 am   BACKBONE|DICT|INTERRES
     7    4    5 1    
     8    4  130 1    
     9    5    6 1    
    10    5   65 1    
    11    5  131 1    
    12    6    7 1    
    13    6  132 1    
    14    6  133 1    
    15    7    8 1    
    16    8    9 1    
    17    8  134 1    
    18    8  135 1    
    19    9   10 ar   
    20    9   14 ar   
    21   10   11 ar   
    22   10  136 1    
    23   11   12 ar   
    24   11  126 1    
    25   12   13 ar   
    26   12  137 1    
    27   13   14 ar   
    28   13   15 1    
    29   14  138 1    
    30   15   16 1    
    31   15  139 1    
    32   15  140 1    
    33   16   17 1    
    34   17   18 1    
    35   17  141 1    
    36   17  142 1    
    37   18   19 1    
    38   18   67 1    
    39   18  143 1    
    40   19   20 am   BACKBONE|DICT|INTERRES
    41   19  144 1    
    42   20   21 2    
    43   20   22 1    
    44   22   23 1    
    45   22   24 1    
    46   22  145 1    
    47   23  146 1    
    48   23  147 1    
    49   23  148 1    
    50   24   25 am   BACKBONE|DICT|INTERRES
    51   24  149 1    
    52   25   26 2    
    53   25   27 1    
    54   27   28 1    
    55   27   29 1    
    56   27  150 1    
    57   28  151 1    
    58   28  152 1    
    59   28  153 1    
    60   29   30 am   BACKBONE|DICT|INTERRES
    61   29  154 1    
    62   30   31 2    
    63   30   32 1    
    64   32   33 1    
    65   32   34 1    
    66   32  155 1    
    67   33  156 1    
    68   33  157 1    
    69   33  158 1    
    70   34   35 am   BACKBONE|DICT|INTERRES
    71   34  159 1    
    72   35   36 2    
    73   35   37 1    
    74   37   38 1    
    75   37   39 1    
    76   37  160 1    
    77   38  161 1    
    78   38  162 1    
    79   38  163 1    
    80   39   40 am   BACKBONE|DICT|INTERRES
    81   39  164 1    
    82   40   41 2    
    83   40   42 1    
    84   42   43 1    
    85   42   44 1    
    86   42  165 1    
    87   43  166 1    
    88   43  167 1    
    89   43  168 1    
    90   44   45 am   BACKBONE|DICT|INTERRES
    91   44  169 1    
    92   45   46 2    
    93   45   47 1    
    94   47   48 1    
    95   47   49 1    
    96   47  170 1    
    97   48  171 1    
    98   48  172 1    
    99   48  173 1    
   100   49   50 am   BACKBONE|DICT|INTERRES
   101   49  174 1    
   102   50   51 2    
   103   50   52 1    
   104   52   53 1    
   105   52   54 1    
   106   52  175 1    
   107   53  176 1    
   108   53  177 1    
   109   53  178 1    
   110   54   55 am   BACKBONE|DICT|INTERRES
   111   54  179 1    
   112   55   56 2    
   113   55   57 1    
   114   57   58 1    
   115   57   59 1    
   116   57  180 1    
   117   58  181 1    
   118   58  182 1    
   119   58  183 1    
   120   59   60 am   BACKBONE|DICT|INTERRES
   121   59  184 1    
   122   60   61 2    
   123   60   62 1    
   124   62   63 1    
   125   62   64 1    
   126   62  185 1    
   127   63  186 1    
   128   63  187 1    
   129   63  188 1    
   130   64   65 am   BACKBONE|DICT|INTERRES
   131   64  189 1    
   132   65   66 2    
   133   67   68 2    
   134   67   69 am   BACKBONE|DICT|INTERRES
   135   69   70 1    
   136   69  190 1    
   137   70   71 1    
   138   70   72 1    
   139   70  191 1    
   140   71  192 1    
   141   71  193 1    
   142   71  194 1    
   143   72   73 2    
   144   72   74 am   BACKBONE|DICT|INTERRES
   145   74   75 1    
   146   74  195 1    
   147   75   76 1    
   148   75   77 1    
   149   75  196 1    
   150   76  197 1    
   151   76  198 1    
   152   76  199 1    
   153   77   78 2    
   154   77   79 am   BACKBONE|DICT|INTERRES
   155   79   80 1    
   156   79  200 1    
   157   80   81 1    
   158   80   82 1    
   159   80  201 1    
   160   81  202 1    
   161   81  203 1    
   162   81  204 1    
   163   82   83 2    
   164   82   84 am   BACKBONE|DICT|INTERRES
   165   84   85 1    
   166   84  205 1    
   167   85   86 1    
   168   85   87 1    
   169   85  206 1    
   170   86  207 1    
   171   86  208 1    
   172   86  209 1    
   173   87   88 2    
   174   87   89 am   BACKBONE|DICT|INTERRES
   175   89   90 1    
   176   89  210 1    
   177   90   91 1    
   178   90   92 1    
   179   90  211 1    
   180   91  212 1    
   181   91  213 1    
   182   91  214 1    
   183   92   93 2    
   184   92   94 am   BACKBONE|DICT|INTERRES
   185   94   95 1    
   186   94  215 1    
   187   95   96 1    
   188   95   97 1    
   189   95  216 1    
   190   96  217 1    
   191   96  218 1    
   192   96  219 1    
   193   97   98 2    
   194   97   99 am   BACKBONE|DICT|INTERRES
   195   99  100 1    
   196   99  220 1    
   197  100  101 1    
   198  100  102 1    
   199  100  221 1    
   200  101  222 1    
   201  101  223 1    
   202  101  224 1    
   203  102  103 2    
   204  102  104 am   BACKBONE|DICT|INTERRES
   205  104  105 1    
   206  104  225 1    
   207  105  106 1    
   208  105  107 1    
   209  105  226 1    
   210  106  227 1    
   211  106  228 1    
   212  106  229 1    
   213  107  108 2    
   214  107  109 am   BACKBONE|DICT|INTERRES
   215  109  110 1    
   216  109  230 1    
   217  110  111 1    
   218  110  112 1    
   219  110  231 1    
   220  111  232 1    
   221  111  233 1    
   222  111  234 1    
   223  112  113 2    
   224  112  114 am   BACKBONE|DICT|INTERRES
   225  114  115 1    
   226  114  235 1    
   227  115  116 1    
   228  115  117 1    
   229  115  236 1    
   230  116  237 1    
   231  116  238 1    
   232  116  239 1    
   233  117  118 2    
   234  117  119 am   BACKBONE|DICT|INTERRES
   235  119  120 1    
   236  119  240 1    
   237  120  121 1    
   238  120  124 1    
   239  120  241 1    
   240  121  122 am   BACKBONE|DICT|INTERRES
   241  121  123 2    
   242  122  242 1    
   243  122  243 1    
   244  124  125 1    
   245  124  244 1    
   246  124  245 1    
   247  125  126 1    
   248  126  246 1    
   249  126  247 1    
@<TRIPOS>SUBSTRUCTURE
     1 UNK         1 GROUP             0       ****    0 ROOT    
