@<TRIPOS>MOLECULE
3R540
247   249    1
SMALL
USER_CHARGES


@<TRIPOS>ATOM
      1 CA         -3.6631  -14.4438  -44.4352 C.3       0 UNK        -0.1800 
      2 C          -2.9715  -13.8046  -45.6308 C.2       0 UNK         0.5000 
      3 O          -2.9125  -12.5782  -45.7179 O.2       0 UNK        -0.5000 
      4 N          -2.4670  -14.6290  -46.5592 N.am      1 UNK        -0.5000 
      5 CA         -1.7692  -14.1856  -47.7721 C.3       1 UNK         0.1400 
      6 C6         -1.6846  -15.3222  -48.8228 C.3       23 UNK        -0.0398 
      7 S7         -1.4655  -14.6970  -50.5235 S.3       23 UNK        -0.2404 
      8 C8          0.3086  -14.9943  -50.8088 C.3       23 UNK        -0.0205 
      9 C9          0.5969  -16.4526  -51.1302 C.ar      23 UNK        -0.0193 
     10 C10         0.3817  -16.9344  -52.4229 C.ar      23 UNK        -0.1150 
     11 C11         0.6666  -18.2636  -52.7424 C.ar      23 UNK        -0.0193 
     12 C12         1.1550  -19.1189  -51.7506 C.ar      23 UNK        -0.1150 
     13 C13         1.3777  -18.6546  -50.4491 C.ar      23 UNK        -0.0193 
     14 C14         1.1040  -17.3120  -50.1515 C.ar      23 UNK        -0.1150 
     15 C15         1.9651  -19.6227  -49.4203 C.3       23 UNK        -0.0205 
     16 S16         1.7429  -19.1571  -47.6674 S.3       23 UNK        -0.2404 
     17 C17        -0.0189  -19.5435  -47.3997 C.3       23 UNK        -0.0398 
     18 CA         -0.2327  -20.9998  -46.9243 C.3       11 UNK         0.1400 
     19 N           0.4138  -21.2958  -45.6383 N.am      11 UNK        -0.5000 
     20 C           0.5240  -22.5229  -45.1084 C.2       10 UNK         0.5000 
     21 O           0.0831  -23.5354  -45.6507 O.2       10 UNK        -0.5000 
     22 CA          1.1748  -22.6408  -43.7198 C.3       10 UNK         0.1400 
     23 CB          2.7024  -22.4990  -43.7991 C.3       10 UNK        -0.1800 
     24 N           0.6208  -21.6693  -42.7782 N.am      10 UNK        -0.5000 
     25 C          -0.6297  -21.7235  -42.2965 C.2       9 UNK         0.5000 
     26 O          -1.4133  -22.6427  -42.5357 O.2       9 UNK        -0.5000 
     27 CA         -1.0993  -20.5416  -41.4272 C.3       9 UNK         0.1400 
     28 CB         -0.7164  -20.7657  -39.9569 C.3       9 UNK        -0.1800 
     29 N          -0.5741  -19.2518  -41.8768 N.am      9 UNK        -0.5000 
     30 C          -0.8406  -18.6911  -43.0650 C.2       8 UNK         0.5000 
     31 O          -1.5996  -19.1800  -43.9004 O.2       8 UNK        -0.5000 
     32 CA         -0.0795  -17.3995  -43.4080 C.3       8 UNK         0.1400 
     33 CB         -0.7295  -16.1827  -42.7372 C.3       8 UNK        -0.1800 
     34 N           1.3357  -17.4679  -43.0459 N.am      8 UNK        -0.5000 
     35 C           2.2035  -18.3579  -43.5476 C.2       7 UNK         0.5000 
     36 O           1.8993  -19.2074  -44.3810 O.2       7 UNK        -0.5000 
     37 CA          3.6311  -18.3364  -42.9811 C.3       7 UNK         0.1400 
     38 CB          4.4685  -17.2235  -43.6263 C.3       7 UNK        -0.1800 
     39 N           3.6258  -18.1776  -41.5286 N.am      7 UNK        -0.5000 
     40 C           3.2248  -19.1275  -40.6719 C.2       6 UNK         0.5000 
     41 O           2.8738  -20.2566  -41.0153 O.2       6 UNK        -0.5000 
     42 CA          3.1712  -18.7308  -39.1856 C.3       6 UNK         0.1400 
     43 CB          4.5535  -18.8812  -38.5331 C.3       6 UNK        -0.1800 
     44 N           2.6860  -17.3633  -38.9872 N.am      6 UNK        -0.5000 
     45 C           1.4359  -16.9608  -39.2552 C.2       5 UNK         0.5000 
     46 O           0.5543  -17.7064  -39.6805 O.2       5 UNK        -0.5000 
     47 CA          1.1312  -15.4655  -39.0518 C.3       5 UNK         0.1400 
     48 CB          0.7562  -15.1858  -37.5889 C.3       5 UNK        -0.1800 
     49 N           2.2313  -14.5824  -39.4501 N.am      5 UNK        -0.5000 
     50 C           2.7108  -14.4781  -40.6961 C.2       4 UNK         0.5000 
     51 O           2.3282  -15.1730  -41.6398 O.2       4 UNK        -0.5000 
     52 CA          3.8344  -13.4558  -40.9200 C.3       4 UNK         0.1400 
     53 CB          5.1938  -14.1623  -41.0365 C.3       4 UNK        -0.1800 
     54 N           3.5795  -12.6940  -42.1402 N.am      4 UNK        -0.5000 
     55 C           2.8061  -11.6018  -42.2006 C.2       3 UNK         0.5000 
     56 O           2.2812  -11.0803  -41.2157 O.2       3 UNK        -0.5000 
     57 CA          2.5839  -10.9816  -43.5935 C.3       3 UNK         0.1400 
     58 CB          3.6860   -9.9582  -43.9084 C.3       3 UNK        -0.1800 
     59 N           2.5318  -11.9776  -44.6666 N.am      3 UNK        -0.5000 
     60 C           1.5002  -12.8059  -44.8725 C.2       2 UNK         0.5000 
     61 O           0.4831  -12.8199  -44.1752 O.2       2 UNK        -0.5000 
     62 CA          1.6499  -13.7968  -46.0401 C.3       2 UNK         0.1400 
     63 CB          2.4491  -15.0293  -45.5973 C.3       2 UNK        -0.1800 
     64 N           0.3415  -14.2360  -46.5199 N.am      2 UNK        -0.5000 
     65 C          -0.3763  -13.5981  -47.4531 C.2       1 UNK         0.5000 
     66 O           0.0149  -12.5915  -48.0463 O.2       1 UNK        -0.5000 
     67 C          -1.7312  -21.3639  -46.9269 C.2       11 UNK         0.5000 
     68 O          -2.2241  -21.8654  -47.9368 O.2       11 UNK        -0.5000 
     69 N          -2.4165  -21.1802  -45.7902 N.am      12 UNK        -0.5000 
     70 CA         -3.8076  -21.5881  -45.5762 C.3       12 UNK         0.1400 
     71 CB         -4.2979  -21.0365  -44.2291 C.3       12 UNK        -0.1800 
     72 C          -4.0402  -23.1124  -45.6543 C.2       12 UNK         0.5000 
     73 O          -5.1751  -23.5281  -45.8878 O.2       12 UNK        -0.5000 
     74 N          -2.9815  -23.9133  -45.4775 N.am      13 UNK        -0.5000 
     75 CA         -3.0009  -25.3602  -45.6746 C.3       13 UNK         0.1400 
     76 CB         -2.1683  -26.0343  -44.5720 C.3       13 UNK        -0.1800 
     77 C          -2.4694  -25.7344  -47.0693 C.2       13 UNK         0.5000 
     78 O          -3.0907  -26.5461  -47.7556 O.2       13 UNK        -0.5000 
     79 N          -1.3220  -25.1568  -47.4530 N.am      14 UNK        -0.5000 
     80 CA         -0.5814  -25.4964  -48.6677 C.3       14 UNK         0.1400 
     81 CB          0.8477  -24.9401  -48.5634 C.3       14 UNK        -0.1800 
     82 C          -1.2560  -25.0149  -49.9632 C.2       14 UNK         0.5000 
     83 O          -1.3477  -25.7902  -50.9161 O.2       14 UNK        -0.5000 
     84 N          -1.6986  -23.7517  -49.9819 N.am      15 UNK        -0.5000 
     85 CA         -2.3717  -23.1299  -51.1223 C.3       15 UNK         0.1400 
     86 CB         -1.8233  -21.7096  -51.3406 C.3       15 UNK        -0.1800 
     87 C          -3.8930  -23.0987  -50.9150 C.2       15 UNK         0.5000 
     88 O          -4.6372  -23.3315  -51.8668 O.2       15 UNK        -0.5000 
     89 N          -4.3217  -22.8333  -49.6719 N.am      16 UNK        -0.5000 
     90 CA         -5.7096  -22.7393  -49.2169 C.3       16 UNK         0.1400 
     91 CB         -6.4039  -24.1180  -49.2680 C.3       16 UNK        -0.1800 
     92 C          -6.4713  -21.6186  -49.9481 C.2       16 UNK         0.5000 
     93 O          -6.2686  -20.4483  -49.6223 O.2       16 UNK        -0.5000 
     94 N          -7.3065  -21.9745  -50.9322 N.am      17 UNK        -0.5000 
     95 CA         -8.1362  -21.0716  -51.7361 C.3       17 UNK         0.1400 
     96 CB         -9.3159  -21.8755  -52.3129 C.3       17 UNK        -0.1800 
     97 C          -7.3509  -20.2943  -52.8206 C.2       17 UNK         0.5000 
     98 O          -7.8374  -20.1513  -53.9449 O.2       17 UNK        -0.5000 
     99 N          -6.1615  -19.7942  -52.4532 N.am      18 UNK        -0.5000 
    100 CA        -5.2510  -18.9311  -53.2110 C.3       18 UNK         0.1400 
    101 CB        -5.7299  -17.4671  -53.1091 C.3       18 UNK        -0.1800 
    102 C         -5.0242  -19.4102  -54.6590 C.2       18 UNK         0.5000 
    103 O         -4.3573  -20.4259  -54.8602 O.2       18 UNK        -0.5000 
    104 N         -5.6093  -18.6960  -55.6322 N.am      19 UNK        -0.5000 
    105 CA        -5.5363  -18.9292  -57.0780 C.3       19 UNK         0.1400 
    106 CB        -6.4252  -17.8985  -57.7895 C.3       19 UNK        -0.1800 
    107 C         -5.8961  -20.3549  -57.5400 C.2       19 UNK         0.5000 
    108 O         -5.4202  -20.7730  -58.5961 O.2       19 UNK        -0.5000 
    109 N         -6.6741  -21.0923  -56.7333 N.am      20 UNK        -0.5000 
    110 CA        -6.9698  -22.5144  -56.9263 C.3       20 UNK         0.1400 
    111 CB        -7.9441  -22.9744  -55.8324 C.3       20 UNK        -0.1800 
    112 C         -5.7137  -23.4126  -56.9297 C.2       20 UNK         0.5000 
    113 O         -5.7158  -24.4443  -57.6027 O.2       20 UNK        -0.5000 
    114 N         -4.6701  -22.9977  -56.1994 N.am      21 UNK        -0.5000 
    115 CA        -3.3587  -23.6407  -56.1651 C.3       21 UNK         0.1400 
    116 CB        -2.9846  -23.9295  -54.7066 C.3       21 UNK        -0.1800 
    117 C         -2.2866  -22.7515  -56.8150 C.2       21 UNK         0.5000 
    118 O         -1.4251  -23.2715  -57.5252 O.2       21 UNK        -0.5000 
    119 N         -2.3449  -21.4375  -56.5572 N.am      22 UNK        -0.5000 
    120 CA        -1.3683  -20.4471  -57.0392 C.3       22 UNK         0.1400 
    121 C         -1.4351  -20.1519  -58.5668 C.2       22 UNK         0.5000 
    122 N         -2.5183  -20.4639  -59.2683 N.am      22 UNK        -0.7600 
    123 O         -0.4769  -19.6294  -59.1294 O.2       22 UNK        -0.5000 
    124 C124       -1.4316  -19.1221  -56.2355 C.3       23 UNK        -0.0398 
    125 S125       -1.2343  -19.3321  -54.4304 S.3       23 UNK        -0.2404 
    126 C126        0.4688  -18.7555  -54.1673 C.3       23 UNK        -0.0205 
    127 H127       -4.7018  -14.1171  -44.3849 H         1 UNK         0.0600 
    128 H128       -3.6532  -15.5325  -44.4935 H         1 UNK         0.0600 
    129 H129       -3.1668  -14.1439  -43.5122 H         1 UNK         0.0600 
    130 H130       -2.5703  -15.6265  -46.4423 H         1 UNK         0.3000 
    131 H131       -2.3684  -13.3789  -48.2011 H         1 UNK         0.0600 
    132 H132       -2.6188  -15.8855  -48.8289 H         1 UNK         0.0800 
    133 H133       -0.9097  -16.0468  -48.5704 H         1 UNK         0.0800 
    134 H134        0.6356  -14.3717  -51.6429 H         1 UNK         0.0800 
    135 H135        0.8884  -14.6656  -49.9453 H         1 UNK         0.0800 
    136 H136       -0.0017  -16.2698  -53.1847 H         1 UNK         0.1150 
    137 H137        1.3777  -20.1472  -51.9991 H         1 UNK         0.1150 
    138 H138        1.2935  -16.9227  -49.1621 H         1 UNK         0.1150 
    139 H139        1.5494  -20.6202  -49.5714 H         1 UNK         0.0800 
    140 H140        3.0354  -19.7055  -49.6125 H         1 UNK         0.0800 
    141 H141       -0.5617  -19.3503  -48.3272 H         1 UNK         0.0800 
    142 H142       -0.4132  -18.8427  -46.6619 H         1 UNK         0.0800 
    143 H143        0.2357  -21.6518  -47.6638 H         1 UNK         0.0600 
    144 H144        0.8415  -20.5094  -45.1521 H         1 UNK         0.3000 
    145 H145        0.9569  -23.6401  -43.3369 H         1 UNK         0.0600 
    146 H146        3.1594  -22.6100  -42.8156 H         1 UNK         0.0600 
    147 H147        3.1286  -23.2673  -44.4451 H         1 UNK         0.0600 
    148 H148        3.0061  -21.5331  -44.2003 H         1 UNK         0.0600 
    149 H149        1.2126  -20.8894  -42.5224 H         1 UNK         0.3000 
    150 H150       -2.1883  -20.4966  -41.4921 H         1 UNK         0.0600 
    151 H151       -1.1061  -21.7165  -39.5911 H         1 UNK         0.0600 
    152 H152       -1.1239  -19.9806  -39.3198 H         1 UNK         0.0600 
    153 H153        0.3656  -20.7784  -39.8208 H         1 UNK         0.0600 
    154 H154        0.0242  -18.7531  -41.2240 H         1 UNK         0.3000 
    155 H155       -0.1363  -17.2612  -44.4895 H         1 UNK         0.0600 
    156 H156       -0.6551  -16.2343  -41.6518 H         1 UNK         0.0600 
    157 H157       -1.7880  -16.1217  -42.9866 H         1 UNK         0.0600 
    158 H158       -0.2597  -15.2539  -43.0610 H         1 UNK         0.0600 
    159 H159        1.6745  -16.7651  -42.3934 H         1 UNK         0.3000 
    160 H160        4.1003  -19.2930  -43.2212 H         1 UNK         0.0600 
    161 H161        5.4978  -17.2460  -43.2683 H         1 UNK         0.0600 
    162 H162        4.0602  -16.2367  -43.4127 H         1 UNK         0.0600 
    163 H163        4.4976  -17.3384  -44.7106 H         1 UNK         0.0600 
    164 H164        3.8476  -17.2618  -41.1687 H         1 UNK         0.3000 
    165 H165        2.4807  -19.4128  -38.6846 H         1 UNK         0.0600 
    166 H166        4.5087  -18.6763  -37.4633 H         1 UNK         0.0600 
    167 H167        4.9324  -19.8971  -38.6527 H         1 UNK         0.0600 
    168 H168        5.2853  -18.2036  -38.9749 H         1 UNK         0.0600 
    169 H169        3.3484  -16.6855  -38.6403 H         1 UNK         0.3000 
    170 H170        0.2689  -15.2182  -39.6737 H         1 UNK         0.0600 
    171 H171       -0.0749  -15.8173  -37.2715 H         1 UNK         0.0600 
    172 H172        1.5910  -15.3781  -36.9138 H         1 UNK         0.0600 
    173 H173        0.4450  -14.1500  -37.4525 H         1 UNK         0.0600 
    174 H174        2.6072  -13.9829  -38.7294 H         1 UNK         0.3000 
    175 H175        3.8776  -12.7750  -40.0670 H         1 UNK         0.0600 
    176 H176        5.2300  -14.8385  -41.8902 H         1 UNK         0.0600 
    177 H177        6.0019  -13.4396  -41.1508 H         1 UNK         0.0600 
    178 H178        5.4084  -14.7493  -40.1425 H         1 UNK         0.0600 
    179 H179        3.9249  -13.0896  -43.0012 H         1 UNK         0.3000 
    180 H180        1.6289  -10.4517  -43.5701 H         1 UNK         0.0600 
    181 H181        4.6689  -10.4276  -43.9654 H         1 UNK         0.0600 
    182 H182        3.7348   -9.1878  -43.1376 H         1 UNK         0.0600 
    183 H183        3.4979   -9.4549  -44.8570 H         1 UNK         0.0600 
    184 H184        3.3326  -12.0226  -45.2803 H         1 UNK         0.3000 
    185 H185        2.1914  -13.3086  -46.8534 H         1 UNK         0.0600 
    186 H186        3.4728  -14.7579  -45.3381 H         1 UNK         0.0600 
    187 H187        2.0012  -15.4927  -44.7201 H         1 UNK         0.0600 
    188 H188        2.5009  -15.7798  -46.3867 H         1 UNK         0.0600 
    189 H189       -0.0864  -14.9989  -46.0189 H         1 UNK         0.3000 
    190 H190       -1.9645  -20.6975  -45.0178 H         1 UNK         0.3000 
    191 H191       -4.4077  -21.1310  -46.3655 H         1 UNK         0.0600 
    192 H192       -3.7120  -21.4288  -43.3980 H         1 UNK         0.0600 
    193 H193       -5.3403  -21.3039  -44.0512 H         1 UNK         0.0600 
    194 H194       -4.2343  -19.9487  -44.2012 H         1 UNK         0.0600 
    195 H195       -2.0798  -23.4950  -45.2871 H         1 UNK         0.3000 
    196 H196       -4.0217  -25.7397  -45.5936 H         1 UNK         0.0600 
    197 H197       -1.1280  -25.7080  -44.5871 H         1 UNK         0.0600 
    198 H198       -2.1740  -27.1188  -44.6873 H         1 UNK         0.0600 
    199 H199       -2.5715  -25.8092  -43.5845 H         1 UNK         0.0600 
    200 H200       -0.8546  -24.5231  -46.8075 H         1 UNK         0.3000 
    201 H201       -0.5099  -26.5850  -48.7197 H         1 UNK         0.0600 
    202 H202        0.8536  -23.8530  -48.4818 H         1 UNK         0.0600 
    203 H203        1.4365  -25.2069  -49.4419 H         1 UNK         0.0600 
    204 H204        1.3640  -25.3420  -47.6914 H         1 UNK         0.0600 
    205 H205       -1.6459  -23.1933  -49.1357 H         1 UNK         0.3000 
    206 H206       -2.1699  -23.7039  -52.0271 H         1 UNK         0.0600 
    207 H207       -2.3060  -21.2360  -52.1967 H         1 UNK         0.0600 
    208 H208       -1.9902  -21.0665  -50.4764 H         1 UNK         0.0600 
    209 H209       -0.7523  -21.7274  -51.5421 H         1 UNK         0.0600 
    210 H210       -3.6190  -22.5850  -48.9811 H         1 UNK         0.3000 
    211 H211       -5.6718  -22.4312  -48.1734 H         1 UNK         0.0600 
    212 H212       -6.4331  -24.5377  -50.2736 H         1 UNK         0.0600 
    213 H213       -7.4303  -24.0523  -48.9053 H         1 UNK         0.0600 
    214 H214       -5.8837  -24.8328  -48.6297 H         1 UNK         0.0600 
    215 H215       -7.3412  -22.9515  -51.1852 H         1 UNK         0.3000 
    216 H216       -8.5566  -20.3166  -51.0686 H         1 UNK         0.0600 
    217 H217       -9.9925  -21.2356  -52.8809 H         1 UNK         0.0600 
    218 H218       -9.9033  -22.3354  -51.5181 H         1 UNK         0.0600 
    219 H219       -8.9758  -22.6693  -52.9777 H         1 UNK         0.0600 
    220 H220       -5.8828  -19.9816  -51.4958 H         1 UNK         0.3000 
    221 H221       -4.2794  -18.9963  -52.7185 H         1 UNK         0.0600 
    222 H222       -6.7379  -17.3352  -53.5045 H         1 UNK         0.0600 
    223 H223       -5.7415  -17.1364  -52.0704 H         1 UNK         0.0600 
    224 H224       -5.0633  -16.7933  -53.6494 H         1 UNK         0.0600 
    225 H225       -6.1733  -17.9088  -55.3473 H         1 UNK         0.3000 
    226 H226       -4.5045  -18.7505  -57.3825 H         1 UNK         0.0600 
    227 H227       -6.1081  -16.8800  -57.5646 H         1 UNK         0.0600 
    228 H228       -6.3765  -18.0196  -58.8727 H         1 UNK         0.0600 
    229 H229       -7.4704  -17.9994  -57.4942 H         1 UNK         0.0600 
    230 H230       -7.0144  -20.6722  -55.8749 H         1 UNK         0.3000 
    231 H231       -7.4601  -22.6229  -57.8956 H         1 UNK         0.0600 
    232 H232       -8.8513  -22.3697  -55.8269 H         1 UNK         0.0600 
    233 H233       -7.4883  -22.9067  -54.8441 H         1 UNK         0.0600 
    234 H234       -8.2435  -24.0119  -55.9858 H         1 UNK         0.0600 
    235 H235       -4.7536  -22.1257  -55.6851 H         1 UNK         0.3000 
    236 H236       -3.3773  -24.5891  -56.7057 H         1 UNK         0.0600 
    237 H237       -2.0034  -24.4005  -54.6355 H         1 UNK         0.0600 
    238 H238       -2.9554  -23.0097  -54.1217 H         1 UNK         0.0600 
    239 H239       -3.7053  -24.6011  -54.2399 H         1 UNK         0.0600 
    240 H240       -3.0578  -21.0838  -55.9236 H         1 UNK         0.3000 
    241 H241       -0.3784  -20.8736  -56.8655 H         1 UNK         0.0600 
    242 H242       -2.5327  -20.2687  -60.2566 H         1 UNK         0.3800 
    243 H243       -3.3420  -20.8593  -58.8328 H         1 UNK         0.3800 
    244 H244       -0.6783  -18.4217  -56.5993 H         1 UNK         0.0800 
    245 H245       -2.3899  -18.6300  -56.4009 H         1 UNK         0.0800 
    246 H246        1.1631  -19.5658  -54.3944 H         1 UNK         0.0800 
    247 H247        0.7055  -17.9449  -54.8577 H         1 UNK         0.0800 
@<TRIPOS>BOND
     1    1    2 1    
     2    1  127 1    
     3    1  128 1    
     4    1  129 1    
     5    2    3 2    
     6    2    4 am   BACKBONE|DICT|INTERRES
     7    4    5 1    
     8    4  130 1    
     9    5    6 1    
    10    5   65 1    
    11    5  131 1    
    12    6    7 1    
    13    6  132 1    
    14    6  133 1    
    15    7    8 1    
    16    8    9 1    
    17    8  134 1    
    18    8  135 1    
    19    9   10 ar   
    20    9   14 ar   
    21   10   11 ar   
    22   10  136 1    
    23   11   12 ar   
    24   11  126 1    
    25   12   13 ar   
    26   12  137 1    
    27   13   14 ar   
    28   13   15 1    
    29   14  138 1    
    30   15   16 1    
    31   15  139 1    
    32   15  140 1    
    33   16   17 1    
    34   17   18 1    
    35   17  141 1    
    36   17  142 1    
    37   18   19 1    
    38   18   67 1    
    39   18  143 1    
    40   19   20 am   BACKBONE|DICT|INTERRES
    41   19  144 1    
    42   20   21 2    
    43   20   22 1    
    44   22   23 1    
    45   22   24 1    
    46   22  145 1    
    47   23  146 1    
    48   23  147 1    
    49   23  148 1    
    50   24   25 am   BACKBONE|DICT|INTERRES
    51   24  149 1    
    52   25   26 2    
    53   25   27 1    
    54   27   28 1    
    55   27   29 1    
    56   27  150 1    
    57   28  151 1    
    58   28  152 1    
    59   28  153 1    
    60   29   30 am   BACKBONE|DICT|INTERRES
    61   29  154 1    
    62   30   31 2    
    63   30   32 1    
    64   32   33 1    
    65   32   34 1    
    66   32  155 1    
    67   33  156 1    
    68   33  157 1    
    69   33  158 1    
    70   34   35 am   BACKBONE|DICT|INTERRES
    71   34  159 1    
    72   35   36 2    
    73   35   37 1    
    74   37   38 1    
    75   37   39 1    
    76   37  160 1    
    77   38  161 1    
    78   38  162 1    
    79   38  163 1    
    80   39   40 am   BACKBONE|DICT|INTERRES
    81   39  164 1    
    82   40   41 2    
    83   40   42 1    
    84   42   43 1    
    85   42   44 1    
    86   42  165 1    
    87   43  166 1    
    88   43  167 1    
    89   43  168 1    
    90   44   45 am   BACKBONE|DICT|INTERRES
    91   44  169 1    
    92   45   46 2    
    93   45   47 1    
    94   47   48 1    
    95   47   49 1    
    96   47  170 1    
    97   48  171 1    
    98   48  172 1    
    99   48  173 1    
   100   49   50 am   BACKBONE|DICT|INTERRES
   101   49  174 1    
   102   50   51 2    
   103   50   52 1    
   104   52   53 1    
   105   52   54 1    
   106   52  175 1    
   107   53  176 1    
   108   53  177 1    
   109   53  178 1    
   110   54   55 am   BACKBONE|DICT|INTERRES
   111   54  179 1    
   112   55   56 2    
   113   55   57 1    
   114   57   58 1    
   115   57   59 1    
   116   57  180 1    
   117   58  181 1    
   118   58  182 1    
   119   58  183 1    
   120   59   60 am   BACKBONE|DICT|INTERRES
   121   59  184 1    
   122   60   61 2    
   123   60   62 1    
   124   62   63 1    
   125   62   64 1    
   126   62  185 1    
   127   63  186 1    
   128   63  187 1    
   129   63  188 1    
   130   64   65 am   BACKBONE|DICT|INTERRES
   131   64  189 1    
   132   65   66 2    
   133   67   68 2    
   134   67   69 am   BACKBONE|DICT|INTERRES
   135   69   70 1    
   136   69  190 1    
   137   70   71 1    
   138   70   72 1    
   139   70  191 1    
   140   71  192 1    
   141   71  193 1    
   142   71  194 1    
   143   72   73 2    
   144   72   74 am   BACKBONE|DICT|INTERRES
   145   74   75 1    
   146   74  195 1    
   147   75   76 1    
   148   75   77 1    
   149   75  196 1    
   150   76  197 1    
   151   76  198 1    
   152   76  199 1    
   153   77   78 2    
   154   77   79 am   BACKBONE|DICT|INTERRES
   155   79   80 1    
   156   79  200 1    
   157   80   81 1    
   158   80   82 1    
   159   80  201 1    
   160   81  202 1    
   161   81  203 1    
   162   81  204 1    
   163   82   83 2    
   164   82   84 am   BACKBONE|DICT|INTERRES
   165   84   85 1    
   166   84  205 1    
   167   85   86 1    
   168   85   87 1    
   169   85  206 1    
   170   86  207 1    
   171   86  208 1    
   172   86  209 1    
   173   87   88 2    
   174   87   89 am   BACKBONE|DICT|INTERRES
   175   89   90 1    
   176   89  210 1    
   177   90   91 1    
   178   90   92 1    
   179   90  211 1    
   180   91  212 1    
   181   91  213 1    
   182   91  214 1    
   183   92   93 2    
   184   92   94 am   BACKBONE|DICT|INTERRES
   185   94   95 1    
   186   94  215 1    
   187   95   96 1    
   188   95   97 1    
   189   95  216 1    
   190   96  217 1    
   191   96  218 1    
   192   96  219 1    
   193   97   98 2    
   194   97   99 am   BACKBONE|DICT|INTERRES
   195   99  100 1    
   196   99  220 1    
   197  100  101 1    
   198  100  102 1    
   199  100  221 1    
   200  101  222 1    
   201  101  223 1    
   202  101  224 1    
   203  102  103 2    
   204  102  104 am   BACKBONE|DICT|INTERRES
   205  104  105 1    
   206  104  225 1    
   207  105  106 1    
   208  105  107 1    
   209  105  226 1    
   210  106  227 1    
   211  106  228 1    
   212  106  229 1    
   213  107  108 2    
   214  107  109 am   BACKBONE|DICT|INTERRES
   215  109  110 1    
   216  109  230 1    
   217  110  111 1    
   218  110  112 1    
   219  110  231 1    
   220  111  232 1    
   221  111  233 1    
   222  111  234 1    
   223  112  113 2    
   224  112  114 am   BACKBONE|DICT|INTERRES
   225  114  115 1    
   226  114  235 1    
   227  115  116 1    
   228  115  117 1    
   229  115  236 1    
   230  116  237 1    
   231  116  238 1    
   232  116  239 1    
   233  117  118 2    
   234  117  119 am   BACKBONE|DICT|INTERRES
   235  119  120 1    
   236  119  240 1    
   237  120  121 1    
   238  120  124 1    
   239  120  241 1    
   240  121  122 am   BACKBONE|DICT|INTERRES
   241  121  123 2    
   242  122  242 1    
   243  122  243 1    
   244  124  125 1    
   245  124  244 1    
   246  124  245 1    
   247  125  126 1    
   248  126  246 1    
   249  126  247 1    
@<TRIPOS>SUBSTRUCTURE
     1 UNK         1 GROUP             0       ****    0 ROOT    
