@<TRIPOS>MOLECULE
3R540
247   249    1
SMALL
USER_CHARGES


@<TRIPOS>ATOM
      1 CA          5.0943  -16.5195  -47.4193 C.3       0 UNK        -0.1800 
      2 C           4.2627  -15.3059  -47.0332 C.2       0 UNK         0.5000 
      3 O           4.1891  -14.9630  -45.8551 O.2       0 UNK        -0.5000 
      4 N           3.6456  -14.6428  -48.0196 N.am      1 UNK        -0.5000 
      5 CA          2.7002  -13.5288  -47.8416 C.3       1 UNK         0.1400 
      6 C6          2.0028  -13.1366  -49.1720 C.3       23 UNK        -0.0398 
      7 S7          1.3378  -14.5377  -50.1479 S.3       23 UNK        -0.2404 
      8 C8          0.3485  -15.4252  -48.9064 C.3       23 UNK        -0.0205 
      9 C9         -0.2416  -16.7199  -49.4412 C.ar      23 UNK        -0.0193 
     10 C10        -1.6259  -16.8726  -49.5517 C.ar      23 UNK        -0.1150 
     11 C11        -2.1749  -18.0927  -49.9546 C.ar      23 UNK        -0.0193 
     12 C12        -1.3284  -19.1651  -50.2479 C.ar      23 UNK        -0.1150 
     13 C13         0.0588  -19.0288  -50.1403 C.ar      23 UNK        -0.0193 
     14 C14         0.5953  -17.7955  -49.7526 C.ar      23 UNK        -0.1150 
     15 C15         0.9563  -20.2307  -50.4250 C.3       23 UNK        -0.0205 
     16 S16         2.3085  -20.4819  -49.2167 S.3       23 UNK        -0.2404 
     17 C17         1.4773  -20.3179  -47.5972 C.3       23 UNK        -0.0398 
     18 CA          1.0140  -21.6519  -46.9688 C.3       11 UNK         0.1400 
     19 N           0.7359  -21.4898  -45.5408 N.am      11 UNK        -0.5000 
     20 C           0.4252  -22.4718  -44.6848 C.2       10 UNK         0.5000 
     21 O           0.3877  -23.6629  -44.9909 O.2       10 UNK        -0.5000 
     22 CA          0.0390  -22.0410  -43.2576 C.3       10 UNK         0.1400 
     23 CB          1.2863  -21.7330  -42.4160 C.3       10 UNK        -0.1800 
     24 N          -0.8609  -20.8859  -43.2488 N.am      10 UNK        -0.5000 
     25 C          -2.1027  -20.8963  -43.7557 C.2       9 UNK         0.5000 
     26 O          -2.6347  -21.8951  -44.2405 O.2       9 UNK        -0.5000 
     27 CA         -2.8624  -19.5581  -43.7626 C.3       9 UNK         0.1400 
     28 CB         -3.4627  -19.2651  -42.3797 C.3       9 UNK        -0.1800 
     29 N          -2.0252  -18.4346  -44.1838 N.am      9 UNK        -0.5000 
     30 C          -1.4671  -18.3155  -45.3971 C.2       8 UNK         0.5000 
     31 O          -1.6296  -19.1270  -46.3058 O.2       8 UNK        -0.5000 
     32 CA         -0.5216  -17.1218  -45.6154 C.3       8 UNK         0.1400 
     33 CB         -1.3194  -15.8351  -45.8680 C.3       8 UNK        -0.1800 
     34 N           0.4003  -16.9227  -44.4968 N.am      8 UNK        -0.5000 
     35 C           1.2992  -17.8282  -44.0845 C.2       7 UNK         0.5000 
     36 O           1.4786  -18.9121  -44.6359 O.2       7 UNK        -0.5000 
     37 CA          2.0965  -17.4975  -42.8150 C.3       7 UNK         0.1400 
     38 CB          3.3157  -16.6344  -43.1429 C.3       7 UNK        -0.1800 
     39 N           1.2757  -16.8188  -41.8176 N.am      7 UNK        -0.5000 
     40 C           0.3284  -17.4245  -41.0908 C.2       6 UNK         0.5000 
     41 O           0.0734  -18.6279  -41.1601 O.2       6 UNK        -0.5000 
     42 CA         -0.4998  -16.5145  -40.1665 C.3       6 UNK         0.1400 
     43 CB          0.2722  -16.1961  -38.8772 C.3       6 UNK        -0.1800 
     44 N          -0.8923  -15.2646  -40.8215 N.am      6 UNK        -0.5000 
     45 C          -1.7230  -15.1987  -41.8704 C.2       5 UNK         0.5000 
     46 O          -2.2496  -16.1836  -42.3864 O.2       5 UNK        -0.5000 
     47 CA         -2.0026  -13.8059  -42.4593 C.3       5 UNK         0.1400 
     48 CB         -3.1746  -13.1416  -41.7213 C.3       5 UNK        -0.1800 
     49 N          -0.8591  -12.8906  -42.4640 N.am      5 UNK        -0.5000 
     50 C           0.3297  -13.0979  -43.0488 C.2       4 UNK         0.5000 
     51 O           0.6669  -14.1713  -43.5536 O.2       4 UNK        -0.5000 
     52 CA          1.2538  -11.8643  -43.1371 C.3       4 UNK         0.1400 
     53 CB          1.1444  -10.9257  -41.9130 C.3       4 UNK        -0.1800 
     54 N           2.6560  -12.1784  -43.4210 N.am      4 UNK        -0.5000 
     55 C           3.5411  -12.7952  -42.6236 C.2       3 UNK         0.5000 
     56 O           3.2467  -13.2989  -41.5382 O.2       3 UNK        -0.5000 
     57 CA          5.0145  -12.7993  -43.0939 C.3       3 UNK         0.1400 
     58 CB          5.7430  -14.1235  -42.8085 C.3       3 UNK        -0.1800 
     59 N           5.1494  -12.4804  -44.5169 N.am      3 UNK        -0.5000 
     60 C           5.4314  -11.2685  -45.0174 C.2       2 UNK         0.5000 
     61 O           5.6639  -10.2810  -44.3197 O.2       2 UNK        -0.5000 
     62 CA          5.4337  -11.1180  -46.5542 C.3       2 UNK         0.1400 
     63 CB          6.8717  -11.1504  -47.0940 C.3       2 UNK        -0.1800 
     64 N           4.6458  -12.1389  -47.2488 N.am      2 UNK        -0.5000 
     65 C           3.3166  -12.2888  -47.1562 C.2       1 UNK         0.5000 
     66 O           2.5912  -11.5235  -46.5196 O.2       1 UNK        -0.5000 
     67 C          -0.1953  -22.2483  -47.7161 C.2       11 UNK         0.5000 
     68 O          -0.0286  -23.2203  -48.4511 O.2       11 UNK        -0.5000 
     69 N          -1.3932  -21.6916  -47.4830 N.am      12 UNK        -0.5000 
     70 CA         -2.6573  -22.1613  -48.0502 C.3       12 UNK         0.1400 
     71 CB         -3.7939  -21.2144  -47.6391 C.3       12 UNK        -0.1800 
     72 C          -2.9922  -23.6065  -47.6469 C.2       12 UNK         0.5000 
     73 O          -3.4110  -24.3871  -48.5021 O.2       12 UNK        -0.5000 
     74 N          -2.7703  -23.9423  -46.3682 N.am      13 UNK        -0.5000 
     75 CA         -2.9365  -25.2883  -45.8228 C.3       13 UNK         0.1400 
     76 CB         -2.8233  -25.2458  -44.2915 C.3       13 UNK        -0.1800 
     77 C          -1.9385  -26.2946  -46.4224 C.2       13 UNK         0.5000 
     78 O          -2.3487  -27.3876  -46.8130 O.2       13 UNK        -0.5000 
     79 N          -0.6610  -25.8989  -46.5223 N.am      14 UNK        -0.5000 
     80 CA          0.4147  -26.6924  -47.1230 C.3       14 UNK         0.1400 
     81 CB          1.7654  -26.0081  -46.8632 C.3       14 UNK        -0.1800 
     82 C           0.2102  -26.9385  -48.6294 C.2       14 UNK         0.5000 
     83 O           0.4618  -28.0460  -49.1057 O.2       14 UNK        -0.5000 
     84 N          -0.2718  -25.9127  -49.3430 N.am      15 UNK        -0.5000 
     85 CA         -0.6331  -25.9721  -50.7594 C.3       15 UNK         0.1400 
     86 CB         -0.7342  -24.5377  -51.3066 C.3       15 UNK        -0.1800 
     87 C          -1.9494  -26.7274  -51.0257 C.2       15 UNK         0.5000 
     88 O          -2.2209  -27.0543  -52.1790 O.2       15 UNK        -0.5000 
     89 N          -2.7622  -26.9492  -49.9819 N.am      16 UNK        -0.5000 
     90 CA         -4.1217  -27.5004  -50.0190 C.3       16 UNK         0.1400 
     91 CB         -4.1030  -28.9864  -50.4326 C.3       16 UNK        -0.1800 
     92 C          -5.0724  -26.6365  -50.8773 C.2       16 UNK         0.5000 
     93 O          -5.8593  -27.1642  -51.6649 O.2       16 UNK        -0.5000 
     94 N          -4.9448  -25.3105  -50.7172 N.am      17 UNK        -0.5000 
     95 CA         -5.6679  -24.2374  -51.4092 C.3       17 UNK         0.1400 
     96 CB         -7.1759  -24.2939  -51.0911 C.3       17 UNK        -0.1800 
     97 C          -5.3902  -24.1362  -52.9268 C.2       17 UNK         0.5000 
     98 O          -6.1141  -23.4223  -53.6243 O.2       17 UNK        -0.5000 
     99 N          -4.3241  -24.7899  -53.4182 N.am      18 UNK        -0.5000 
    100 CA        -3.9190  -24.8122  -54.8320 C.3       18 UNK         0.1400 
    101 CB        -2.8127  -25.8577  -55.0337 C.3       18 UNK        -0.1800 
    102 C         -3.4816  -23.4481  -55.4071 C.2       18 UNK         0.5000 
    103 O         -3.3478  -23.3252  -56.6253 O.2       18 UNK        -0.5000 
    104 N         -3.2949  -22.4442  -54.5372 N.am      19 UNK        -0.5000 
    105 CA        -3.0888  -21.0391  -54.8946 C.3       19 UNK         0.1400 
    106 CB        -2.8078  -20.2358  -53.6144 C.3       19 UNK        -0.1800 
    107 C         -4.2778  -20.4275  -55.6668 C.2       19 UNK         0.5000 
    108 O         -4.0631  -19.5240  -56.4756 O.2       19 UNK        -0.5000 
    109 N         -5.4939  -20.9438  -55.4168 N.am      20 UNK        -0.5000 
    110 CA        -6.7815  -20.6694  -56.0717 C.3       20 UNK         0.1400 
    111 CB        -6.7368  -21.0512  -57.5629 C.3       20 UNK        -0.1800 
    112 C         -7.3277  -19.2409  -55.8809 C.2       20 UNK         0.5000 
    113 O         -8.4861  -19.0823  -55.4917 O.2       20 UNK        -0.5000 
    114 N         -6.4866  -18.2275  -56.1207 N.am      21 UNK        -0.5000 
    115 CA        -6.7859  -16.7974  -55.9915 C.3       21 UNK         0.1400 
    116 CB        -5.5815  -15.9930  -56.5033 C.3       21 UNK        -0.1800 
    117 C         -7.1538  -16.3655  -54.5580 C.2       21 UNK         0.5000 
    118 O         -7.8232  -15.3469  -54.3804 O.2       21 UNK        -0.5000 
    119 N         -6.7294  -17.1626  -53.5712 N.am      22 UNK        -0.5000 
    120 CA        -7.0990  -17.0449  -52.1547 C.3       22 UNK         0.1400 
    121 C         -8.5831  -17.4094  -51.8460 C.2       22 UNK         0.5000 
    122 N         -9.3277  -18.0332  -52.7533 N.am      22 UNK        -0.7600 
    123 O         -9.0704  -17.1155  -50.7580 O.2       22 UNK        -0.5000 
    124 C124       -6.1456  -17.8703  -51.2547 C.3       23 UNK        -0.0398 
    125 S125       -4.3882  -17.4348  -51.4812 S.3       23 UNK        -0.2404 
    126 C126       -3.6832  -18.2626  -50.0276 C.3       23 UNK        -0.0205 
    127 H127        6.1302  -16.3775  -47.1117 H         1 UNK         0.0600 
    128 H128        5.0774  -16.6971  -48.4948 H         1 UNK         0.0600 
    129 H129        4.7077  -17.4089  -46.9214 H         1 UNK         0.0600 
    130 H130        3.7504  -14.9658  -48.9713 H         1 UNK         0.3000 
    131 H131        1.9328  -13.8770  -47.1481 H         1 UNK         0.0600 
    132 H132        1.1823  -12.4444  -48.9746 H         1 UNK         0.0800 
    133 H133        2.7000  -12.5997  -49.8178 H         1 UNK         0.0800 
    134 H134       -0.4355  -14.7610  -48.5404 H         1 UNK         0.0800 
    135 H135        0.9706  -15.6822  -48.0501 H         1 UNK         0.0800 
    136 H136       -2.2821  -16.0497  -49.3057 H         1 UNK         0.1150 
    137 H137       -1.7528  -20.1137  -50.5440 H         1 UNK         0.1150 
    138 H138        1.6659  -17.6803  -49.6581 H         1 UNK         0.1150 
    139 H139        0.3638  -21.1459  -50.4666 H         1 UNK         0.0800 
    140 H140        1.3942  -20.1084  -51.4162 H         1 UNK         0.0800 
    141 H141        0.6571  -19.6028  -47.6412 H         1 UNK         0.0800 
    142 H142        2.2188  -19.8573  -46.9441 H         1 UNK         0.0800 
    143 H143        1.8347  -22.3678  -47.0479 H         1 UNK         0.0600 
    144 H144        0.7895  -20.5387  -45.1831 H         1 UNK         0.3000 
    145 H145       -0.4864  -22.8764  -42.7900 H         1 UNK         0.0600 
    146 H146        1.0168  -21.4812  -41.3901 H         1 UNK         0.0600 
    147 H147        1.9517  -22.5962  -42.3760 H         1 UNK         0.0600 
    148 H148        1.8558  -20.8987  -42.8251 H         1 UNK         0.0600 
    149 H149       -0.5026  -20.0275  -42.8484 H         1 UNK         0.3000 
    150 H150       -3.6830  -19.6473  -44.4774 H         1 UNK         0.0600 
    151 H151       -4.0921  -20.0898  -42.0431 H         1 UNK         0.0600 
    152 H152       -4.0844  -18.3700  -42.4031 H         1 UNK         0.0600 
    153 H153       -2.6875  -19.1128  -41.6279 H         1 UNK         0.0600 
    154 H154       -1.8840  -17.6936  -43.5023 H         1 UNK         0.3000 
    155 H155        0.0801  -17.3343  -46.5005 H         1 UNK         0.0600 
    156 H156       -1.9902  -15.6116  -45.0407 H         1 UNK         0.0600 
    157 H157       -1.9351  -15.9300  -46.7624 H         1 UNK         0.0600 
    158 H158       -0.6608  -14.9780  -46.0085 H         1 UNK         0.0600 
    159 H159        0.3598  -16.0264  -44.0194 H         1 UNK         0.3000 
    160 H160        2.4540  -18.4375  -42.3893 H         1 UNK         0.0600 
    161 H161        3.0190  -15.6638  -43.5408 H         1 UNK         0.0600 
    162 H162        3.9507  -17.1159  -43.8878 H         1 UNK         0.0600 
    163 H163        3.9227  -16.4634  -42.2541 H         1 UNK         0.0600 
    164 H164        1.3833  -15.8163  -41.7466 H         1 UNK         0.3000 
    165 H165       -1.4090  -17.0557  -39.8955 H         1 UNK         0.0600 
    166 H166       -0.3404  -15.6202  -38.1833 H         1 UNK         0.0600 
    167 H167        0.5690  -17.1120  -38.3644 H         1 UNK         0.0600 
    168 H168        1.1787  -15.6240  -39.0794 H         1 UNK         0.0600 
    169 H169       -0.4916  -14.4091  -40.4659 H         1 UNK         0.3000 
    170 H170       -2.3023  -13.9450  -43.4986 H         1 UNK         0.0600 
    171 H171       -4.0530  -13.7887  -41.7194 H         1 UNK         0.0600 
    172 H172       -2.9249  -12.9242  -40.6821 H         1 UNK         0.0600 
    173 H173       -3.4647  -12.2063  -42.2004 H         1 UNK         0.0600 
    174 H174       -1.0327  -11.9770  -42.0711 H         1 UNK         0.3000 
    175 H175        0.9081  -11.3041  -44.0069 H         1 UNK         0.0600 
    176 H176        1.3373  -11.4531  -40.9781 H         1 UNK         0.0600 
    177 H177        1.8582  -10.1047  -41.9837 H         1 UNK         0.0600 
    178 H178        0.1550  -10.4736  -41.8397 H         1 UNK         0.0600 
    179 H179        2.9845  -11.8610  -44.3239 H         1 UNK         0.3000 
    180 H180        5.5118  -12.0323  -42.4971 H         1 UNK         0.0600 
    181 H181        5.4055  -14.9201  -43.4684 H         1 UNK         0.0600 
    182 H182        5.5957  -14.4533  -41.7796 H         1 UNK         0.0600 
    183 H183        6.8168  -14.0119  -42.9585 H         1 UNK         0.0600 
    184 H184        4.9280  -13.2407  -45.1536 H         1 UNK         0.3000 
    185 H185        5.0011  -10.1430  -46.7879 H         1 UNK         0.0600 
    186 H186        7.4843  -10.3813  -46.6216 H         1 UNK         0.0600 
    187 H187        7.3499  -12.1125  -46.9059 H         1 UNK         0.0600 
    188 H188        6.8948  -10.9670  -48.1684 H         1 UNK         0.0600 
    189 H189        5.1630  -12.8257  -47.7784 H         1 UNK         0.3000 
    190 H190       -1.4452  -20.8592  -46.8987 H         1 UNK         0.3000 
    191 H191       -2.5606  -22.1299  -49.1371 H         1 UNK         0.0600 
    192 H192       -3.9744  -21.2439  -46.5643 H         1 UNK         0.0600 
    193 H193       -4.7261  -21.4825  -48.1377 H         1 UNK         0.0600 
    194 H194       -3.5645  -20.1833  -47.9022 H         1 UNK         0.0600 
    195 H195       -2.4716  -23.2212  -45.7182 H         1 UNK         0.3000 
    196 H196       -3.9427  -25.6280  -46.0769 H         1 UNK         0.0600 
    197 H197       -2.9592  -26.2388  -43.8616 H         1 UNK         0.0600 
    198 H198       -3.5851  -24.5968  -43.8592 H         1 UNK         0.0600 
    199 H199       -1.8497  -24.8773  -43.9678 H         1 UNK         0.0600 
    200 H200       -0.3959  -24.9943  -46.1409 H         1 UNK         0.3000 
    201 H201        0.4268  -27.6653  -46.6275 H         1 UNK         0.0600 
    202 H202        1.9576  -25.9098  -45.7947 H         1 UNK         0.0600 
    203 H203        1.8022  -25.0106  -47.3021 H         1 UNK         0.0600 
    204 H204        2.5859  -26.5864  -47.2897 H         1 UNK         0.0600 
    205 H205       -0.3758  -25.0076  -48.8890 H         1 UNK         0.3000 
    206 H206        0.1608  -26.4913  -51.2998 H         1 UNK         0.0600 
    207 H207        0.2052  -23.9997  -51.1779 H         1 UNK         0.0600 
    208 H208       -0.9642  -24.5362  -52.3726 H         1 UNK         0.0600 
    209 H209       -1.5160  -23.9699  -50.8005 H         1 UNK         0.0600 
    210 H210       -2.4561  -26.6188  -49.0761 H         1 UNK         0.3000 
    211 H211       -4.4994  -27.4468  -48.9969 H         1 UNK         0.0600 
    212 H212       -3.7859  -29.1175  -51.4675 H         1 UNK         0.0600 
    213 H213       -5.0946  -29.4300  -50.3365 H         1 UNK         0.0600 
    214 H214       -3.4276  -29.5615  -49.7992 H         1 UNK         0.0600 
    215 H215       -4.2836  -24.9955  -50.0083 H         1 UNK         0.3000 
    216 H216       -5.2843  -23.3098  -50.9820 H         1 UNK         0.0600 
    217 H217       -7.6895  -23.4068  -51.4637 H         1 UNK         0.0600 
    218 H218       -7.3505  -24.3389  -50.0161 H         1 UNK         0.0600 
    219 H219       -7.6544  -25.1613  -51.5463 H         1 UNK         0.0600 
    220 H220       -3.7862  -25.3746  -52.7920 H         1 UNK         0.3000 
    221 H221       -4.7877  -25.1302  -55.4120 H         1 UNK         0.0600 
    222 H222       -1.9142  -25.6056  -54.4700 H         1 UNK         0.0600 
    223 H223       -3.1442  -26.8476  -54.7200 H         1 UNK         0.0600 
    224 H224       -2.5288  -25.9333  -56.0841 H         1 UNK         0.0600 
    225 H225       -3.4089  -22.6490  -53.5566 H         1 UNK         0.3000 
    226 H226       -2.2101  -20.9813  -55.5401 H         1 UNK         0.0600 
    227 H227       -2.6376  -19.1824  -53.8414 H         1 UNK         0.0600 
    228 H228       -3.6417  -20.2873  -52.9131 H         1 UNK         0.0600 
    229 H229       -1.9169  -20.6034  -53.1051 H         1 UNK         0.0600 
    230 H230       -5.5415  -21.6818  -54.7223 H         1 UNK         0.3000 
    231 H231       -7.4957  -21.3391  -55.5896 H         1 UNK         0.0600 
    232 H232       -6.4323  -22.0899  -57.6929 H         1 UNK         0.0600 
    233 H233       -6.0417  -20.4265  -58.1246 H         1 UNK         0.0600 
    234 H234       -7.7194  -20.9398  -58.0229 H         1 UNK         0.0600 
    235 H235       -5.5398  -18.4756  -56.4012 H         1 UNK         0.3000 
    236 H236       -7.6448  -16.5785  -56.6289 H         1 UNK         0.0600 
    237 H237       -5.7738  -14.9207  -56.4486 H         1 UNK         0.0600 
    238 H238       -4.6850  -16.1975  -55.9164 H         1 UNK         0.0600 
    239 H239       -5.3621  -16.2306  -57.5444 H         1 UNK         0.0600 
    240 H240       -6.1676  -17.9626  -53.8184 H         1 UNK         0.3000 
    241 H241       -6.9842  -15.9948  -51.8792 H         1 UNK         0.0600 
    242 H242       -8.9534  -18.2890  -53.6602 H         1 UNK         0.3800 
    243 H243      -10.2858  -18.2555  -52.5339 H         1 UNK         0.3800 
    244 H244       -6.4007  -17.7209  -50.2038 H         1 UNK         0.0800 
    245 H245       -6.2630  -18.9376  -51.4515 H         1 UNK         0.0800 
    246 H246       -4.1360  -17.8615  -49.1195 H         1 UNK         0.0800 
    247 H247       -3.9462  -19.3204  -50.0676 H         1 UNK         0.0800 
@<TRIPOS>BOND
     1    1    2 1    
     2    1  127 1    
     3    1  128 1    
     4    1  129 1    
     5    2    3 2    
     6    2    4 am   BACKBONE|DICT|INTERRES
     7    4    5 1    
     8    4  130 1    
     9    5    6 1    
    10    5   65 1    
    11    5  131 1    
    12    6    7 1    
    13    6  132 1    
    14    6  133 1    
    15    7    8 1    
    16    8    9 1    
    17    8  134 1    
    18    8  135 1    
    19    9   10 ar   
    20    9   14 ar   
    21   10   11 ar   
    22   10  136 1    
    23   11   12 ar   
    24   11  126 1    
    25   12   13 ar   
    26   12  137 1    
    27   13   14 ar   
    28   13   15 1    
    29   14  138 1    
    30   15   16 1    
    31   15  139 1    
    32   15  140 1    
    33   16   17 1    
    34   17   18 1    
    35   17  141 1    
    36   17  142 1    
    37   18   19 1    
    38   18   67 1    
    39   18  143 1    
    40   19   20 am   BACKBONE|DICT|INTERRES
    41   19  144 1    
    42   20   21 2    
    43   20   22 1    
    44   22   23 1    
    45   22   24 1    
    46   22  145 1    
    47   23  146 1    
    48   23  147 1    
    49   23  148 1    
    50   24   25 am   BACKBONE|DICT|INTERRES
    51   24  149 1    
    52   25   26 2    
    53   25   27 1    
    54   27   28 1    
    55   27   29 1    
    56   27  150 1    
    57   28  151 1    
    58   28  152 1    
    59   28  153 1    
    60   29   30 am   BACKBONE|DICT|INTERRES
    61   29  154 1    
    62   30   31 2    
    63   30   32 1    
    64   32   33 1    
    65   32   34 1    
    66   32  155 1    
    67   33  156 1    
    68   33  157 1    
    69   33  158 1    
    70   34   35 am   BACKBONE|DICT|INTERRES
    71   34  159 1    
    72   35   36 2    
    73   35   37 1    
    74   37   38 1    
    75   37   39 1    
    76   37  160 1    
    77   38  161 1    
    78   38  162 1    
    79   38  163 1    
    80   39   40 am   BACKBONE|DICT|INTERRES
    81   39  164 1    
    82   40   41 2    
    83   40   42 1    
    84   42   43 1    
    85   42   44 1    
    86   42  165 1    
    87   43  166 1    
    88   43  167 1    
    89   43  168 1    
    90   44   45 am   BACKBONE|DICT|INTERRES
    91   44  169 1    
    92   45   46 2    
    93   45   47 1    
    94   47   48 1    
    95   47   49 1    
    96   47  170 1    
    97   48  171 1    
    98   48  172 1    
    99   48  173 1    
   100   49   50 am   BACKBONE|DICT|INTERRES
   101   49  174 1    
   102   50   51 2    
   103   50   52 1    
   104   52   53 1    
   105   52   54 1    
   106   52  175 1    
   107   53  176 1    
   108   53  177 1    
   109   53  178 1    
   110   54   55 am   BACKBONE|DICT|INTERRES
   111   54  179 1    
   112   55   56 2    
   113   55   57 1    
   114   57   58 1    
   115   57   59 1    
   116   57  180 1    
   117   58  181 1    
   118   58  182 1    
   119   58  183 1    
   120   59   60 am   BACKBONE|DICT|INTERRES
   121   59  184 1    
   122   60   61 2    
   123   60   62 1    
   124   62   63 1    
   125   62   64 1    
   126   62  185 1    
   127   63  186 1    
   128   63  187 1    
   129   63  188 1    
   130   64   65 am   BACKBONE|DICT|INTERRES
   131   64  189 1    
   132   65   66 2    
   133   67   68 2    
   134   67   69 am   BACKBONE|DICT|INTERRES
   135   69   70 1    
   136   69  190 1    
   137   70   71 1    
   138   70   72 1    
   139   70  191 1    
   140   71  192 1    
   141   71  193 1    
   142   71  194 1    
   143   72   73 2    
   144   72   74 am   BACKBONE|DICT|INTERRES
   145   74   75 1    
   146   74  195 1    
   147   75   76 1    
   148   75   77 1    
   149   75  196 1    
   150   76  197 1    
   151   76  198 1    
   152   76  199 1    
   153   77   78 2    
   154   77   79 am   BACKBONE|DICT|INTERRES
   155   79   80 1    
   156   79  200 1    
   157   80   81 1    
   158   80   82 1    
   159   80  201 1    
   160   81  202 1    
   161   81  203 1    
   162   81  204 1    
   163   82   83 2    
   164   82   84 am   BACKBONE|DICT|INTERRES
   165   84   85 1    
   166   84  205 1    
   167   85   86 1    
   168   85   87 1    
   169   85  206 1    
   170   86  207 1    
   171   86  208 1    
   172   86  209 1    
   173   87   88 2    
   174   87   89 am   BACKBONE|DICT|INTERRES
   175   89   90 1    
   176   89  210 1    
   177   90   91 1    
   178   90   92 1    
   179   90  211 1    
   180   91  212 1    
   181   91  213 1    
   182   91  214 1    
   183   92   93 2    
   184   92   94 am   BACKBONE|DICT|INTERRES
   185   94   95 1    
   186   94  215 1    
   187   95   96 1    
   188   95   97 1    
   189   95  216 1    
   190   96  217 1    
   191   96  218 1    
   192   96  219 1    
   193   97   98 2    
   194   97   99 am   BACKBONE|DICT|INTERRES
   195   99  100 1    
   196   99  220 1    
   197  100  101 1    
   198  100  102 1    
   199  100  221 1    
   200  101  222 1    
   201  101  223 1    
   202  101  224 1    
   203  102  103 2    
   204  102  104 am   BACKBONE|DICT|INTERRES
   205  104  105 1    
   206  104  225 1    
   207  105  106 1    
   208  105  107 1    
   209  105  226 1    
   210  106  227 1    
   211  106  228 1    
   212  106  229 1    
   213  107  108 2    
   214  107  109 am   BACKBONE|DICT|INTERRES
   215  109  110 1    
   216  109  230 1    
   217  110  111 1    
   218  110  112 1    
   219  110  231 1    
   220  111  232 1    
   221  111  233 1    
   222  111  234 1    
   223  112  113 2    
   224  112  114 am   BACKBONE|DICT|INTERRES
   225  114  115 1    
   226  114  235 1    
   227  115  116 1    
   228  115  117 1    
   229  115  236 1    
   230  116  237 1    
   231  116  238 1    
   232  116  239 1    
   233  117  118 2    
   234  117  119 am   BACKBONE|DICT|INTERRES
   235  119  120 1    
   236  119  240 1    
   237  120  121 1    
   238  120  124 1    
   239  120  241 1    
   240  121  122 am   BACKBONE|DICT|INTERRES
   241  121  123 2    
   242  122  242 1    
   243  122  243 1    
   244  124  125 1    
   245  124  244 1    
   246  124  245 1    
   247  125  126 1    
   248  126  246 1    
   249  126  247 1    
@<TRIPOS>SUBSTRUCTURE
     1 UNK         1 GROUP             0       ****    0 ROOT    
