@<TRIPOS>MOLECULE
3R540
247   249    1
SMALL
USER_CHARGES


@<TRIPOS>ATOM
      1 CA          4.8169  -16.2211  -43.5027 C.3       0 UNK        -0.1800 
      2 C           3.5515  -15.3775  -43.5671 C.2       0 UNK         0.5000 
      3 O           2.8280  -15.2858  -42.5766 O.2       0 UNK        -0.5000 
      4 N           3.2874  -14.7636  -44.7277 N.am      1 UNK        -0.5000 
      5 CA          2.0921  -13.9503  -44.9991 C.3       1 UNK         0.1400 
      6 C6          1.7971  -13.8483  -46.5151 C.3       23 UNK        -0.0398 
      7 S7          1.5090  -15.4891  -47.2562 S.3       23 UNK        -0.2404 
      8 C8          0.2199  -15.1118  -48.4911 C.3       23 UNK        -0.0205 
      9 C9         -0.2916  -16.3560  -49.2111 C.ar      23 UNK        -0.0193 
     10 C10        -1.6621  -16.5193  -49.4443 C.ar      23 UNK        -0.1150 
     11 C11        -2.1444  -17.6566  -50.1020 C.ar      23 UNK        -0.0193 
     12 C12        -1.2464  -18.6420  -50.5151 C.ar      23 UNK        -0.1150 
     13 C13         0.1247  -18.4892  -50.2948 C.ar      23 UNK        -0.0193 
     14 C14         0.5964  -17.3381  -49.6625 C.ar      23 UNK        -0.1150 
     15 C15         1.0962  -19.5789  -50.7179 C.3       23 UNK        -0.0205 
     16 S16         1.7922  -20.4659  -49.2829 S.3       23 UNK        -0.2404 
     17 C17         0.2866  -21.0301  -48.4197 C.3       23 UNK        -0.0398 
     18 CA          0.3301  -22.5274  -48.0492 C.3       11 UNK         0.1400 
     19 N           1.4220  -22.8589  -47.1327 N.am      11 UNK        -0.5000 
     20 C           1.8224  -24.1047  -46.8461 C.2       10 UNK         0.5000 
     21 O           1.3257  -25.1164  -47.3416 O.2       10 UNK        -0.5000 
     22 CA          2.9315  -24.2387  -45.7877 C.3       10 UNK         0.1400 
     23 CB          4.3106  -23.9668  -46.4070 C.3       10 UNK        -0.1800 
     24 N           2.7226  -23.3428  -44.6486 N.am      10 UNK        -0.5000 
     25 C           1.7008  -23.4465  -43.7874 C.2       9 UNK         0.5000 
     26 O           0.8498  -24.3342  -43.8403 O.2       9 UNK        -0.5000 
     27 CA          1.5832  -22.3479  -42.7143 C.3       9 UNK         0.1400 
     28 CB          2.4449  -22.6958  -41.4914 C.3       9 UNK        -0.1800 
     29 N           1.9300  -21.0024  -43.1864 N.am      9 UNK        -0.5000 
     30 C           1.3269  -20.3651  -44.1990 C.2       8 UNK         0.5000 
     31 O           0.4810  -20.8870  -44.9281 O.2       8 UNK        -0.5000 
     32 CA          1.7717  -18.9139  -44.4637 C.3       8 UNK         0.1400 
     33 CB          2.9636  -18.8943  -45.4331 C.3       8 UNK        -0.1800 
     34 N           0.6987  -18.0993  -45.0336 N.am      8 UNK        -0.5000 
     35 C          -0.4721  -17.8307  -44.4413 C.2       7 UNK         0.5000 
     36 O          -0.7764  -18.2014  -43.3041 O.2       7 UNK        -0.5000 
     37 CA         -1.4829  -17.0434  -45.2975 C.3       7 UNK         0.1400 
     38 CB         -2.2618  -18.0004  -46.2111 C.3       7 UNK        -0.1800 
     39 N          -2.4384  -16.2540  -44.5171 N.am      7 UNK        -0.5000 
     40 C          -2.1126  -15.2508  -43.6930 C.2       6 UNK         0.5000 
     41 O          -0.9544  -14.9138  -43.4412 O.2       6 UNK        -0.5000 
     42 CA         -3.2834  -14.4890  -43.0402 C.3       6 UNK         0.1400 
     43 CB         -3.6850  -15.1484  -41.7118 C.3       6 UNK        -0.1800 
     44 N          -2.9342  -13.0888  -42.7892 N.am      6 UNK        -0.5000 
     45 C          -2.6783  -12.1855  -43.7456 C.2       5 UNK         0.5000 
     46 O          -2.8712  -12.4049  -44.9449 O.2       5 UNK        -0.5000 
     47 CA         -2.1204  -10.8193  -43.2883 C.3       5 UNK         0.1400 
     48 CB         -1.3313  -10.8947  -41.9652 C.3       5 UNK        -0.1800 
     49 N          -1.2379  -10.2707  -44.3143 N.am      5 UNK        -0.5000 
     50 C          -1.6131   -9.4601  -45.3103 C.2       4 UNK         0.5000 
     51 O          -2.7513   -9.0005  -45.4297 O.2       4 UNK        -0.5000 
     52 CA         -0.5098   -9.0986  -46.3283 C.3       4 UNK         0.1400 
     53 CB         -0.9764   -8.0931  -47.4021 C.3       4 UNK        -0.1800 
     54 N           0.7220   -8.6312  -45.6819 N.am      4 UNK        -0.5000 
     55 C           0.8689   -7.5798  -44.8620 C.2       3 UNK         0.5000 
     56 O          -0.0475   -6.8162  -44.5520 O.2       3 UNK        -0.5000 
     57 CA          2.2829   -7.3687  -44.2766 C.3       3 UNK         0.1400 
     58 CB          2.3565   -6.1733  -43.3088 C.3       3 UNK        -0.1800 
     59 N           2.7572   -8.5645  -43.5774 N.am      3 UNK        -0.5000 
     60 C           3.2916   -9.6455  -44.1580 C.2       2 UNK         0.5000 
     61 O           3.4933   -9.7246  -45.3727 O.2       2 UNK        -0.5000 
     62 CA          3.6392  -10.8452  -43.2476 C.3       2 UNK         0.1400 
     63 CB          2.9800  -10.7837  -41.8506 C.3       2 UNK        -0.1800 
     64 N           3.3399  -12.1307  -43.8879 N.am      2 UNK        -0.5000 
     65 C           2.1533  -12.5433  -44.3626 C.2       1 UNK         0.5000 
     66 O           1.1300  -11.8575  -44.3278 O.2       1 UNK        -0.5000 
     67 C          -1.0303  -22.9677  -47.4826 C.2       11 UNK         0.5000 
     68 O          -1.8496  -23.4890  -48.2333 O.2       11 UNK        -0.5000 
     69 N          -1.2393  -22.7802  -46.1728 N.am      12 UNK        -0.5000 
     70 CA         -2.4400  -23.2107  -45.4575 C.3       12 UNK         0.1400 
     71 CB         -2.4148  -22.6425  -44.0309 C.3       12 UNK        -0.1800 
     72 C          -2.6064  -24.7428  -45.4410 C.2       12 UNK         0.5000 
     73 O          -3.7274  -25.2298  -45.5887 O.2       12 UNK        -0.5000 
     74 N          -1.4911  -25.4709  -45.2865 N.am      13 UNK        -0.5000 
     75 CA         -1.4414  -26.9318  -45.3346 C.3       13 UNK         0.1400 
     76 CB         -0.0913  -27.4174  -44.7844 C.3       13 UNK        -0.1800 
     77 C          -1.6883  -27.4879  -46.7494 C.2       13 UNK         0.5000 
     78 O          -2.4591  -28.4364  -46.9017 O.2       13 UNK        -0.5000 
     79 N          -1.0330  -26.8921  -47.7552 N.am      14 UNK        -0.5000 
     80 CA         -1.1560  -27.2721  -49.1652 C.3       14 UNK         0.1400 
     81 CB          0.0118  -26.6543  -49.9431 C.3       14 UNK        -0.1800 
     82 C          -2.4987  -26.8600  -49.7985 C.2       14 UNK         0.5000 
     83 O          -2.9757  -27.5425  -50.7064 O.2       14 UNK        -0.5000 
     84 N          -3.0753  -25.7533  -49.3133 N.am      15 UNK        -0.5000 
     85 CA         -4.3150  -25.1220  -49.7584 C.3       15 UNK         0.1400 
     86 CB         -5.5292  -26.0176  -49.4208 C.3       15 UNK        -0.1800 
     87 C          -4.2228  -24.6841  -51.2349 C.2       15 UNK         0.5000 
     88 O          -3.2677  -23.9957  -51.6062 O.2       15 UNK        -0.5000 
     89 N          -5.1934  -25.1084  -52.0562 N.am      16 UNK        -0.5000 
     90 CA         -5.3274  -24.7689  -53.4747 C.3       16 UNK         0.1400 
     91 CB         -6.6280  -25.3817  -54.0147 C.3       16 UNK        -0.1800 
     92 C          -4.1300  -25.1808  -54.3541 C.2       16 UNK         0.5000 
     93 O          -3.9443  -24.6010  -55.4242 O.2       16 UNK        -0.5000 
     94 N          -3.3344  -26.1557  -53.8902 N.am      17 UNK        -0.5000 
     95 CA         -2.1043  -26.6005  -54.5427 C.3       17 UNK         0.1400 
     96 CB         -1.6533  -27.9315  -53.9228 C.3       17 UNK        -0.1800 
     97 C          -0.9689  -25.5601  -54.4759 C.2       17 UNK         0.5000 
     98 O          -0.1160  -25.5577  -55.3647 O.2       17 UNK        -0.5000 
     99 N          -0.9684  -24.7000  -53.4453 N.am      18 UNK        -0.5000 
    100 CA        -0.0069  -23.6052  -53.3104 C.3       18 UNK         0.1400 
    101 CB         0.2355  -23.2920  -51.8290 C.3       18 UNK        -0.1800 
    102 C         -0.4764  -22.3621  -54.0808 C.2       18 UNK         0.5000 
    103 O          0.3001  -21.8010  -54.8547 O.2       18 UNK        -0.5000 
    104 N         -1.7446  -21.9804  -53.8908 N.am      19 UNK        -0.5000 
    105 CA        -2.4244  -20.9354  -54.6484 C.3       19 UNK         0.1400 
    106 CB        -2.0114  -19.5351  -54.1602 C.3       19 UNK        -0.1800 
    107 C         -3.9308  -21.1400  -54.4805 C.2       19 UNK         0.5000 
    108 O         -4.3840  -21.3591  -53.3554 O.2       19 UNK        -0.5000 
    109 N         -4.6813  -21.0336  -55.5853 N.am      20 UNK        -0.5000 
    110 CA        -6.1273  -21.2772  -55.6589 C.3       20 UNK         0.1400 
    111 CB        -6.5935  -21.1099  -57.1125 C.3       20 UNK        -0.1800 
    112 C         -6.9708  -20.3963  -54.7172 C.2       20 UNK         0.5000 
    113 O         -8.0046  -20.8517  -54.2271 O.2       20 UNK        -0.5000 
    114 N         -6.4829  -19.1804  -54.4314 N.am      21 UNK        -0.5000 
    115 CA        -7.0559  -18.2345  -53.4689 C.3       21 UNK         0.1400 
    116 CB        -6.2572  -16.9232  -53.5323 C.3       21 UNK        -0.1800 
    117 C         -7.1033  -18.7613  -52.0184 C.2       21 UNK         0.5000 
    118 O         -7.9314  -18.2923  -51.2368 O.2       21 UNK        -0.5000 
    119 N         -6.2335  -19.7263  -51.6973 N.am      22 UNK        -0.5000 
    120 CA        -6.1830  -20.4484  -50.4194 C.3       22 UNK         0.1400 
    121 C         -6.7217  -21.9047  -50.5358 C.2       22 UNK         0.5000 
    122 N         -7.3549  -22.3049  -51.6335 N.am      22 UNK        -0.7600 
    123 O         -6.6029  -22.6830  -49.5949 O.2       22 UNK        -0.5000 
    124 C124       -4.7613  -20.3720  -49.7975 C.3       23 UNK        -0.0398 
    125 S125       -4.4688  -18.7320  -49.0480 S.3       23 UNK        -0.2404 
    126 C126       -3.6315  -17.8155  -50.3777 C.3       23 UNK        -0.0205 
    127 H127        4.5728  -17.2418  -43.2085 H         1 UNK         0.0600 
    128 H128        5.5059  -15.8086  -42.7658 H         1 UNK         0.0600 
    129 H129        5.3288  -16.2593  -44.4647 H         1 UNK         0.0600 
    130 H130        3.9149  -14.8881  -45.5096 H         1 UNK         0.3000 
    131 H131        1.2444  -14.4551  -44.5377 H         1 UNK         0.0600 
    132 H132        0.9153  -13.2280  -46.6874 H         1 UNK         0.0800 
    133 H133        2.6218  -13.3648  -47.0414 H         1 UNK         0.0800 
    134 H134       -0.6056  -14.6018  -47.9917 H         1 UNK         0.0800 
    135 H135        0.6212  -14.4167  -49.2296 H         1 UNK         0.0800 
    136 H136       -2.3578  -15.7608  -49.1137 H         1 UNK         0.1150 
    137 H137       -1.6169  -19.5349  -50.9973 H         1 UNK         0.1150 
    138 H138        1.6587  -17.2242  -49.4987 H         1 UNK         0.1150 
    139 H139        0.6034  -20.2837  -51.3867 H         1 UNK         0.0800 
    140 H140        1.9115  -19.1344  -51.2901 H         1 UNK         0.0800 
    141 H141        0.1477  -20.4082  -47.5341 H         1 UNK         0.0800 
    142 H142       -0.5788  -20.8469  -49.0568 H         1 UNK         0.0800 
    143 H143        0.4924  -23.0950  -48.9672 H         1 UNK         0.0600 
    144 H144        1.8442  -22.0845  -46.6428 H         1 UNK         0.3000 
    145 H145        2.9184  -25.2667  -45.4192 H         1 UNK         0.0600 
    146 H146        5.1077  -24.1332  -45.6823 H         1 UNK         0.0600 
    147 H147        4.4961  -24.6320  -47.2514 H         1 UNK         0.0600 
    148 H148        4.3960  -22.9422  -46.7715 H         1 UNK         0.0600 
    149 H149        3.3748  -22.5812  -44.5350 H         1 UNK         0.3000 
    150 H150        0.5400  -22.3188  -42.3940 H         1 UNK         0.0600 
    151 H151        2.1947  -23.6852  -41.1060 H         1 UNK         0.0600 
    152 H152        2.2860  -21.9843  -40.6809 H         1 UNK         0.0600 
    153 H153        3.5082  -22.6973  -41.7345 H         1 UNK         0.0600 
    154 H154        2.6297  -20.5108  -42.6494 H         1 UNK         0.3000 
    155 H155        2.0718  -18.4575  -43.5183 H         1 UNK         0.0600 
    156 H156        3.2999  -17.8757  -45.6269 H         1 UNK         0.0600 
    157 H157        2.7084  -19.3472  -46.3923 H         1 UNK         0.0600 
    158 H158        3.8126  -19.4439  -45.0249 H         1 UNK         0.0600 
    159 H159        0.8522  -17.7635  -45.9736 H         1 UNK         0.3000 
    160 H160       -0.9308  -16.3430  -45.9247 H         1 UNK         0.0600 
    161 H161       -2.8299  -18.7344  -45.6382 H         1 UNK         0.0600 
    162 H162       -1.5898  -18.5486  -46.8730 H         1 UNK         0.0600 
    163 H163       -2.9590  -17.4525  -46.8439 H         1 UNK         0.0600 
    164 H164       -3.4121  -16.4899  -44.6378 H         1 UNK         0.3000 
    165 H165       -4.1400  -14.5115  -43.7172 H         1 UNK         0.0600 
    166 H166       -2.8625  -15.1417  -40.9952 H         1 UNK         0.0600 
    167 H167       -4.5329  -14.6366  -41.2563 H         1 UNK         0.0600 
    168 H168       -3.9773  -16.1882  -41.8643 H         1 UNK         0.0600 
    169 H169       -2.7220  -12.8474  -41.8328 H         1 UNK         0.3000 
    170 H170       -2.9711  -10.1520  -43.1374 H         1 UNK         0.0600 
    171 H171       -1.9792  -11.1501  -41.1263 H         1 UNK         0.0600 
    172 H172       -0.5347  -11.6388  -42.0139 H         1 UNK         0.0600 
    173 H173       -0.8720   -9.9346  -41.7284 H         1 UNK         0.0600 
    174 H174       -0.3015  -10.6693  -44.3363 H         1 UNK         0.3000 
    175 H175       -0.2533  -10.0278  -46.8394 H         1 UNK         0.0600 
    176 H176       -0.1839   -7.8901  -48.1223 H         1 UNK         0.0600 
    177 H177       -1.8277   -8.4855  -47.9594 H         1 UNK         0.0600 
    178 H178       -1.2829   -7.1428  -46.9641 H         1 UNK         0.0600 
    179 H179        1.5447   -9.2050  -45.8346 H         1 UNK         0.3000 
    180 H180        2.9499   -7.1554  -45.1146 H         1 UNK         0.0600 
    181 H181        3.3732   -6.0229  -42.9453 H         1 UNK         0.0600 
    182 H182        2.0511   -5.2500  -43.8028 H         1 UNK         0.0600 
    183 H183        1.7081   -6.3143  -42.4431 H         1 UNK         0.0600 
    184 H184        2.5889   -8.5916  -42.5822 H         1 UNK         0.3000 
    185 H185        4.7204  -10.8165  -43.1073 H         1 UNK         0.0600 
    186 H186        3.2250  -11.6705  -41.2657 H         1 UNK         0.0600 
    187 H187        3.3315   -9.9230  -41.2807 H         1 UNK         0.0600 
    188 H188        1.8929  -10.7231  -41.9146 H         1 UNK         0.0600 
    189 H189        4.1237  -12.7573  -43.9989 H         1 UNK         0.3000 
    190 H190       -0.5370  -22.2782  -45.6342 H         1 UNK         0.3000 
    191 H191       -3.3036  -22.7883  -45.9757 H         1 UNK         0.0600 
    192 H192       -3.3297  -22.8962  -43.4943 H         1 UNK         0.0600 
    193 H193       -2.3316  -21.5552  -44.0400 H         1 UNK         0.0600 
    194 H194       -1.5773  -23.0370  -43.4559 H         1 UNK         0.0600 
    195 H195       -0.6163  -24.9912  -45.1015 H         1 UNK         0.3000 
    196 H196       -2.2278  -27.3189  -44.6831 H         1 UNK         0.0600 
    197 H197       -0.0295  -28.5061  -44.8034 H         1 UNK         0.0600 
    198 H198        0.0480  -27.1015  -43.7504 H         1 UNK         0.0600 
    199 H199        0.7455  -27.0295  -45.3663 H         1 UNK         0.0600 
    200 H200       -0.3750  -26.1485  -47.5416 H         1 UNK         0.3000 
    201 H201       -1.0781  -28.3587  -49.2401 H         1 UNK         0.0600 
    202 H202        0.9663  -27.0639  -49.6123 H         1 UNK         0.0600 
    203 H203        0.0427  -25.5768  -49.7906 H         1 UNK         0.0600 
    204 H204       -0.0730  -26.8405  -51.0143 H         1 UNK         0.0600 
    205 H205       -2.5423  -25.1904  -48.6565 H         1 UNK         0.3000 
    206 H206       -4.4088  -24.2042  -49.1770 H         1 UNK         0.0600 
    207 H207       -5.5413  -26.2637  -48.3587 H         1 UNK         0.0600 
    208 H208       -6.4686  -25.5075  -49.6375 H         1 UNK         0.0600 
    209 H209       -5.5201  -26.9565  -49.9751 H         1 UNK         0.0600 
    210 H210       -5.9166  -25.6949  -51.6668 H         1 UNK         0.3000 
    211 H211       -5.4178  -23.6855  -53.5368 H         1 UNK         0.0600 
    212 H212       -6.6184  -26.4701  -53.9445 H         1 UNK         0.0600 
    213 H213       -6.7772  -25.1211  -55.0634 H         1 UNK         0.0600 
    214 H214       -7.4959  -25.0157  -53.4661 H         1 UNK         0.0600 
    215 H215       -3.5500  -26.5711  -52.9935 H         1 UNK         0.3000 
    216 H216       -2.3270  -26.7777  -55.5971 H         1 UNK         0.0600 
    217 H217       -0.7736  -28.3219  -54.4360 H         1 UNK         0.0600 
    218 H218       -2.4348  -28.6879  -53.9963 H         1 UNK         0.0600 
    219 H219       -1.3934  -27.8183  -52.8705 H         1 UNK         0.0600 
    220 H220       -1.7340  -24.7197  -52.7800 H         1 UNK         0.3000 
    221 H221        0.9527  -23.9122  -53.7326 H         1 UNK         0.0600 
    222 H222       -0.6821  -23.0220  -51.3046 H         1 UNK         0.0600 
    223 H223        0.6810  -24.1477  -51.3280 H         1 UNK         0.0600 
    224 H224        0.9430  -22.4719  -51.7191 H         1 UNK         0.0600 
    225 H225       -2.3347  -22.4864  -53.2387 H         1 UNK         0.3000 
    226 H226       -2.1645  -21.0425  -55.7037 H         1 UNK         0.0600 
    227 H227       -0.9319  -19.3919  -54.2033 H         1 UNK         0.0600 
    228 H228       -2.4657  -18.7603  -54.7785 H         1 UNK         0.0600 
    229 H229       -2.3330  -19.3597  -53.1351 H         1 UNK         0.0600 
    230 H230       -4.2238  -20.8350  -56.4634 H         1 UNK         0.3000 
    231 H231       -6.2973  -22.3153  -55.3675 H         1 UNK         0.0600 
    232 H232       -7.6623  -21.3074  -57.2057 H         1 UNK         0.0600 
    233 H233       -6.0780  -21.8058  -57.7747 H         1 UNK         0.0600 
    234 H234       -6.4130  -20.0987  -57.4793 H         1 UNK         0.0600 
    235 H235       -5.6218  -18.9016  -54.8775 H         1 UNK         0.3000 
    236 H236       -8.0834  -18.0290  -53.7756 H         1 UNK         0.0600 
    237 H237       -5.2109  -17.0765  -53.2648 H         1 UNK         0.0600 
    238 H238       -6.2892  -16.4887  -54.5316 H         1 UNK         0.0600 
    239 H239       -6.6662  -16.1820  -52.8442 H         1 UNK         0.0600 
    240 H240       -5.6153  -20.0934  -52.4138 H         1 UNK         0.3000 
    241 H241       -6.8721  -19.9813  -49.7138 H         1 UNK         0.0600 
    242 H242       -7.7244  -23.2397  -51.6683 H         1 UNK         0.3800 
    243 H243       -7.5169  -21.6734  -52.4083 H         1 UNK         0.3800 
    244 H244       -3.9917  -20.6061  -50.5351 H         1 UNK         0.0800 
    245 H245       -4.6396  -21.1030  -48.9965 H         1 UNK         0.0800 
    246 H246       -3.7868  -18.3078  -51.3382 H         1 UNK         0.0800 
    247 H247       -4.0975  -16.8332  -50.4680 H         1 UNK         0.0800 
@<TRIPOS>BOND
     1    1    2 1    
     2    1  127 1    
     3    1  128 1    
     4    1  129 1    
     5    2    3 2    
     6    2    4 am   BACKBONE|DICT|INTERRES
     7    4    5 1    
     8    4  130 1    
     9    5    6 1    
    10    5   65 1    
    11    5  131 1    
    12    6    7 1    
    13    6  132 1    
    14    6  133 1    
    15    7    8 1    
    16    8    9 1    
    17    8  134 1    
    18    8  135 1    
    19    9   10 ar   
    20    9   14 ar   
    21   10   11 ar   
    22   10  136 1    
    23   11   12 ar   
    24   11  126 1    
    25   12   13 ar   
    26   12  137 1    
    27   13   14 ar   
    28   13   15 1    
    29   14  138 1    
    30   15   16 1    
    31   15  139 1    
    32   15  140 1    
    33   16   17 1    
    34   17   18 1    
    35   17  141 1    
    36   17  142 1    
    37   18   19 1    
    38   18   67 1    
    39   18  143 1    
    40   19   20 am   BACKBONE|DICT|INTERRES
    41   19  144 1    
    42   20   21 2    
    43   20   22 1    
    44   22   23 1    
    45   22   24 1    
    46   22  145 1    
    47   23  146 1    
    48   23  147 1    
    49   23  148 1    
    50   24   25 am   BACKBONE|DICT|INTERRES
    51   24  149 1    
    52   25   26 2    
    53   25   27 1    
    54   27   28 1    
    55   27   29 1    
    56   27  150 1    
    57   28  151 1    
    58   28  152 1    
    59   28  153 1    
    60   29   30 am   BACKBONE|DICT|INTERRES
    61   29  154 1    
    62   30   31 2    
    63   30   32 1    
    64   32   33 1    
    65   32   34 1    
    66   32  155 1    
    67   33  156 1    
    68   33  157 1    
    69   33  158 1    
    70   34   35 am   BACKBONE|DICT|INTERRES
    71   34  159 1    
    72   35   36 2    
    73   35   37 1    
    74   37   38 1    
    75   37   39 1    
    76   37  160 1    
    77   38  161 1    
    78   38  162 1    
    79   38  163 1    
    80   39   40 am   BACKBONE|DICT|INTERRES
    81   39  164 1    
    82   40   41 2    
    83   40   42 1    
    84   42   43 1    
    85   42   44 1    
    86   42  165 1    
    87   43  166 1    
    88   43  167 1    
    89   43  168 1    
    90   44   45 am   BACKBONE|DICT|INTERRES
    91   44  169 1    
    92   45   46 2    
    93   45   47 1    
    94   47   48 1    
    95   47   49 1    
    96   47  170 1    
    97   48  171 1    
    98   48  172 1    
    99   48  173 1    
   100   49   50 am   BACKBONE|DICT|INTERRES
   101   49  174 1    
   102   50   51 2    
   103   50   52 1    
   104   52   53 1    
   105   52   54 1    
   106   52  175 1    
   107   53  176 1    
   108   53  177 1    
   109   53  178 1    
   110   54   55 am   BACKBONE|DICT|INTERRES
   111   54  179 1    
   112   55   56 2    
   113   55   57 1    
   114   57   58 1    
   115   57   59 1    
   116   57  180 1    
   117   58  181 1    
   118   58  182 1    
   119   58  183 1    
   120   59   60 am   BACKBONE|DICT|INTERRES
   121   59  184 1    
   122   60   61 2    
   123   60   62 1    
   124   62   63 1    
   125   62   64 1    
   126   62  185 1    
   127   63  186 1    
   128   63  187 1    
   129   63  188 1    
   130   64   65 am   BACKBONE|DICT|INTERRES
   131   64  189 1    
   132   65   66 2    
   133   67   68 2    
   134   67   69 am   BACKBONE|DICT|INTERRES
   135   69   70 1    
   136   69  190 1    
   137   70   71 1    
   138   70   72 1    
   139   70  191 1    
   140   71  192 1    
   141   71  193 1    
   142   71  194 1    
   143   72   73 2    
   144   72   74 am   BACKBONE|DICT|INTERRES
   145   74   75 1    
   146   74  195 1    
   147   75   76 1    
   148   75   77 1    
   149   75  196 1    
   150   76  197 1    
   151   76  198 1    
   152   76  199 1    
   153   77   78 2    
   154   77   79 am   BACKBONE|DICT|INTERRES
   155   79   80 1    
   156   79  200 1    
   157   80   81 1    
   158   80   82 1    
   159   80  201 1    
   160   81  202 1    
   161   81  203 1    
   162   81  204 1    
   163   82   83 2    
   164   82   84 am   BACKBONE|DICT|INTERRES
   165   84   85 1    
   166   84  205 1    
   167   85   86 1    
   168   85   87 1    
   169   85  206 1    
   170   86  207 1    
   171   86  208 1    
   172   86  209 1    
   173   87   88 2    
   174   87   89 am   BACKBONE|DICT|INTERRES
   175   89   90 1    
   176   89  210 1    
   177   90   91 1    
   178   90   92 1    
   179   90  211 1    
   180   91  212 1    
   181   91  213 1    
   182   91  214 1    
   183   92   93 2    
   184   92   94 am   BACKBONE|DICT|INTERRES
   185   94   95 1    
   186   94  215 1    
   187   95   96 1    
   188   95   97 1    
   189   95  216 1    
   190   96  217 1    
   191   96  218 1    
   192   96  219 1    
   193   97   98 2    
   194   97   99 am   BACKBONE|DICT|INTERRES
   195   99  100 1    
   196   99  220 1    
   197  100  101 1    
   198  100  102 1    
   199  100  221 1    
   200  101  222 1    
   201  101  223 1    
   202  101  224 1    
   203  102  103 2    
   204  102  104 am   BACKBONE|DICT|INTERRES
   205  104  105 1    
   206  104  225 1    
   207  105  106 1    
   208  105  107 1    
   209  105  226 1    
   210  106  227 1    
   211  106  228 1    
   212  106  229 1    
   213  107  108 2    
   214  107  109 am   BACKBONE|DICT|INTERRES
   215  109  110 1    
   216  109  230 1    
   217  110  111 1    
   218  110  112 1    
   219  110  231 1    
   220  111  232 1    
   221  111  233 1    
   222  111  234 1    
   223  112  113 2    
   224  112  114 am   BACKBONE|DICT|INTERRES
   225  114  115 1    
   226  114  235 1    
   227  115  116 1    
   228  115  117 1    
   229  115  236 1    
   230  116  237 1    
   231  116  238 1    
   232  116  239 1    
   233  117  118 2    
   234  117  119 am   BACKBONE|DICT|INTERRES
   235  119  120 1    
   236  119  240 1    
   237  120  121 1    
   238  120  124 1    
   239  120  241 1    
   240  121  122 am   BACKBONE|DICT|INTERRES
   241  121  123 2    
   242  122  242 1    
   243  122  243 1    
   244  124  125 1    
   245  124  244 1    
   246  124  245 1    
   247  125  126 1    
   248  126  246 1    
   249  126  247 1    
@<TRIPOS>SUBSTRUCTURE
     1 UNK         1 GROUP             0       ****    0 ROOT    
