@<TRIPOS>MOLECULE
3R540
247   249    1
SMALL
USER_CHARGES


@<TRIPOS>ATOM
      1 CA          3.3848  -12.8935  -43.6401 C.3       0 UNK        -0.1800 
      2 C           2.1919  -12.0927  -44.1404 C.2       0 UNK         0.5000 
      3 O           2.2952  -10.8758  -44.2966 O.2       0 UNK        -0.5000 
      4 N           1.0567  -12.7623  -44.3748 N.am      1 UNK        -0.5000 
      5 CA         -0.2017  -12.1427  -44.8133 C.3       1 UNK         0.1400 
      6 C6         -1.4372  -12.9152  -44.2841 C.3       23 UNK        -0.0398 
      7 S7         -1.5280  -14.6576  -44.8252 S.3       23 UNK        -0.2404 
      8 C8         -2.8196  -14.5497  -46.1066 C.3       23 UNK        -0.0205 
      9 C9         -3.0418  -15.8863  -46.7972 C.ar      23 UNK        -0.0193 
     10 C10        -4.2760  -16.5364  -46.7117 C.ar      23 UNK        -0.1150 
     11 C11        -4.4757  -17.7693  -47.3407 C.ar      23 UNK        -0.0193 
     12 C12        -3.4223  -18.3610  -48.0450 C.ar      23 UNK        -0.1150 
     13 C13        -2.1809  -17.7220  -48.1344 C.ar      23 UNK        -0.0193 
     14 C14        -2.0073  -16.4754  -47.5271 C.ar      23 UNK        -0.1150 
     15 C15        -1.0225  -18.3932  -48.8635 C.3       23 UNK        -0.0205 
     16 S16         0.5213  -18.4628  -47.8892 S.3       23 UNK        -0.2404 
     17 C17        -0.0408  -19.1657  -46.3014 C.3       23 UNK        -0.0398 
     18 CA          0.1339  -20.6973  -46.2032 C.3       11 UNK         0.1400 
     19 N           0.1415  -21.1316  -44.8095 N.am      11 UNK        -0.5000 
     20 C           0.4057  -22.3686  -44.3740 C.2       10 UNK         0.5000 
     21 O           0.7400  -23.3001  -45.1055 O.2       10 UNK        -0.5000 
     22 CA          0.2115  -22.6058  -42.8674 C.3       10 UNK         0.1400 
     23 CB          1.4418  -22.1416  -42.0729 C.3       10 UNK        -0.1800 
     24 N          -0.9809  -21.9237  -42.3610 N.am      10 UNK        -0.5000 
     25 C          -2.2380  -22.2955  -42.6371 C.2       9 UNK         0.5000 
     26 O          -2.5239  -23.2742  -43.3279 O.2       9 UNK        -0.5000 
     27 CA         -3.3607  -21.4076  -42.0665 C.3       9 UNK         0.1400 
     28 CB         -3.6136  -21.7356  -40.5873 C.3       9 UNK        -0.1800 
     29 N          -3.0899  -19.9742  -42.2073 N.am      9 UNK        -0.5000 
     30 C          -3.0472  -19.3328  -43.3832 C.2       8 UNK         0.5000 
     31 O          -3.2141  -19.8870  -44.4661 O.2       8 UNK        -0.5000 
     32 CA         -2.7176  -17.8296  -43.3587 C.3       8 UNK         0.1400 
     33 CB         -3.9769  -17.0103  -43.0370 C.3       8 UNK        -0.1800 
     34 N          -1.6321  -17.4369  -42.4518 N.am      8 UNK        -0.5000 
     35 C          -0.4185  -18.0011  -42.3987 C.2       7 UNK         0.5000 
     36 O          -0.1199  -19.0450  -42.9823 O.2       7 UNK        -0.5000 
     37 CA          0.6378  -17.3000  -41.5256 C.3       7 UNK         0.1400 
     38 CB          0.4570  -17.6899  -40.0506 C.3       7 UNK        -0.1800 
     39 N           1.9858  -17.6793  -41.9512 N.am      7 UNK        -0.5000 
     40 C           2.5543  -17.2899  -43.0992 C.2       6 UNK         0.5000 
     41 O           2.0879  -16.4210  -43.8402 O.2       6 UNK        -0.5000 
     42 CA          3.8249  -18.0581  -43.5089 C.3       6 UNK         0.1400 
     43 CB          3.4573  -19.2511  -44.4072 C.3       6 UNK        -0.1800 
     44 N           4.7872  -17.2218  -44.2206 N.am      6 UNK        -0.5000 
     45 C           5.4725  -16.2015  -43.6889 C.2       5 UNK         0.5000 
     46 O           5.3919  -15.8685  -42.5057 O.2       5 UNK        -0.5000 
     47 CA          6.4355  -15.4410  -44.6246 C.3       5 UNK         0.1400 
     48 CB          7.8955  -15.7779  -44.2815 C.3       5 UNK        -0.1800 
     49 N           6.2127  -15.7177  -46.0481 N.am      5 UNK        -0.5000 
     50 C           5.2180  -15.1893  -46.7699 C.2       4 UNK         0.5000 
     51 O           4.3734  -14.4171  -46.3122 O.2       4 UNK        -0.5000 
     52 CA          5.1407  -15.6052  -48.2439 C.3       4 UNK         0.1400 
     53 CB          4.3065  -16.8891  -48.4068 C.3       4 UNK        -0.1800 
     54 N           4.5231  -14.5078  -48.9737 N.am      4 UNK        -0.5000 
     55 C           4.5860  -14.2695  -50.2855 C.2       3 UNK         0.5000 
     56 O           5.1872  -14.9986  -51.0766 O.2       3 UNK        -0.5000 
     57 CA          3.8428  -13.0091  -50.7903 C.3       3 UNK         0.1400 
     58 CB          3.7267  -12.9647  -52.3250 C.3       3 UNK        -0.1800 
     59 N           2.4994  -12.8767  -50.2151 N.am      3 UNK        -0.5000 
     60 C           2.2134  -12.4378  -48.9826 C.2       2 UNK         0.5000 
     61 O           3.0761  -12.0515  -48.1908 O.2       2 UNK        -0.5000 
     62 CA          0.7354  -12.4578  -48.5555 C.3       2 UNK         0.1400 
     63 CB         -0.0561  -13.6372  -49.1583 C.3       2 UNK        -0.1800 
     64 N           0.6566  -12.5159  -47.0981 N.am      2 UNK        -0.5000 
     65 C          -0.2738  -11.9224  -46.3423 C.2       1 UNK         0.5000 
     66 O          -1.1820  -11.2303  -46.8055 O.2       1 UNK        -0.5000 
     67 C          -0.9303  -21.4599  -47.0186 C.2       11 UNK         0.5000 
     68 O          -0.6103  -21.9814  -48.0862 O.2       11 UNK        -0.5000 
     69 N          -2.1553  -21.5677  -46.4794 N.am      12 UNK        -0.5000 
     70 CA         -3.2536  -22.3436  -47.0552 C.3       12 UNK         0.1400 
     71 CB         -4.5280  -22.1736  -46.2162 C.3       12 UNK        -0.1800 
     72 C          -2.9160  -23.8343  -47.1935 C.2       12 UNK         0.5000 
     73 O          -3.1919  -24.4091  -48.2436 O.2       12 UNK        -0.5000 
     74 N          -2.2988  -24.4224  -46.1591 N.am      13 UNK        -0.5000 
     75 CA         -1.8413  -25.8124  -46.1605 C.3       13 UNK         0.1400 
     76 CB         -1.3539  -26.1997  -44.7563 C.3       13 UNK        -0.1800 
     77 C          -0.7546  -26.0830  -47.2186 C.2       13 UNK         0.5000 
     78 O          -0.8230  -27.1013  -47.9075 O.2       13 UNK        -0.5000 
     79 N           0.2040  -25.1558  -47.3519 N.am      14 UNK        -0.5000 
     80 CA          1.2786  -25.2080  -48.3442 C.3       14 UNK         0.1400 
     81 CB          2.3361  -24.1460  -48.0047 C.3       14 UNK        -0.1800 
     82 C           0.7720  -25.0326  -49.7888 C.2       14 UNK         0.5000 
     83 O           1.2061  -25.7635  -50.6797 O.2       14 UNK        -0.5000 
     84 N          -0.1409  -24.0745  -49.9922 N.am      15 UNK        -0.5000 
     85 CA         -0.7296  -23.7383  -51.2906 C.3       15 UNK         0.1400 
     86 CB         -1.2678  -22.3002  -51.2134 C.3       15 UNK        -0.1800 
     87 C          -1.8587  -24.6894  -51.7332 C.2       15 UNK         0.5000 
     88 O          -2.3103  -24.5911  -52.8760 O.2       15 UNK        -0.5000 
     89 N          -2.3511  -25.5260  -50.8062 N.am      16 UNK        -0.5000 
     90 CA         -3.5841  -26.3212  -50.8947 C.3       16 UNK         0.1400 
     91 CB         -3.4307  -27.4566  -51.9272 C.3       16 UNK        -0.1800 
     92 C          -4.8244  -25.4337  -51.1518 C.2       16 UNK         0.5000 
     93 O          -5.7403  -25.8348  -51.8724 O.2       16 UNK        -0.5000 
     94 N          -4.7827  -24.2099  -50.6014 N.am      17 UNK        -0.5000 
     95 CA         -5.6472  -23.0395  -50.7961 C.3       17 UNK         0.1400 
     96 CB         -7.0654  -23.3097  -50.2670 C.3       17 UNK        -0.1800 
     97 C          -5.6851  -22.4932  -52.2403 C.2       17 UNK         0.5000 
     98 O          -5.6148  -21.2775  -52.4306 O.2       17 UNK        -0.5000 
     99 N          -5.7959  -23.3919  -53.2243 N.am      18 UNK        -0.5000 
    100 CA        -5.9819  -23.1246  -54.6473 C.3       18 UNK         0.1400 
    101 CB        -6.1613  -24.4581  -55.3880 C.3       18 UNK        -0.1800 
    102 C         -4.8598  -22.2966  -55.2921 C.2       18 UNK         0.5000 
    103 O         -5.1636  -21.3678  -56.0409 O.2       18 UNK        -0.5000 
    104 N         -3.5922  -22.6084  -54.9791 N.am      19 UNK        -0.5000 
    105 CA        -2.4301  -21.9155  -55.5533 C.3       19 UNK         0.1400 
    106 CB        -1.1541  -22.7307  -55.2959 C.3       19 UNK        -0.1800 
    107 C         -2.2678  -20.4681  -55.0468 C.2       19 UNK         0.5000 
    108 O         -1.6302  -19.6577  -55.7197 O.2       19 UNK        -0.5000 
    109 N         -2.8649  -20.1679  -53.8869 N.am      20 UNK        -0.5000 
    110 CA        -2.9289  -18.8338  -53.2930 C.3       20 UNK         0.1400 
    111 CB        -2.8649  -18.9888  -51.7658 C.3       20 UNK        -0.1800 
    112 C         -4.2047  -18.0708  -53.6991 C.2       20 UNK         0.5000 
    113 O         -4.3309  -16.8959  -53.3530 O.2       20 UNK        -0.5000 
    114 N         -5.1380  -18.7539  -54.3832 N.am      21 UNK        -0.5000 
    115 CA        -6.5039  -18.3220  -54.7016 C.3       21 UNK         0.1400 
    116 CB        -6.4947  -17.1475  -55.7019 C.3       21 UNK        -0.1800 
    117 C         -7.3461  -18.0390  -53.4364 C.2       21 UNK         0.5000 
    118 O         -8.2171  -17.1673  -53.4531 O.2       21 UNK        -0.5000 
    119 N         -7.0601  -18.7832  -52.3603 N.am      22 UNK        -0.5000 
    120 CA        -7.6874  -18.6580  -51.0368 C.3       22 UNK         0.1400 
    121 C         -8.8845  -19.6346  -50.8242 C.2       22 UNK         0.5000 
    122 N         -9.2222  -20.4914  -51.7813 N.am      22 UNK        -0.7600 
    123 O         -9.5358  -19.6071  -49.7843 O.2       22 UNK        -0.5000 
    124 C124       -6.6119  -18.7714  -49.9202 C.3       23 UNK        -0.0398 
    125 S125       -7.0335  -17.8167  -48.4224 S.3       23 UNK        -0.2404 
    126 C126       -5.8235  -18.4666  -47.2292 C.3       23 UNK        -0.0205 
    127 H127        3.2159  -13.9662  -43.7301 H         1 UNK         0.0600 
    128 H128        4.2747  -12.6428  -44.2172 H         1 UNK         0.0600 
    129 H129        3.5809  -12.6648  -42.5928 H         1 UNK         0.0600 
    130 H130        1.0296  -13.7661  -44.2484 H         1 UNK         0.3000 
    131 H131       -0.2553  -11.1452  -44.3716 H         1 UNK         0.0600 
    132 H132       -2.3584  -12.3956  -44.5537 H         1 UNK         0.0800 
    133 H133       -1.4181  -12.9134  -43.1936 H         1 UNK         0.0800 
    134 H134       -3.7446  -14.1952  -45.6494 H         1 UNK         0.0800 
    135 H135       -2.5385  -13.8081  -46.8542 H         1 UNK         0.0800 
    136 H136       -5.0853  -16.0850  -46.1554 H         1 UNK         0.1150 
    137 H137       -3.5670  -19.3239  -48.5138 H         1 UNK         0.1150 
    138 H138       -1.0497  -15.9788  -47.5870 H         1 UNK         0.1150 
    139 H139       -1.2902  -19.4093  -49.1554 H         1 UNK         0.0800 
    140 H140       -0.8250  -17.8469  -49.7862 H         1 UNK         0.0800 
    141 H141        0.5698  -18.6806  -45.5392 H         1 UNK         0.0800 
    142 H142       -1.0637  -18.8701  -46.0689 H         1 UNK         0.0800 
    143 H143        1.1120  -20.9567  -46.6140 H         1 UNK         0.0600 
    144 H144       -0.0909  -20.4205  -44.1176 H         1 UNK         0.3000 
    145 H145        0.0898  -23.6798  -42.7116 H         1 UNK         0.0600 
    146 H146        1.3506  -22.4066  -41.0195 H         1 UNK         0.0600 
    147 H147        2.3511  -22.6120  -42.4492 H         1 UNK         0.0600 
    148 H148        1.5796  -21.0619  -42.1335 H         1 UNK         0.0600 
    149 H149       -0.8311  -21.0627  -41.8551 H         1 UNK         0.3000 
    150 H150       -4.2728  -21.6338  -42.6232 H         1 UNK         0.0600 
    151 H151       -3.8325  -22.7960  -40.4549 H         1 UNK         0.0600 
    152 H152       -4.4669  -21.1782  -40.2005 H         1 UNK         0.0600 
    153 H153       -2.7484  -21.4989  -39.9668 H         1 UNK         0.0600 
    154 H154       -2.9205  -19.4495  -41.3620 H         1 UNK         0.3000 
    155 H155       -2.3949  -17.5637  -44.3669 H         1 UNK         0.0600 
    156 H156       -3.7956  -15.9422  -43.1559 H         1 UNK         0.0600 
    157 H157       -4.3197  -17.1821  -42.0162 H         1 UNK         0.0600 
    158 H158       -4.7955  -17.2736  -43.7083 H         1 UNK         0.0600 
    159 H159       -1.7919  -16.5939  -41.9201 H         1 UNK         0.3000 
    160 H160        0.5240  -16.2189  -41.6300 H         1 UNK         0.0600 
    161 H161        1.1980  -17.1986  -39.4196 H         1 UNK         0.0600 
    162 H162        0.5520  -18.7668  -39.9036 H         1 UNK         0.0600 
    163 H163       -0.5266  -17.3942  -39.6835 H         1 UNK         0.0600 
    164 H164        2.4208  -18.4208  -41.4231 H         1 UNK         0.3000 
    165 H165        4.3104  -18.4378  -42.6075 H         1 UNK         0.0600 
    166 H166        4.3311  -19.8643  -44.6279 H         1 UNK         0.0600 
    167 H167        2.7226  -19.8960  -43.9251 H         1 UNK         0.0600 
    168 H168        3.0298  -18.9228  -45.3555 H         1 UNK         0.0600 
    169 H169        4.8954  -17.3993  -45.2068 H         1 UNK         0.3000 
    170 H170        6.2840  -14.3739  -44.4477 H         1 UNK         0.0600 
    171 H171        8.1151  -15.5510  -43.2373 H         1 UNK         0.0600 
    172 H172        8.1127  -16.8350  -44.4401 H         1 UNK         0.0600 
    173 H173        8.5884  -15.1966  -44.8902 H         1 UNK         0.0600 
    174 H174        6.8674  -16.3459  -46.4921 H         1 UNK         0.3000 
    175 H175        6.1518  -15.7660  -48.6234 H         1 UNK         0.0600 
    176 H176        3.2891  -16.7548  -48.0364 H         1 UNK         0.0600 
    177 H177        4.2429  -17.1927  -49.4517 H         1 UNK         0.0600 
    178 H178        4.7501  -17.7189  -47.8557 H         1 UNK         0.0600 
    179 H179        4.0536  -13.8296  -48.3784 H         1 UNK         0.3000 
    180 H180        4.4394  -12.1482  -50.4815 H         1 UNK         0.0600 
    181 H181        3.1569  -13.8114  -52.7097 H         1 UNK         0.0600 
    182 H182        4.7108  -12.9885  -52.7948 H         1 UNK         0.0600 
    183 H183        3.2350  -12.0501  -52.6570 H         1 UNK         0.0600 
    184 H184        1.7404  -13.2096  -50.7916 H         1 UNK         0.3000 
    185 H185        0.2980  -11.5217  -48.9082 H         1 UNK         0.0600 
    186 H186       -0.1249  -13.5623  -50.2437 H         1 UNK         0.0600 
    187 H187        0.4078  -14.5949  -48.9181 H         1 UNK         0.0600 
    188 H188       -1.0786  -13.6588  -48.7826 H         1 UNK         0.0600 
    189 H189        1.4200  -12.9945  -46.6384 H         1 UNK         0.3000 
    190 H190       -2.3691  -21.0664  -45.6201 H         1 UNK         0.3000 
    191 H191       -3.4459  -21.9476  -48.0543 H         1 UNK         0.0600 
    192 H192       -5.3704  -22.6926  -46.6752 H         1 UNK         0.0600 
    193 H193       -4.8047  -21.1267  -46.1199 H         1 UNK         0.0600 
    194 H194       -4.4046  -22.5724  -45.2090 H         1 UNK         0.0600 
    195 H195       -2.1430  -23.8885  -45.3112 H         1 UNK         0.3000 
    196 H196       -2.7005  -26.4412  -46.4030 H         1 UNK         0.0600 
    197 H197       -1.0401  -27.2438  -44.7265 H         1 UNK         0.0600 
    198 H198       -2.1455  -26.0764  -44.0169 H         1 UNK         0.0600 
    199 H199       -0.5053  -25.5932  -44.4403 H         1 UNK         0.0600 
    200 H200        0.2114  -24.3662  -46.7131 H         1 UNK         0.3000 
    201 H201        1.7522  -26.1895  -48.2753 H         1 UNK         0.0600 
    202 H202        2.7567  -24.3128  -47.0128 H         1 UNK         0.0600 
    203 H203        1.9176  -23.1391  -48.0231 H         1 UNK         0.0600 
    204 H204        3.1610  -24.1730  -48.7176 H         1 UNK         0.0600 
    205 H205       -0.4022  -23.4754  -49.2117 H         1 UNK         0.3000 
    206 H206        0.0503  -23.7748  -52.0537 H         1 UNK         0.0600 
    207 H207       -0.4739  -21.5941  -50.9690 H         1 UNK         0.0600 
    208 H208       -1.6982  -21.9876  -52.1630 H         1 UNK         0.0600 
    209 H209       -2.0470  -22.2023  -50.4563 H         1 UNK         0.0600 
    210 H210       -1.9404  -25.4778  -49.8827 H         1 UNK         0.3000 
    211 H211       -3.7285  -26.7763  -49.9139 H         1 UNK         0.0600 
    212 H212       -3.3490  -27.0724  -52.9444 H         1 UNK         0.0600 
    213 H213       -4.2898  -28.1277  -51.8998 H         1 UNK         0.0600 
    214 H214       -2.5440  -28.0566  -51.7228 H         1 UNK         0.0600 
    215 H215       -4.0090  -24.0622  -49.9600 H         1 UNK         0.3000 
    216 H216       -5.2132  -22.2503  -50.1803 H         1 UNK         0.0600 
    217 H217       -7.5767  -24.0792  -50.8460 H         1 UNK         0.0600 
    218 H218       -7.6758  -22.4081  -50.3105 H         1 UNK         0.0600 
    219 H219       -7.0411  -23.6336  -49.2265 H         1 UNK         0.0600 
    220 H220       -5.8317  -24.3684  -52.9403 H         1 UNK         0.3000 
    221 H221       -6.9072  -22.5539  -54.7488 H         1 UNK         0.0600 
    222 H222       -5.2865  -25.1002  -55.2762 H         1 UNK         0.0600 
    223 H223       -7.0263  -25.0043  -55.0113 H         1 UNK         0.0600 
    224 H224       -6.3186  -24.2968  -56.4554 H         1 UNK         0.0600 
    225 H225       -3.4031  -23.3700  -54.3359 H         1 UNK         0.3000 
    226 H226       -2.5751  -21.8638  -56.6346 H         1 UNK         0.0600 
    227 H227       -1.2631  -23.7588  -55.6416 H         1 UNK         0.0600 
    228 H228       -0.3046  -22.2979  -55.8256 H         1 UNK         0.0600 
    229 H229       -0.8953  -22.7571  -54.2389 H         1 UNK         0.0600 
    230 H230       -3.3953  -20.8907  -53.4203 H         1 UNK         0.3000 
    231 H231       -2.0716  -18.2383  -53.6135 H         1 UNK         0.0600 
    232 H232       -3.6836  -19.5991  -51.3836 H         1 UNK         0.0600 
    233 H233       -2.9178  -18.0197  -51.2680 H         1 UNK         0.0600 
    234 H234       -1.9288  -19.4579  -51.4671 H         1 UNK         0.0600 
    235 H235       -4.9224  -19.7061  -54.6505 H         1 UNK         0.3000 
    236 H236       -6.9797  -19.1699  -55.1961 H         1 UNK         0.0600 
    237 H237       -5.8904  -17.3820  -56.5782 H         1 UNK         0.0600 
    238 H238       -7.5029  -16.9268  -56.0542 H         1 UNK         0.0600 
    239 H239       -6.0989  -16.2352  -55.2550 H         1 UNK         0.0600 
    240 H240       -6.3769  -19.5304  -52.4529 H         1 UNK         0.3000 
    241 H241       -8.1187  -17.6574  -50.9724 H         1 UNK         0.0600 
    242 H242       -8.7108  -20.5168  -52.6479 H         1 UNK         0.3800 
    243 H243      -10.0075  -21.1071  -51.6407 H         1 UNK         0.3800 
    244 H244       -6.4243  -19.8154  -49.6636 H         1 UNK         0.0800 
    245 H245       -5.6592  -18.3748  -50.2753 H         1 UNK         0.0800 
    246 H246       -5.7176  -19.5403  -47.3757 H         1 UNK         0.0800 
    247 H247       -6.2154  -18.3350  -46.2195 H         1 UNK         0.0800 
@<TRIPOS>BOND
     1    1    2 1    
     2    1  127 1    
     3    1  128 1    
     4    1  129 1    
     5    2    3 2    
     6    2    4 am   BACKBONE|DICT|INTERRES
     7    4    5 1    
     8    4  130 1    
     9    5    6 1    
    10    5   65 1    
    11    5  131 1    
    12    6    7 1    
    13    6  132 1    
    14    6  133 1    
    15    7    8 1    
    16    8    9 1    
    17    8  134 1    
    18    8  135 1    
    19    9   10 ar   
    20    9   14 ar   
    21   10   11 ar   
    22   10  136 1    
    23   11   12 ar   
    24   11  126 1    
    25   12   13 ar   
    26   12  137 1    
    27   13   14 ar   
    28   13   15 1    
    29   14  138 1    
    30   15   16 1    
    31   15  139 1    
    32   15  140 1    
    33   16   17 1    
    34   17   18 1    
    35   17  141 1    
    36   17  142 1    
    37   18   19 1    
    38   18   67 1    
    39   18  143 1    
    40   19   20 am   BACKBONE|DICT|INTERRES
    41   19  144 1    
    42   20   21 2    
    43   20   22 1    
    44   22   23 1    
    45   22   24 1    
    46   22  145 1    
    47   23  146 1    
    48   23  147 1    
    49   23  148 1    
    50   24   25 am   BACKBONE|DICT|INTERRES
    51   24  149 1    
    52   25   26 2    
    53   25   27 1    
    54   27   28 1    
    55   27   29 1    
    56   27  150 1    
    57   28  151 1    
    58   28  152 1    
    59   28  153 1    
    60   29   30 am   BACKBONE|DICT|INTERRES
    61   29  154 1    
    62   30   31 2    
    63   30   32 1    
    64   32   33 1    
    65   32   34 1    
    66   32  155 1    
    67   33  156 1    
    68   33  157 1    
    69   33  158 1    
    70   34   35 am   BACKBONE|DICT|INTERRES
    71   34  159 1    
    72   35   36 2    
    73   35   37 1    
    74   37   38 1    
    75   37   39 1    
    76   37  160 1    
    77   38  161 1    
    78   38  162 1    
    79   38  163 1    
    80   39   40 am   BACKBONE|DICT|INTERRES
    81   39  164 1    
    82   40   41 2    
    83   40   42 1    
    84   42   43 1    
    85   42   44 1    
    86   42  165 1    
    87   43  166 1    
    88   43  167 1    
    89   43  168 1    
    90   44   45 am   BACKBONE|DICT|INTERRES
    91   44  169 1    
    92   45   46 2    
    93   45   47 1    
    94   47   48 1    
    95   47   49 1    
    96   47  170 1    
    97   48  171 1    
    98   48  172 1    
    99   48  173 1    
   100   49   50 am   BACKBONE|DICT|INTERRES
   101   49  174 1    
   102   50   51 2    
   103   50   52 1    
   104   52   53 1    
   105   52   54 1    
   106   52  175 1    
   107   53  176 1    
   108   53  177 1    
   109   53  178 1    
   110   54   55 am   BACKBONE|DICT|INTERRES
   111   54  179 1    
   112   55   56 2    
   113   55   57 1    
   114   57   58 1    
   115   57   59 1    
   116   57  180 1    
   117   58  181 1    
   118   58  182 1    
   119   58  183 1    
   120   59   60 am   BACKBONE|DICT|INTERRES
   121   59  184 1    
   122   60   61 2    
   123   60   62 1    
   124   62   63 1    
   125   62   64 1    
   126   62  185 1    
   127   63  186 1    
   128   63  187 1    
   129   63  188 1    
   130   64   65 am   BACKBONE|DICT|INTERRES
   131   64  189 1    
   132   65   66 2    
   133   67   68 2    
   134   67   69 am   BACKBONE|DICT|INTERRES
   135   69   70 1    
   136   69  190 1    
   137   70   71 1    
   138   70   72 1    
   139   70  191 1    
   140   71  192 1    
   141   71  193 1    
   142   71  194 1    
   143   72   73 2    
   144   72   74 am   BACKBONE|DICT|INTERRES
   145   74   75 1    
   146   74  195 1    
   147   75   76 1    
   148   75   77 1    
   149   75  196 1    
   150   76  197 1    
   151   76  198 1    
   152   76  199 1    
   153   77   78 2    
   154   77   79 am   BACKBONE|DICT|INTERRES
   155   79   80 1    
   156   79  200 1    
   157   80   81 1    
   158   80   82 1    
   159   80  201 1    
   160   81  202 1    
   161   81  203 1    
   162   81  204 1    
   163   82   83 2    
   164   82   84 am   BACKBONE|DICT|INTERRES
   165   84   85 1    
   166   84  205 1    
   167   85   86 1    
   168   85   87 1    
   169   85  206 1    
   170   86  207 1    
   171   86  208 1    
   172   86  209 1    
   173   87   88 2    
   174   87   89 am   BACKBONE|DICT|INTERRES
   175   89   90 1    
   176   89  210 1    
   177   90   91 1    
   178   90   92 1    
   179   90  211 1    
   180   91  212 1    
   181   91  213 1    
   182   91  214 1    
   183   92   93 2    
   184   92   94 am   BACKBONE|DICT|INTERRES
   185   94   95 1    
   186   94  215 1    
   187   95   96 1    
   188   95   97 1    
   189   95  216 1    
   190   96  217 1    
   191   96  218 1    
   192   96  219 1    
   193   97   98 2    
   194   97   99 am   BACKBONE|DICT|INTERRES
   195   99  100 1    
   196   99  220 1    
   197  100  101 1    
   198  100  102 1    
   199  100  221 1    
   200  101  222 1    
   201  101  223 1    
   202  101  224 1    
   203  102  103 2    
   204  102  104 am   BACKBONE|DICT|INTERRES
   205  104  105 1    
   206  104  225 1    
   207  105  106 1    
   208  105  107 1    
   209  105  226 1    
   210  106  227 1    
   211  106  228 1    
   212  106  229 1    
   213  107  108 2    
   214  107  109 am   BACKBONE|DICT|INTERRES
   215  109  110 1    
   216  109  230 1    
   217  110  111 1    
   218  110  112 1    
   219  110  231 1    
   220  111  232 1    
   221  111  233 1    
   222  111  234 1    
   223  112  113 2    
   224  112  114 am   BACKBONE|DICT|INTERRES
   225  114  115 1    
   226  114  235 1    
   227  115  116 1    
   228  115  117 1    
   229  115  236 1    
   230  116  237 1    
   231  116  238 1    
   232  116  239 1    
   233  117  118 2    
   234  117  119 am   BACKBONE|DICT|INTERRES
   235  119  120 1    
   236  119  240 1    
   237  120  121 1    
   238  120  124 1    
   239  120  241 1    
   240  121  122 am   BACKBONE|DICT|INTERRES
   241  121  123 2    
   242  122  242 1    
   243  122  243 1    
   244  124  125 1    
   245  124  244 1    
   246  124  245 1    
   247  125  126 1    
   248  126  246 1    
   249  126  247 1    
@<TRIPOS>SUBSTRUCTURE
     1 UNK         1 GROUP             0       ****    0 ROOT    
