@<TRIPOS>MOLECULE
3R540
247   249    1
SMALL
USER_CHARGES


@<TRIPOS>ATOM
      1 CA          4.5971  -10.5890  -50.3577 C.3       0 UNK        -0.1800 
      2 C           5.4079  -11.3203  -49.2969 C.2       0 UNK         0.5000 
      3 O           6.5969  -11.0429  -49.1346 O.2       0 UNK        -0.5000 
      4 N           4.7728  -12.2578  -48.5838 N.am      1 UNK        -0.5000 
      5 CA          5.3692  -13.0348  -47.4920 C.3       1 UNK         0.1400 
      6 C6          4.4723  -14.2243  -47.0722 C.3       23 UNK        -0.0398 
      7 S7          4.1522  -15.3859  -48.4394 S.3       23 UNK        -0.2404 
      8 C8          2.3377  -15.5379  -48.3520 C.3       23 UNK        -0.0205 
      9 C9          1.8062  -16.6314  -49.2674 C.ar      23 UNK        -0.0193 
     10 C10         0.7890  -16.3500  -50.1824 C.ar      23 UNK        -0.1150 
     11 C11         0.2863  -17.3510  -51.0187 C.ar      23 UNK        -0.0193 
     12 C12         0.8102  -18.6455  -50.9378 C.ar      23 UNK        -0.1150 
     13 C13         1.8361  -18.9376  -50.0327 C.ar      23 UNK        -0.0193 
     14 C14         2.3172  -17.9307  -49.1922 C.ar      23 UNK        -0.1150 
     15 C15         2.4625  -20.3244  -49.9870 C.3       23 UNK        -0.0205 
     16 S16         2.1052  -21.1955  -48.4307 S.3       23 UNK        -0.2404 
     17 C17         0.3248  -21.5076  -48.6296 C.3       23 UNK        -0.0398 
     18 CA         -0.2004  -22.5264  -47.5944 C.3       11 UNK         0.1400 
     19 N          -0.1971  -21.9944  -46.2242 N.am      11 UNK        -0.5000 
     20 C          -0.5124  -22.6953  -45.1241 C.2       10 UNK         0.5000 
     21 O          -0.8389  -23.8811  -45.1391 O.2       10 UNK        -0.5000 
     22 CA         -0.5440  -21.9317  -43.7899 C.3       10 UNK         0.1400 
     23 CB          0.8718  -21.6304  -43.2762 C.3       10 UNK        -0.1800 
     24 N          -1.3261  -20.7012  -43.8990 N.am      10 UNK        -0.5000 
     25 C          -2.6514  -20.6783  -44.1044 C.2       9 UNK         0.5000 
     26 O          -3.3546  -21.6889  -44.1138 O.2       9 UNK        -0.5000 
     27 CA         -3.3016  -19.3091  -44.3744 C.3       9 UNK         0.1400 
     28 CB         -3.7307  -18.6490  -43.0560 C.3       9 UNK        -0.1800 
     29 N          -2.4356  -18.3950  -45.1209 N.am      9 UNK        -0.5000 
     30 C          -2.0164  -18.5884  -46.3801 C.2       8 UNK         0.5000 
     31 O          -2.3507  -19.5512  -47.0693 O.2       8 UNK        -0.5000 
     32 CA         -1.0029  -17.5696  -46.9371 C.3       8 UNK         0.1400 
     33 CB         -1.7035  -16.2840  -47.3987 C.3       8 UNK        -0.1800 
     34 N           0.0435  -17.2431  -45.9653 N.am      8 UNK        -0.5000 
     35 C           0.9234  -18.1374  -45.4920 C.2       7 UNK         0.5000 
     36 O           0.9609  -19.3121  -45.8541 O.2       7 UNK        -0.5000 
     37 CA          1.8762  -17.6618  -44.3826 C.3       7 UNK         0.1400 
     38 CB          3.1224  -16.9742  -44.9596 C.3       7 UNK        -0.1800 
     39 N           1.2043  -16.7759  -43.4315 N.am      7 UNK        -0.5000 
     40 C           0.3070  -17.1995  -42.5296 C.2       6 UNK         0.5000 
     41 O           0.0140  -18.3833  -42.3638 O.2       6 UNK        -0.5000 
     42 CA         -0.4235  -16.1187  -41.7124 C.3       6 UNK         0.1400 
     43 CB          0.3723  -15.7475  -40.4537 C.3       6 UNK        -0.1800 
     44 N          -0.7035  -14.9157  -42.4996 N.am      6 UNK        -0.5000 
     45 C          -1.5927  -14.8826  -43.5035 C.2       5 UNK         0.5000 
     46 O          -2.2601  -15.8565  -43.8462 O.2       5 UNK        -0.5000 
     47 CA         -1.7565  -13.5651  -44.2818 C.3       5 UNK         0.1400 
     48 CB         -2.9266  -12.7501  -43.7116 C.3       5 UNK        -0.1800 
     49 N          -0.5596  -12.7275  -44.3078 N.am      5 UNK        -0.5000 
     50 C           0.6267  -13.0699  -44.8263 C.2       4 UNK         0.5000 
     51 O           0.8667  -14.1757  -45.3184 O.2       4 UNK        -0.5000 
     52 CA          1.7416  -12.0040  -44.7693 C.3       4 UNK         0.1400 
     53 CB          1.2774  -10.6230  -44.2546 C.3       4 UNK        -0.1800 
     54 N           2.9052  -12.4483  -44.0002 N.am      4 UNK        -0.5000 
     55 C           2.9292  -12.9358  -42.7493 C.2       3 UNK         0.5000 
     56 O           1.9186  -13.1143  -42.0676 O.2       3 UNK        -0.5000 
     57 CA          4.3095  -13.2961  -42.1571 C.3       3 UNK         0.1400 
     58 CB          4.3658  -14.7788  -41.7581 C.3       3 UNK        -0.1800 
     59 N           5.4123  -13.0190  -43.0826 N.am      3 UNK        -0.5000 
     60 C           6.0781  -11.8583  -43.1581 C.2       2 UNK         0.5000 
     61 O           5.8846  -10.9049  -42.4034 O.2       2 UNK        -0.5000 
     62 CA          7.1092  -11.7316  -44.2984 C.3       2 UNK         0.1400 
     63 CB          8.4867  -12.2324  -43.8382 C.3       2 UNK        -0.1800 
     64 N           6.7190  -12.4435  -45.5223 N.am      2 UNK        -0.5000 
     65 C           5.6452  -12.1415  -46.2657 C.2       1 UNK         0.5000 
     66 O           4.8515  -11.2429  -45.9781 O.2       1 UNK        -0.5000 
     67 C          -1.5830  -23.0457  -48.0318 C.2       11 UNK         0.5000 
     68 O          -1.6513  -24.0608  -48.7275 O.2       11 UNK        -0.5000 
     69 N          -2.6593  -22.3735  -47.5998 N.am      12 UNK        -0.5000 
     70 CA         -4.0450  -22.7665  -47.8585 C.3       12 UNK         0.1400 
     71 CB         -5.0049  -21.7325  -47.2536 C.3       12 UNK        -0.1800 
     72 C          -4.3789  -24.1913  -47.3783 C.2       12 UNK         0.5000 
     73 O          -5.1323  -24.8897  -48.0566 O.2       12 UNK        -0.5000 
     74 N          -3.7708  -24.6046  -46.2593 N.am      13 UNK        -0.5000 
     75 CA         -3.8591  -25.9566  -45.7205 C.3       13 UNK         0.1400 
     76 CB         -3.8262  -25.8883  -44.1849 C.3       13 UNK        -0.1800 
     77 C          -2.7287  -26.8542  -46.2547 C.2       13 UNK         0.5000 
     78 O          -3.0091  -27.9210  -46.8008 O.2       13 UNK        -0.5000 
     79 N          -1.4729  -26.4224  -46.0707 N.am      14 UNK        -0.5000 
     80 CA         -0.2706  -27.2374  -46.2646 C.3       14 UNK         0.1400 
     81 CB          0.9283  -26.5406  -45.6025 C.3       14 UNK        -0.1800 
     82 C           0.0467  -27.5581  -47.7336 C.2       14 UNK         0.5000 
     83 O           0.4753  -28.6748  -48.0272 O.2       14 UNK        -0.5000 
     84 N          -0.1705  -26.5841  -48.6248 N.am      15 UNK        -0.5000 
     85 CA          0.0228  -26.7235  -50.0704 C.3       15 UNK         0.1400 
     86 CB          0.7548  -25.4758  -50.5973 C.3       15 UNK        -0.1800 
     87 C          -1.3168  -26.9305  -50.8027 C.2       15 UNK         0.5000 
     88 O          -1.3191  -27.0449  -52.0288 O.2       15 UNK        -0.5000 
     89 N          -2.4262  -26.9531  -50.0454 N.am      16 UNK        -0.5000 
     90 CA         -3.8193  -27.0232  -50.4960 C.3       16 UNK         0.1400 
     91 CB         -4.1153  -28.3829  -51.1618 C.3       16 UNK        -0.1800 
     92 C          -4.2238  -25.8203  -51.3756 C.2       16 UNK         0.5000 
     93 O          -5.0751  -25.9566  -52.2569 O.2       16 UNK        -0.5000 
     94 N          -3.6120  -24.6522  -51.1206 N.am      17 UNK        -0.5000 
     95 CA         -3.7873  -23.4311  -51.9117 C.3       17 UNK         0.1400 
     96 CB         -2.6640  -22.4334  -51.5833 C.3       17 UNK        -0.1800 
     97 C          -5.1742  -22.7725  -51.7699 C.2       17 UNK         0.5000 
     98 O          -5.4658  -21.8440  -52.5218 O.2       17 UNK        -0.5000 
     99 N          -6.0200  -23.2646  -50.8504 N.am      18 UNK        -0.5000 
    100 CA        -7.3941  -22.8098  -50.6067 C.3       18 UNK         0.1400 
    101 CB        -7.9962  -23.6298  -49.4554 C.3       18 UNK        -0.1800 
    102 C         -8.3199  -22.8833  -51.8382 C.2       18 UNK         0.5000 
    103 O         -9.2849  -22.1228  -51.9112 O.2       18 UNK        -0.5000 
    104 N         -8.0011  -23.7738  -52.7890 N.am      19 UNK        -0.5000 
    105 CA        -8.6797  -23.8948  -54.0803 C.3       19 UNK         0.1400 
    106 CB        -8.1980  -25.1758  -54.7781 C.3       19 UNK        -0.1800 
    107 C         -8.4680  -22.6692  -54.9934 C.2       19 UNK         0.5000 
    108 O         -9.3643  -22.3330  -55.7684 O.2       19 UNK        -0.5000 
    109 N         -7.2986  -22.0247  -54.8802 N.am      20 UNK        -0.5000 
    110 CA        -6.9540  -20.7901  -55.5859 C.3       20 UNK         0.1400 
    111 CB        -5.4780  -20.8529  -56.0099 C.3       20 UNK        -0.1800 
    112 C         -7.1984  -19.5507  -54.7080 C.2       20 UNK         0.5000 
    113 O         -7.5144  -18.4854  -55.2392 O.2       20 UNK        -0.5000 
    114 N         -7.0111  -19.7032  -53.3874 N.am      21 UNK        -0.5000 
    115 CA        -7.1326  -18.6875  -52.3347 C.3       21 UNK         0.1400 
    116 CB        -8.6068  -18.2722  -52.1552 C.3       21 UNK        -0.1800 
    117 C         -6.1866  -17.4851  -52.5466 C.2       21 UNK         0.5000 
    118 O         -6.5322  -16.3561  -52.1943 O.2       21 UNK        -0.5000 
    119 N         -5.0222  -17.7575  -53.1535 N.am      22 UNK        -0.5000 
    120 CA        -4.0284  -16.7792  -53.6293 C.3       22 UNK         0.1400 
    121 C         -4.5228  -15.8675  -54.7984 C.2       22 UNK         0.5000 
    122 N         -5.6266  -16.1736  -55.4718 N.am      22 UNK        -0.7600 
    123 O         -3.8750  -14.8792  -55.1328 O.2       22 UNK        -0.5000 
    124 C124       -3.3592  -15.9709  -52.4808 C.3       23 UNK        -0.0398 
    125 S125       -2.4529  -17.0229  -51.2927 S.3       23 UNK        -0.2404 
    126 C126       -0.7907  -17.0096  -52.0356 C.3       23 UNK        -0.0205 
    127 H127        5.0472  -10.7330  -51.3399 H         1 UNK         0.0600 
    128 H128        4.5771   -9.5204  -50.1437 H         1 UNK         0.0600 
    129 H129        3.5680  -10.9466  -50.3998 H         1 UNK         0.0600 
    130 H130        3.7962  -12.4370  -48.7634 H         1 UNK         0.3000 
    131 H131        6.3229  -13.4311  -47.8480 H         1 UNK         0.0600 
    132 H132        3.5227  -13.8649  -46.6711 H         1 UNK         0.0800 
    133 H133        4.9451  -14.7942  -46.2704 H         1 UNK         0.0800 
    134 H134        2.0327  -15.7660  -47.3328 H         1 UNK         0.0800 
    135 H135        1.8903  -14.5738  -48.5982 H         1 UNK         0.0800 
    136 H136        0.3847  -15.3496  -50.2476 H         1 UNK         0.1150 
    137 H137        0.4336  -19.4180  -51.5934 H         1 UNK         0.1150 
    138 H138        3.1035  -18.1579  -48.4860 H         1 UNK         0.1150 
    139 H139        2.1315  -20.9322  -50.8305 H         1 UNK         0.0800 
    140 H140        3.5439  -20.2256  -50.0907 H         1 UNK         0.0800 
    141 H141        0.1664  -21.8725  -49.6467 H         1 UNK         0.0800 
    142 H142       -0.2136  -20.5612  -48.5521 H         1 UNK         0.0800 
    143 H143        0.4664  -23.3914  -47.6012 H         1 UNK         0.0600 
    144 H144        0.0900  -21.0240  -46.1210 H         1 UNK         0.3000 
    145 H145       -1.0320  -22.5728  -43.0525 H         1 UNK         0.0600 
    146 H146        0.8410  -21.1140  -42.3166 H         1 UNK         0.0600 
    147 H147        1.4340  -22.5535  -43.1308 H         1 UNK         0.0600 
    148 H148        1.4389  -21.0120  -43.9702 H         1 UNK         0.0600 
    149 H149       -0.8186  -19.8267  -43.8531 H         1 UNK         0.3000 
    150 H150       -4.1966  -19.4823  -44.9752 H         1 UNK         0.0600 
    151 H151       -4.3898  -19.3049  -42.4858 H         1 UNK         0.0600 
    152 H152       -4.2739  -17.7216  -43.2381 H         1 UNK         0.0600 
    153 H153       -2.8718  -18.4161  -42.4258 H         1 UNK         0.0600 
    154 H154       -2.1635  -17.5413  -44.6394 H         1 UNK         0.3000 
    155 H155       -0.5198  -18.0214  -47.8063 H         1 UNK         0.0600 
    156 H156       -2.2567  -15.8111  -46.5883 H         1 UNK         0.0600 
    157 H157       -2.4149  -16.4987  -48.1967 H         1 UNK         0.0600 
    158 H158       -0.9874  -15.5597  -47.7872 H         1 UNK         0.0600 
    159 H159        0.0822  -16.2906  -45.6254 H         1 UNK         0.3000 
    160 H160        2.2125  -18.5538  -43.8493 H         1 UNK         0.0600 
    161 H161        2.9301  -15.9325  -45.2111 H         1 UNK         0.0600 
    162 H162        3.4747  -17.4766  -45.8620 H         1 UNK         0.0600 
    163 H163        3.9437  -16.9988  -44.2452 H         1 UNK         0.0600 
    164 H164        1.3413  -15.7817  -43.5510 H         1 UNK         0.3000 
    165 H165       -1.3780  -16.5400  -41.3895 H         1 UNK         0.0600 
    166 H166       -0.1650  -15.0181  -39.8476 H         1 UNK         0.0600 
    167 H167        0.5458  -16.6253  -39.8300 H         1 UNK         0.0600 
    168 H168        1.3447  -15.3256  -40.7018 H         1 UNK         0.0600 
    169 H169       -0.1491  -14.0923  -42.2981 H         1 UNK         0.3000 
    170 H170       -1.9946  -13.8231  -45.3149 H         1 UNK         0.0600 
    171 H171       -3.8455  -13.3381  -43.7042 H         1 UNK         0.0600 
    172 H172       -2.7327  -12.4310  -42.6868 H         1 UNK         0.0600 
    173 H173       -3.1179  -11.8600  -44.3113 H         1 UNK         0.0600 
    174 H174       -0.6495  -11.8084  -43.9001 H         1 UNK         0.3000 
    175 H175        2.0813  -11.8730  -45.7975 H         1 UNK         0.0600 
    176 H176        0.9470  -10.6602  -43.2158 H         1 UNK         0.0600 
    177 H177        2.0903   -9.8988  -44.3124 H         1 UNK         0.0600 
    178 H178        0.4587  -10.2276  -44.8574 H         1 UNK         0.0600 
    179 H179        3.7929  -12.2935  -44.4593 H         1 UNK         0.3000 
    180 H180        4.4365  -12.7012  -41.2504 H         1 UNK         0.0600 
    181 H181        4.1520  -15.4308  -42.6030 H         1 UNK         0.0600 
    182 H182        3.6391  -15.0024  -40.9774 H         1 UNK         0.0600 
    183 H183        5.3474  -15.0460  -41.3663 H         1 UNK         0.0600 
    184 H184        5.6537  -13.7535  -43.7312 H         1 UNK         0.3000 
    185 H185        7.1976  -10.6710  -44.5436 H         1 UNK         0.0600 
    186 H186        8.8143  -11.7049  -42.9413 H         1 UNK         0.0600 
    187 H187        8.4717  -13.2979  -43.6051 H         1 UNK         0.0600 
    188 H188        9.2435  -12.0663  -44.6051 H         1 UNK         0.0600 
    189 H189        7.3275  -13.1948  -45.8154 H         1 UNK         0.3000 
    190 H190       -2.5186  -21.4962  -47.1068 H         1 UNK         0.3000 
    191 H191       -4.1823  -22.7494  -48.9367 H         1 UNK         0.0600 
    192 H192       -4.7928  -20.7302  -47.6260 H         1 UNK         0.0600 
    193 H193       -6.0389  -21.9583  -47.5116 H         1 UNK         0.0600 
    194 H194       -4.9409  -21.7090  -46.1669 H         1 UNK         0.0600 
    195 H195       -3.1390  -23.9683  -45.7905 H         1 UNK         0.3000 
    196 H196       -4.8106  -26.4073  -46.0111 H         1 UNK         0.0600 
    197 H197       -3.8735  -26.8864  -43.7476 H         1 UNK         0.0600 
    198 H198       -4.6762  -25.3242  -43.8005 H         1 UNK         0.0600 
    199 H199       -2.9176  -25.4095  -43.8172 H         1 UNK         0.0600 
    200 H200       -1.3215  -25.5047  -45.6536 H         1 UNK         0.3000 
    201 H201       -0.4301  -28.1873  -45.7500 H         1 UNK         0.0600 
    202 H202        0.7456  -26.3627  -44.5426 H         1 UNK         0.0600 
    203 H203        1.1441  -25.5793  -46.0706 H         1 UNK         0.0600 
    204 H204        1.8280  -27.1523  -45.6794 H         1 UNK         0.0600 
    205 H205       -0.5693  -25.7035  -48.3170 H         1 UNK         0.3000 
    206 H206        0.6467  -27.5922  -50.2894 H         1 UNK         0.0600 
    207 H207        1.6843  -25.3043  -50.0543 H         1 UNK         0.0600 
    208 H208        1.0125  -25.5923  -51.6505 H         1 UNK         0.0600 
    209 H209        0.1462  -24.5762  -50.5118 H         1 UNK         0.0600 
    210 H210       -2.2996  -26.8658  -49.0469 H         1 UNK         0.3000 
    211 H211       -4.4319  -26.9624  -49.5961 H         1 UNK         0.0600 
    212 H212       -3.5926  -28.4927  -52.1122 H         1 UNK         0.0600 
    213 H213       -5.1815  -28.4961  -51.3613 H         1 UNK         0.0600 
    214 H214       -3.8180  -29.2098  -50.5168 H         1 UNK         0.0600 
    215 H215       -2.9298  -24.6157  -50.3713 H         1 UNK         0.3000 
    216 H216       -3.6813  -23.7076  -52.9628 H         1 UNK         0.0600 
    217 H217       -2.6858  -21.5859  -52.2696 H         1 UNK         0.0600 
    218 H218       -1.6817  -22.8975  -51.6752 H         1 UNK         0.0600 
    219 H219       -2.7519  -22.0302  -50.5760 H         1 UNK         0.0600 
    220 H220       -5.7035  -24.0408  -50.2852 H         1 UNK         0.3000 
    221 H221       -7.3445  -21.7636  -50.2984 H         1 UNK         0.0600 
    222 H222       -8.0208  -24.6943  -49.6920 H         1 UNK         0.0600 
    223 H223       -7.4275  -23.5074  -48.5355 H         1 UNK         0.0600 
    224 H224       -9.0193  -23.3166  -49.2431 H         1 UNK         0.0600 
    225 H225       -7.2017  -24.3738  -52.6367 H         1 UNK         0.3000 
    226 H226       -9.7515  -23.9882  -53.8933 H         1 UNK         0.0600 
    227 H227       -8.4139  -26.0581  -54.1753 H         1 UNK         0.0600 
    228 H228       -8.6968  -25.3091  -55.7389 H         1 UNK         0.0600 
    229 H229       -7.1235  -25.1526  -54.9651 H         1 UNK         0.0600 
    230 H230       -6.6344  -22.3435  -54.1859 H         1 UNK         0.3000 
    231 H231       -7.5614  -20.6872  -56.4876 H         1 UNK         0.0600 
    232 H232       -5.2975  -21.6948  -56.6784 H         1 UNK         0.0600 
    233 H233       -4.8134  -20.9594  -55.1516 H         1 UNK         0.0600 
    234 H234       -5.1852  -19.9469  -56.5424 H         1 UNK         0.0600 
    235 H235       -6.6410  -20.5962  -53.0708 H         1 UNK         0.3000 
    236 H236       -6.8090  -19.1678  -51.4102 H         1 UNK         0.0600 
    237 H237       -8.7289  -17.6223  -51.2881 H         1 UNK         0.0600 
    238 H238       -8.9837  -17.7332  -53.0249 H         1 UNK         0.0600 
    239 H239       -9.2434  -19.1433  -51.9987 H         1 UNK         0.0600 
    240 H240       -4.8353  -18.7196  -53.3943 H         1 UNK         0.3000 
    241 H241       -3.2425  -17.3795  -54.0886 H         1 UNK         0.0600 
    242 H242       -5.9172  -15.5767  -56.2298 H         1 UNK         0.3800 
    243 H243       -6.1926  -16.9807  -55.2328 H         1 UNK         0.3800 
    244 H244       -4.1065  -15.3992  -51.9301 H         1 UNK         0.0800 
    245 H245       -2.6674  -15.2274  -52.8784 H         1 UNK         0.0800 
    246 H246       -0.5736  -16.0267  -52.4560 H         1 UNK         0.0800 
    247 H247       -0.7659  -17.7108  -52.8711 H         1 UNK         0.0800 
@<TRIPOS>BOND
     1    1    2 1    
     2    1  127 1    
     3    1  128 1    
     4    1  129 1    
     5    2    3 2    
     6    2    4 am   BACKBONE|DICT|INTERRES
     7    4    5 1    
     8    4  130 1    
     9    5    6 1    
    10    5   65 1    
    11    5  131 1    
    12    6    7 1    
    13    6  132 1    
    14    6  133 1    
    15    7    8 1    
    16    8    9 1    
    17    8  134 1    
    18    8  135 1    
    19    9   10 ar   
    20    9   14 ar   
    21   10   11 ar   
    22   10  136 1    
    23   11   12 ar   
    24   11  126 1    
    25   12   13 ar   
    26   12  137 1    
    27   13   14 ar   
    28   13   15 1    
    29   14  138 1    
    30   15   16 1    
    31   15  139 1    
    32   15  140 1    
    33   16   17 1    
    34   17   18 1    
    35   17  141 1    
    36   17  142 1    
    37   18   19 1    
    38   18   67 1    
    39   18  143 1    
    40   19   20 am   BACKBONE|DICT|INTERRES
    41   19  144 1    
    42   20   21 2    
    43   20   22 1    
    44   22   23 1    
    45   22   24 1    
    46   22  145 1    
    47   23  146 1    
    48   23  147 1    
    49   23  148 1    
    50   24   25 am   BACKBONE|DICT|INTERRES
    51   24  149 1    
    52   25   26 2    
    53   25   27 1    
    54   27   28 1    
    55   27   29 1    
    56   27  150 1    
    57   28  151 1    
    58   28  152 1    
    59   28  153 1    
    60   29   30 am   BACKBONE|DICT|INTERRES
    61   29  154 1    
    62   30   31 2    
    63   30   32 1    
    64   32   33 1    
    65   32   34 1    
    66   32  155 1    
    67   33  156 1    
    68   33  157 1    
    69   33  158 1    
    70   34   35 am   BACKBONE|DICT|INTERRES
    71   34  159 1    
    72   35   36 2    
    73   35   37 1    
    74   37   38 1    
    75   37   39 1    
    76   37  160 1    
    77   38  161 1    
    78   38  162 1    
    79   38  163 1    
    80   39   40 am   BACKBONE|DICT|INTERRES
    81   39  164 1    
    82   40   41 2    
    83   40   42 1    
    84   42   43 1    
    85   42   44 1    
    86   42  165 1    
    87   43  166 1    
    88   43  167 1    
    89   43  168 1    
    90   44   45 am   BACKBONE|DICT|INTERRES
    91   44  169 1    
    92   45   46 2    
    93   45   47 1    
    94   47   48 1    
    95   47   49 1    
    96   47  170 1    
    97   48  171 1    
    98   48  172 1    
    99   48  173 1    
   100   49   50 am   BACKBONE|DICT|INTERRES
   101   49  174 1    
   102   50   51 2    
   103   50   52 1    
   104   52   53 1    
   105   52   54 1    
   106   52  175 1    
   107   53  176 1    
   108   53  177 1    
   109   53  178 1    
   110   54   55 am   BACKBONE|DICT|INTERRES
   111   54  179 1    
   112   55   56 2    
   113   55   57 1    
   114   57   58 1    
   115   57   59 1    
   116   57  180 1    
   117   58  181 1    
   118   58  182 1    
   119   58  183 1    
   120   59   60 am   BACKBONE|DICT|INTERRES
   121   59  184 1    
   122   60   61 2    
   123   60   62 1    
   124   62   63 1    
   125   62   64 1    
   126   62  185 1    
   127   63  186 1    
   128   63  187 1    
   129   63  188 1    
   130   64   65 am   BACKBONE|DICT|INTERRES
   131   64  189 1    
   132   65   66 2    
   133   67   68 2    
   134   67   69 am   BACKBONE|DICT|INTERRES
   135   69   70 1    
   136   69  190 1    
   137   70   71 1    
   138   70   72 1    
   139   70  191 1    
   140   71  192 1    
   141   71  193 1    
   142   71  194 1    
   143   72   73 2    
   144   72   74 am   BACKBONE|DICT|INTERRES
   145   74   75 1    
   146   74  195 1    
   147   75   76 1    
   148   75   77 1    
   149   75  196 1    
   150   76  197 1    
   151   76  198 1    
   152   76  199 1    
   153   77   78 2    
   154   77   79 am   BACKBONE|DICT|INTERRES
   155   79   80 1    
   156   79  200 1    
   157   80   81 1    
   158   80   82 1    
   159   80  201 1    
   160   81  202 1    
   161   81  203 1    
   162   81  204 1    
   163   82   83 2    
   164   82   84 am   BACKBONE|DICT|INTERRES
   165   84   85 1    
   166   84  205 1    
   167   85   86 1    
   168   85   87 1    
   169   85  206 1    
   170   86  207 1    
   171   86  208 1    
   172   86  209 1    
   173   87   88 2    
   174   87   89 am   BACKBONE|DICT|INTERRES
   175   89   90 1    
   176   89  210 1    
   177   90   91 1    
   178   90   92 1    
   179   90  211 1    
   180   91  212 1    
   181   91  213 1    
   182   91  214 1    
   183   92   93 2    
   184   92   94 am   BACKBONE|DICT|INTERRES
   185   94   95 1    
   186   94  215 1    
   187   95   96 1    
   188   95   97 1    
   189   95  216 1    
   190   96  217 1    
   191   96  218 1    
   192   96  219 1    
   193   97   98 2    
   194   97   99 am   BACKBONE|DICT|INTERRES
   195   99  100 1    
   196   99  220 1    
   197  100  101 1    
   198  100  102 1    
   199  100  221 1    
   200  101  222 1    
   201  101  223 1    
   202  101  224 1    
   203  102  103 2    
   204  102  104 am   BACKBONE|DICT|INTERRES
   205  104  105 1    
   206  104  225 1    
   207  105  106 1    
   208  105  107 1    
   209  105  226 1    
   210  106  227 1    
   211  106  228 1    
   212  106  229 1    
   213  107  108 2    
   214  107  109 am   BACKBONE|DICT|INTERRES
   215  109  110 1    
   216  109  230 1    
   217  110  111 1    
   218  110  112 1    
   219  110  231 1    
   220  111  232 1    
   221  111  233 1    
   222  111  234 1    
   223  112  113 2    
   224  112  114 am   BACKBONE|DICT|INTERRES
   225  114  115 1    
   226  114  235 1    
   227  115  116 1    
   228  115  117 1    
   229  115  236 1    
   230  116  237 1    
   231  116  238 1    
   232  116  239 1    
   233  117  118 2    
   234  117  119 am   BACKBONE|DICT|INTERRES
   235  119  120 1    
   236  119  240 1    
   237  120  121 1    
   238  120  124 1    
   239  120  241 1    
   240  121  122 am   BACKBONE|DICT|INTERRES
   241  121  123 2    
   242  122  242 1    
   243  122  243 1    
   244  124  125 1    
   245  124  244 1    
   246  124  245 1    
   247  125  126 1    
   248  126  246 1    
   249  126  247 1    
@<TRIPOS>SUBSTRUCTURE
     1 UNK         1 GROUP             0       ****    0 ROOT    
