@<TRIPOS>MOLECULE
3R540
247   249    1
SMALL
USER_CHARGES


@<TRIPOS>ATOM
      1 CA         -4.3211  -10.1314  -46.5655 C.3       0 UNK        -0.1800 
      2 C          -3.2037  -11.1619  -46.6166 C.2       0 UNK         0.5000 
      3 O          -2.2209  -11.0397  -45.8851 O.2       0 UNK        -0.5000 
      4 N          -3.3521  -12.1955  -47.4563 N.am      1 UNK        -0.5000 
      5 CA         -2.3601  -13.2634  -47.6468 C.3       1 UNK         0.1400 
      6 C6         -2.6533  -14.0899  -48.9301 C.3       23 UNK        -0.0398 
      7 S7         -3.8753  -15.4436  -48.7410 S.3       23 UNK        -0.2404 
      8 C8         -3.4408  -16.5480  -50.1302 C.3       23 UNK        -0.0205 
      9 C9         -2.1539  -17.3698  -49.9952 C.ar      23 UNK        -0.0193 
     10 C10        -1.9126  -18.3649  -50.9468 C.ar      23 UNK        -0.1150 
     11 C11        -0.7305  -19.1106  -50.9278 C.ar      23 UNK        -0.0193 
     12 C12         0.2254  -18.8574  -49.9412 C.ar      23 UNK        -0.1150 
     13 C13         0.0021  -17.8711  -48.9778 C.ar      23 UNK        -0.0193 
     14 C14        -1.1945  -17.1500  -48.9976 C.ar      23 UNK        -0.1150 
     15 C15         1.0756  -17.5456  -47.9487 C.3       23 UNK        -0.0205 
     16 S16         1.0525  -18.6856  -46.5329 S.3       23 UNK        -0.2404 
     17 C17        -0.5043  -18.2198  -45.7037 C.3       23 UNK        -0.0398 
     18 CA         -1.5401  -19.3620  -45.7339 C.3       11 UNK         0.1400 
     19 N          -1.0010  -20.5691  -45.0999 N.am      11 UNK        -0.5000 
     20 C          -1.6057  -21.7499  -44.9242 C.2       10 UNK         0.5000 
     21 O          -2.7354  -22.0064  -45.3426 O.2       10 UNK        -0.5000 
     22 CA         -0.8323  -22.7977  -44.0990 C.3       10 UNK         0.1400 
     23 CB         -0.2181  -23.8627  -45.0188 C.3       10 UNK        -0.1800 
     24 N           0.2320  -22.2244  -43.2656 N.am      10 UNK        -0.5000 
     25 C           0.0602  -21.3745  -42.2420 C.2       9 UNK         0.5000 
     26 O          -1.0448  -20.9400  -41.9122 O.2       9 UNK        -0.5000 
     27 CA          1.3196  -20.8732  -41.4996 C.3       9 UNK         0.1400 
     28 CB          1.2129  -21.1033  -39.9792 C.3       9 UNK        -0.1800 
     29 N           2.6026  -21.3707  -42.0207 N.am      9 UNK        -0.5000 
     30 C           3.0847  -22.6249  -41.9963 C.2       8 UNK         0.5000 
     31 O           2.4630  -23.5883  -41.5491 O.2       8 UNK        -0.5000 
     32 CA          4.4844  -22.8587  -42.6044 C.3       8 UNK         0.1400 
     33 CB          4.3543  -23.4402  -44.0213 C.3       8 UNK        -0.1800 
     34 N           5.3072  -21.6499  -42.6686 N.am      8 UNK        -0.5000 
     35 C           5.8206  -21.0086  -41.6095 C.2       7 UNK         0.5000 
     36 O           5.7368  -21.4271  -40.4542 O.2       7 UNK        -0.5000 
     37 CA          6.5288  -19.6625  -41.8772 C.3       7 UNK         0.1400 
     38 CB          8.0542  -19.8436  -41.8344 C.3       7 UNK        -0.1800 
     39 N           6.1663  -19.0038  -43.1402 N.am      7 UNK        -0.5000 
     40 C           4.9343  -18.6132  -43.4927 C.2       6 UNK         0.5000 
     41 O           3.9250  -18.8476  -42.8213 O.2       6 UNK        -0.5000 
     42 CA          4.8083  -17.8943  -44.8495 C.3       6 UNK         0.1400 
     43 CB          4.8450  -18.9137  -45.9994 C.3       6 UNK        -0.1800 
     44 N           3.5503  -17.1569  -44.9246 N.am      6 UNK        -0.5000 
     45 C           3.3082  -15.9940  -44.3106 C.2       5 UNK         0.5000 
     46 O           4.1728  -15.3071  -43.7599 O.2       5 UNK        -0.5000 
     47 CA          1.8289  -15.5818  -44.2449 C.3       5 UNK         0.1400 
     48 CB          1.1649  -16.2158  -43.0120 C.3       5 UNK        -0.1800 
     49 N           1.6373  -14.1368  -44.1888 N.am      5 UNK        -0.5000 
     50 C           1.8223  -13.2913  -45.2092 C.2       4 UNK         0.5000 
     51 O           2.2422  -13.6433  -46.3136 O.2       4 UNK        -0.5000 
     52 CA          1.4359  -11.8152  -44.9565 C.3       4 UNK         0.1400 
     53 CB          1.3727  -10.9902  -46.2546 C.3       4 UNK        -0.1800 
     54 N           0.1444  -11.6999  -44.2742 N.am      4 UNK        -0.5000 
     55 C          -0.0578  -11.8070  -42.9541 C.2       3 UNK         0.5000 
     56 O           0.8482  -11.9715  -42.1371 O.2       3 UNK        -0.5000 
     57 CA         -1.5210  -11.8128  -42.4847 C.3       3 UNK         0.1400 
     58 CB         -2.1204  -10.3976  -42.4995 C.3       3 UNK        -0.1800 
     59 N          -2.3160  -12.7038  -43.3304 N.am      3 UNK        -0.5000 
     60 C          -2.4095  -14.0290  -43.1448 C.2       2 UNK         0.5000 
     61 O          -1.9356  -14.6130  -42.1708 O.2       2 UNK        -0.5000 
     62 CA         -3.1552  -14.8486  -44.2159 C.3       2 UNK         0.1400 
     63 CB         -4.5994  -15.1235  -43.7716 C.3       2 UNK        -0.1800 
     64 N          -3.1824  -14.1899  -45.5199 N.am      2 UNK        -0.5000 
     65 C          -2.1517  -14.1247  -46.3752 C.2       1 UNK         0.5000 
     66 O          -1.0714  -14.6798  -46.1838 O.2       1 UNK        -0.5000 
     67 C          -2.8680  -18.8779  -45.1118 C.2       11 UNK         0.5000 
     68 O          -3.6538  -18.2366  -45.8072 O.2       11 UNK        -0.5000 
     69 N          -3.1323  -19.2396  -43.8461 N.am      12 UNK        -0.5000 
     70 CA         -4.4144  -19.0377  -43.1640 C.3       12 UNK         0.1400 
     71 CB         -4.2711  -19.4753  -41.6993 C.3       12 UNK        -0.1800 
     72 C          -5.5987  -19.7680  -43.8358 C.2       12 UNK         0.5000 
     73 O          -6.7376  -19.3205  -43.7017 O.2       12 UNK        -0.5000 
     74 N          -5.3045  -20.8513  -44.5666 N.am      13 UNK        -0.5000 
     75 CA         -6.2340  -21.6015  -45.4103 C.3       13 UNK         0.1400 
     76 CB         -6.2602  -23.0624  -44.9259 C.3       13 UNK        -0.1800 
     77 C          -5.8236  -21.4984  -46.8952 C.2       13 UNK         0.5000 
     78 O          -6.1358  -22.3986  -47.6770 O.2       13 UNK        -0.5000 
     79 N          -5.0853  -20.4325  -47.2526 N.am      14 UNK        -0.5000 
     80 CA         -4.5188  -20.1304  -48.5757 C.3       14 UNK         0.1400 
     81 CB         -5.6434  -19.7667  -49.5657 C.3       14 UNK        -0.1800 
     82 C          -3.5779  -21.2270  -49.1253 C.2       14 UNK         0.5000 
     83 O          -3.3944  -21.3270  -50.3379 O.2       14 UNK        -0.5000 
     84 N          -3.0195  -22.0456  -48.2202 N.am      15 UNK        -0.5000 
     85 CA         -2.2234  -23.2454  -48.4805 C.3       15 UNK         0.1400 
     86 CB         -0.8347  -22.8674  -49.0278 C.3       15 UNK        -0.1800 
     87 C          -2.9731  -24.3178  -49.3044 C.2       15 UNK         0.5000 
     88 O          -2.3506  -25.0689  -50.0583 O.2       15 UNK        -0.5000 
     89 N          -4.3011  -24.3858  -49.1134 N.am      16 UNK        -0.5000 
     90 CA         -5.2401  -25.3401  -49.7051 C.3       16 UNK         0.1400 
     91 CB         -5.0357  -26.7413  -49.0862 C.3       16 UNK        -0.1800 
     92 C          -5.1968  -25.3154  -51.2470 C.2       16 UNK         0.5000 
     93 O          -5.5443  -24.2951  -51.8415 O.2       16 UNK        -0.5000 
     94 N          -4.7645  -26.4202  -51.8705 N.am      17 UNK        -0.5000 
     95 CA         -4.6689  -26.5969  -53.3223 C.3       17 UNK         0.1400 
     96 CB         -4.2690  -28.0496  -53.6211 C.3       17 UNK        -0.1800 
     97 C          -3.7035  -25.6188  -54.0214 C.2       17 UNK         0.5000 
     98 O          -3.8767  -25.3499  -55.2112 O.2       17 UNK        -0.5000 
     99 N          -2.7267  -25.0773  -53.2782 N.am      18 UNK        -0.5000 
    100 CA        -1.7764  -24.0785  -53.7697 C.3       18 UNK         0.1400 
    101 CB        -0.6202  -23.9353  -52.7731 C.3       18 UNK        -0.1800 
    102 C         -2.4147  -22.7069  -54.0620 C.2       18 UNK         0.5000 
    103 O         -1.8037  -21.9117  -54.7748 O.2       18 UNK        -0.5000 
    104 N         -3.6346  -22.4519  -53.5631 N.am      19 UNK        -0.5000 
    105 CA        -4.4035  -21.2253  -53.8017 C.3       19 UNK         0.1400 
    106 CB        -5.7197  -21.2935  -53.0141 C.3       19 UNK        -0.1800 
    107 C         -4.7001  -20.9505  -55.2906 C.2       19 UNK         0.5000 
    108 O         -4.8959  -19.7945  -55.6632 O.2       19 UNK        -0.5000 
    109 N         -4.7166  -22.0094  -56.1127 N.am      20 UNK        -0.5000 
    110 CA        -4.8531  -21.9323  -57.5662 C.3       20 UNK         0.1400 
    111 CB        -5.3157  -23.3008  -58.0894 C.3       20 UNK        -0.1800 
    112 C         -3.5528  -21.4984  -58.2741 C.2       20 UNK         0.5000 
    113 O         -3.6246  -20.9777  -59.3881 O.2       20 UNK        -0.5000 
    114 N         -2.3962  -21.7315  -57.6380 N.am      21 UNK        -0.5000 
    115 CA        -1.0750  -21.3755  -58.1548 C.3       21 UNK         0.1400 
    116 CB        -0.0569  -22.4475  -57.7327 C.3       21 UNK        -0.1800 
    117 C         -0.6386  -19.9854  -57.6643 C.2       21 UNK         0.5000 
    118 O         -0.0859  -19.2129  -58.4489 O.2       21 UNK        -0.5000 
    119 N         -0.8935  -19.6935  -56.3826 N.am      22 UNK        -0.5000 
    120 CA        -0.6361  -18.3958  -55.7411 C.3       22 UNK         0.1400 
    121 C         -1.4927  -17.2381  -56.3296 C.2       22 UNK         0.5000 
    122 N         -0.9825  -16.0139  -56.3072 N.am      22 UNK        -0.7600 
    123 O         -2.6237  -17.4254  -56.7710 O.2       22 UNK        -0.5000 
    124 C124       -0.8205  -18.4792  -54.2054 C.3       23 UNK        -0.0398 
    125 S125        0.4263  -19.5521  -53.4154 S.3       23 UNK        -0.2404 
    126 C126       -0.4861  -20.1866  -51.9744 C.3       23 UNK        -0.0205 
    127 H127       -5.1351  -10.3817  -47.2462 H         1 UNK         0.0600 
    128 H128       -3.9362   -9.1494  -46.8402 H         1 UNK         0.0600 
    129 H129       -4.7270  -10.0693  -45.5558 H         1 UNK         0.0600 
    130 H130       -4.1861  -12.2622  -48.0229 H         1 UNK         0.3000 
    131 H131       -1.4071  -12.7576  -47.8179 H         1 UNK         0.0600 
    132 H132       -1.7166  -14.4987  -49.3069 H         1 UNK         0.0800 
    133 H133       -2.9993  -13.4312  -49.7279 H         1 UNK         0.0800 
    134 H134       -3.3800  -15.9518  -51.0417 H         1 UNK         0.0800 
    135 H135       -4.2769  -17.2325  -50.2723 H         1 UNK         0.0800 
    136 H136       -2.6488  -18.5571  -51.7144 H         1 UNK         0.1150 
    137 H137        1.1487  -19.4193  -49.9301 H         1 UNK         0.1150 
    138 H138       -1.3511  -16.4002  -48.2400 H         1 UNK         0.1150 
    139 H139        2.0571  -17.5990  -48.4221 H         1 UNK         0.0800 
    140 H140        0.9697  -16.5184  -47.5945 H         1 UNK         0.0800 
    141 H141       -0.9088  -17.3168  -46.1602 H         1 UNK         0.0800 
    142 H142       -0.2734  -17.9544  -44.6726 H         1 UNK         0.0800 
    143 H143       -1.7478  -19.6106  -46.7768 H         1 UNK         0.0600 
    144 H144       -0.0623  -20.4811  -44.7402 H         1 UNK         0.3000 
    145 H145       -1.5492  -23.2849  -43.4352 H         1 UNK         0.0600 
    146 H146        0.3419  -24.6033  -44.4472 H         1 UNK         0.0600 
    147 H147       -0.9938  -24.4012  -45.5630 H         1 UNK         0.0600 
    148 H148        0.4588  -23.4223  -45.7523 H         1 UNK         0.0600 
    149 H149        1.1714  -22.5405  -43.4541 H         1 UNK         0.3000 
    150 H150        1.3434  -19.7944  -41.6616 H         1 UNK         0.0600 
    151 H151        0.3374  -20.5992  -39.5680 H         1 UNK         0.0600 
    152 H152        2.0864  -20.7096  -39.4593 H         1 UNK         0.0600 
    153 H153        1.1228  -22.1613  -39.7323 H         1 UNK         0.0600 
    154 H154        3.1986  -20.6443  -42.4080 H         1 UNK         0.3000 
    155 H155        4.9979  -23.5902  -41.9770 H         1 UNK         0.0600 
    156 H156        3.8629  -22.7420  -44.7004 H         1 UNK         0.0600 
    157 H157        3.7682  -24.3603  -44.0154 H         1 UNK         0.0600 
    158 H158        5.3316  -23.6833  -44.4389 H         1 UNK         0.0600 
    159 H159        5.4378  -21.2375  -43.5801 H         1 UNK         0.3000 
    160 H160        6.2433  -18.9886  -41.0670 H         1 UNK         0.0600 
    161 H161        8.4053  -20.4835  -42.6448 H         1 UNK         0.0600 
    162 H162        8.3689  -20.3010  -40.8953 H         1 UNK         0.0600 
    163 H163        8.5687  -18.8858  -41.9141 H         1 UNK         0.0600 
    164 H164        6.9343  -18.7958  -43.7624 H         1 UNK         0.3000 
    165 H165        5.6410  -17.1968  -44.9620 H         1 UNK         0.0600 
    166 H166        4.7301  -18.4218  -46.9656 H         1 UNK         0.0600 
    167 H167        5.7942  -19.4502  -46.0212 H         1 UNK         0.0600 
    168 H168        4.0505  -19.6558  -45.9070 H         1 UNK         0.0600 
    169 H169        2.7720  -17.6663  -45.3209 H         1 UNK         0.3000 
    170 H170        1.3257  -15.9489  -45.1409 H         1 UNK         0.0600 
    171 H171        1.5509  -15.7912  -42.0844 H         1 UNK         0.0600 
    172 H172        0.0865  -16.0667  -43.0278 H         1 UNK         0.0600 
    173 H173        1.3420  -17.2917  -42.9737 H         1 UNK         0.0600 
    174 H174        1.3391  -13.7500  -43.3030 H         1 UNK         0.3000 
    175 H175        2.2141  -11.3830  -44.3244 H         1 UNK         0.0600 
    176 H176        0.6254  -11.3854  -46.9438 H         1 UNK         0.0600 
    177 H177        1.1192   -9.9503  -46.0483 H         1 UNK         0.0600 
    178 H178        2.3337  -10.9926  -46.7704 H         1 UNK         0.0600 
    179 H179       -0.6647  -11.5659  -44.8743 H         1 UNK         0.3000 
    180 H180       -1.5457  -12.1720  -41.4535 H         1 UNK         0.0600 
    181 H181       -3.1549  -10.4056  -42.1561 H         1 UNK         0.0600 
    182 H182       -2.1020   -9.9524  -43.4941 H         1 UNK         0.0600 
    183 H183       -1.5630   -9.7350  -41.8364 H         1 UNK         0.0600 
    184 H184       -2.6871  -12.3019  -44.1810 H         1 UNK         0.3000 
    185 H185       -2.6393  -15.8057  -44.3181 H         1 UNK         0.0600 
    186 H186       -5.1034  -15.7927  -44.4696 H         1 UNK         0.0600 
    187 H187       -4.6240  -15.5968  -42.7893 H         1 UNK         0.0600 
    188 H188       -5.1825  -14.2042  -43.7048 H         1 UNK         0.0600 
    189 H189       -4.0388  -13.7201  -45.7739 H         1 UNK         0.3000 
    190 H190       -2.4368  -19.7716  -43.3366 H         1 UNK         0.3000 
    191 H191       -4.6378  -17.9708  -43.1827 H         1 UNK         0.0600 
    192 H192       -5.1990  -19.3143  -41.1490 H         1 UNK         0.0600 
    193 H193       -3.4901  -18.9077  -41.1928 H         1 UNK         0.0600 
    194 H194       -4.0197  -20.5339  -41.6198 H         1 UNK         0.0600 
    195 H195       -4.3353  -21.1489  -44.6319 H         1 UNK         0.3000 
    196 H196       -7.2433  -21.1937  -45.3314 H         1 UNK         0.0600 
    197 H197       -5.2861  -23.5398  -45.0417 H         1 UNK         0.0600 
    198 H198       -6.5395  -23.1226  -43.8740 H         1 UNK         0.0600 
    199 H199       -6.9864  -23.6522  -45.4866 H         1 UNK         0.0600 
    200 H200       -4.8720  -19.7444  -46.5391 H         1 UNK         0.3000 
    201 H201       -3.8962  -19.2446  -48.4447 H         1 UNK         0.0600 
    202 H202       -6.3008  -20.6148  -49.7585 H         1 UNK         0.0600 
    203 H203       -5.2364  -19.4444  -50.5245 H         1 UNK         0.0600 
    204 H204       -6.2535  -18.9485  -49.1834 H         1 UNK         0.0600 
    205 H205       -3.2209  -21.8820  -47.2391 H         1 UNK         0.3000 
    206 H206       -2.0649  -23.7101  -47.5084 H         1 UNK         0.0600 
    207 H207       -0.2932  -22.2448  -48.3153 H         1 UNK         0.0600 
    208 H208       -0.2232  -23.7500  -49.2181 H         1 UNK         0.0600 
    209 H209       -0.9137  -22.3075  -49.9560 H         1 UNK         0.0600 
    210 H210       -4.7328  -23.6748  -48.5319 H         1 UNK         0.3000 
    211 H211       -6.2381  -24.9992  -49.4258 H         1 UNK         0.0600 
    212 H212       -5.7668  -27.4535  -49.4711 H         1 UNK         0.0600 
    213 H213       -5.1649  -26.7076  -48.0043 H         1 UNK         0.0600 
    214 H214       -4.0406  -27.1412  -49.2839 H         1 UNK         0.0600 
    215 H215       -4.4710  -27.2020  -51.3031 H         1 UNK         0.3000 
    216 H216       -5.6621  -26.4226  -53.7410 H         1 UNK         0.0600 
    217 H217       -3.2926  -28.2921  -53.1996 H         1 UNK         0.0600 
    218 H218       -4.2160  -28.2278  -54.6960 H         1 UNK         0.0600 
    219 H219       -4.9962  -28.7519  -53.2130 H         1 UNK         0.0600 
    220 H220       -2.6665  -25.3177  -52.2954 H         1 UNK         0.3000 
    221 H221       -1.3617  -24.4444  -54.7113 H         1 UNK         0.0600 
    222 H222       -0.1228  -24.8896  -52.6001 H         1 UNK         0.0600 
    223 H223       -0.9749  -23.5622  -51.8154 H         1 UNK         0.0600 
    224 H224        0.1313  -23.2353  -53.1409 H         1 UNK         0.0600 
    225 H225       -4.0786  -23.1469  -52.9737 H         1 UNK         0.3000 
    226 H226       -3.8148  -20.3903  -53.4175 H         1 UNK         0.0600 
    227 H227       -6.3719  -22.0822  -53.3913 H         1 UNK         0.0600 
    228 H228       -5.5392  -21.4925  -51.9587 H         1 UNK         0.0600 
    229 H229       -6.2661  -20.3521  -53.0807 H         1 UNK         0.0600 
    230 H230       -4.5564  -22.9273  -55.7196 H         1 UNK         0.3000 
    231 H231       -5.6235  -21.1969  -57.8079 H         1 UNK         0.0600 
    232 H232       -4.5903  -24.0836  -57.8631 H         1 UNK         0.0600 
    233 H233       -5.4519  -23.2809  -59.1714 H         1 UNK         0.0600 
    234 H234       -6.2694  -23.5902  -57.6476 H         1 UNK         0.0600 
    235 H235       -2.4218  -22.0890  -56.6908 H         1 UNK         0.3000 
    236 H236       -1.1000  -21.3544  -59.2465 H         1 UNK         0.0600 
    237 H237       -0.3435  -23.4308  -58.1057 H         1 UNK         0.0600 
    238 H238        0.9321  -22.2228  -58.1339 H         1 UNK         0.0600 
    239 H239        0.0386  -22.5157  -56.6486 H         1 UNK         0.0600 
    240 H240       -1.3080  -20.4095  -55.7928 H         1 UNK         0.3000 
    241 H241        0.4088  -18.1499  -55.9410 H         1 UNK         0.0600 
    242 H242       -1.5295  -15.2502  -56.6737 H         1 UNK         0.3800 
    243 H243       -0.0583  -15.8300  -55.9479 H         1 UNK         0.3800 
    244 H244       -1.8218  -18.8441  -53.9723 H         1 UNK         0.0800 
    245 H245       -0.7356  -17.4928  -53.7455 H         1 UNK         0.0800 
    246 H246       -1.4323  -20.6255  -52.2904 H         1 UNK         0.0800 
    247 H247        0.0956  -20.9983  -51.5379 H         1 UNK         0.0800 
@<TRIPOS>BOND
     1    1    2 1    
     2    1  127 1    
     3    1  128 1    
     4    1  129 1    
     5    2    3 2    
     6    2    4 am   BACKBONE|DICT|INTERRES
     7    4    5 1    
     8    4  130 1    
     9    5    6 1    
    10    5   65 1    
    11    5  131 1    
    12    6    7 1    
    13    6  132 1    
    14    6  133 1    
    15    7    8 1    
    16    8    9 1    
    17    8  134 1    
    18    8  135 1    
    19    9   10 ar   
    20    9   14 ar   
    21   10   11 ar   
    22   10  136 1    
    23   11   12 ar   
    24   11  126 1    
    25   12   13 ar   
    26   12  137 1    
    27   13   14 ar   
    28   13   15 1    
    29   14  138 1    
    30   15   16 1    
    31   15  139 1    
    32   15  140 1    
    33   16   17 1    
    34   17   18 1    
    35   17  141 1    
    36   17  142 1    
    37   18   19 1    
    38   18   67 1    
    39   18  143 1    
    40   19   20 am   BACKBONE|DICT|INTERRES
    41   19  144 1    
    42   20   21 2    
    43   20   22 1    
    44   22   23 1    
    45   22   24 1    
    46   22  145 1    
    47   23  146 1    
    48   23  147 1    
    49   23  148 1    
    50   24   25 am   BACKBONE|DICT|INTERRES
    51   24  149 1    
    52   25   26 2    
    53   25   27 1    
    54   27   28 1    
    55   27   29 1    
    56   27  150 1    
    57   28  151 1    
    58   28  152 1    
    59   28  153 1    
    60   29   30 am   BACKBONE|DICT|INTERRES
    61   29  154 1    
    62   30   31 2    
    63   30   32 1    
    64   32   33 1    
    65   32   34 1    
    66   32  155 1    
    67   33  156 1    
    68   33  157 1    
    69   33  158 1    
    70   34   35 am   BACKBONE|DICT|INTERRES
    71   34  159 1    
    72   35   36 2    
    73   35   37 1    
    74   37   38 1    
    75   37   39 1    
    76   37  160 1    
    77   38  161 1    
    78   38  162 1    
    79   38  163 1    
    80   39   40 am   BACKBONE|DICT|INTERRES
    81   39  164 1    
    82   40   41 2    
    83   40   42 1    
    84   42   43 1    
    85   42   44 1    
    86   42  165 1    
    87   43  166 1    
    88   43  167 1    
    89   43  168 1    
    90   44   45 am   BACKBONE|DICT|INTERRES
    91   44  169 1    
    92   45   46 2    
    93   45   47 1    
    94   47   48 1    
    95   47   49 1    
    96   47  170 1    
    97   48  171 1    
    98   48  172 1    
    99   48  173 1    
   100   49   50 am   BACKBONE|DICT|INTERRES
   101   49  174 1    
   102   50   51 2    
   103   50   52 1    
   104   52   53 1    
   105   52   54 1    
   106   52  175 1    
   107   53  176 1    
   108   53  177 1    
   109   53  178 1    
   110   54   55 am   BACKBONE|DICT|INTERRES
   111   54  179 1    
   112   55   56 2    
   113   55   57 1    
   114   57   58 1    
   115   57   59 1    
   116   57  180 1    
   117   58  181 1    
   118   58  182 1    
   119   58  183 1    
   120   59   60 am   BACKBONE|DICT|INTERRES
   121   59  184 1    
   122   60   61 2    
   123   60   62 1    
   124   62   63 1    
   125   62   64 1    
   126   62  185 1    
   127   63  186 1    
   128   63  187 1    
   129   63  188 1    
   130   64   65 am   BACKBONE|DICT|INTERRES
   131   64  189 1    
   132   65   66 2    
   133   67   68 2    
   134   67   69 am   BACKBONE|DICT|INTERRES
   135   69   70 1    
   136   69  190 1    
   137   70   71 1    
   138   70   72 1    
   139   70  191 1    
   140   71  192 1    
   141   71  193 1    
   142   71  194 1    
   143   72   73 2    
   144   72   74 am   BACKBONE|DICT|INTERRES
   145   74   75 1    
   146   74  195 1    
   147   75   76 1    
   148   75   77 1    
   149   75  196 1    
   150   76  197 1    
   151   76  198 1    
   152   76  199 1    
   153   77   78 2    
   154   77   79 am   BACKBONE|DICT|INTERRES
   155   79   80 1    
   156   79  200 1    
   157   80   81 1    
   158   80   82 1    
   159   80  201 1    
   160   81  202 1    
   161   81  203 1    
   162   81  204 1    
   163   82   83 2    
   164   82   84 am   BACKBONE|DICT|INTERRES
   165   84   85 1    
   166   84  205 1    
   167   85   86 1    
   168   85   87 1    
   169   85  206 1    
   170   86  207 1    
   171   86  208 1    
   172   86  209 1    
   173   87   88 2    
   174   87   89 am   BACKBONE|DICT|INTERRES
   175   89   90 1    
   176   89  210 1    
   177   90   91 1    
   178   90   92 1    
   179   90  211 1    
   180   91  212 1    
   181   91  213 1    
   182   91  214 1    
   183   92   93 2    
   184   92   94 am   BACKBONE|DICT|INTERRES
   185   94   95 1    
   186   94  215 1    
   187   95   96 1    
   188   95   97 1    
   189   95  216 1    
   190   96  217 1    
   191   96  218 1    
   192   96  219 1    
   193   97   98 2    
   194   97   99 am   BACKBONE|DICT|INTERRES
   195   99  100 1    
   196   99  220 1    
   197  100  101 1    
   198  100  102 1    
   199  100  221 1    
   200  101  222 1    
   201  101  223 1    
   202  101  224 1    
   203  102  103 2    
   204  102  104 am   BACKBONE|DICT|INTERRES
   205  104  105 1    
   206  104  225 1    
   207  105  106 1    
   208  105  107 1    
   209  105  226 1    
   210  106  227 1    
   211  106  228 1    
   212  106  229 1    
   213  107  108 2    
   214  107  109 am   BACKBONE|DICT|INTERRES
   215  109  110 1    
   216  109  230 1    
   217  110  111 1    
   218  110  112 1    
   219  110  231 1    
   220  111  232 1    
   221  111  233 1    
   222  111  234 1    
   223  112  113 2    
   224  112  114 am   BACKBONE|DICT|INTERRES
   225  114  115 1    
   226  114  235 1    
   227  115  116 1    
   228  115  117 1    
   229  115  236 1    
   230  116  237 1    
   231  116  238 1    
   232  116  239 1    
   233  117  118 2    
   234  117  119 am   BACKBONE|DICT|INTERRES
   235  119  120 1    
   236  119  240 1    
   237  120  121 1    
   238  120  124 1    
   239  120  241 1    
   240  121  122 am   BACKBONE|DICT|INTERRES
   241  121  123 2    
   242  122  242 1    
   243  122  243 1    
   244  124  125 1    
   245  124  244 1    
   246  124  245 1    
   247  125  126 1    
   248  126  246 1    
   249  126  247 1    
@<TRIPOS>SUBSTRUCTURE
     1 UNK         1 GROUP             0       ****    0 ROOT    
