@<TRIPOS>MOLECULE
3R540
247   249    1
SMALL
USER_CHARGES


@<TRIPOS>ATOM
      1 CA         -0.4179   -9.7697  -44.1762 C.3       0 UNK        -0.1800 
      2 C          -0.0468  -10.4806  -45.4695 C.2       0 UNK         0.5000 
      3 O           0.7343  -11.4290  -45.4380 O.2       0 UNK        -0.5000 
      4 N          -0.6061  -10.0278  -46.5998 N.am      1 UNK        -0.5000 
      5 CA         -0.3855  -10.5572  -47.9526 C.3       1 UNK         0.1400 
      6 C6         -1.0250  -11.9589  -48.1745 C.3       23 UNK        -0.0398 
      7 S7         -2.8480  -11.8641  -48.1004 S.3       23 UNK        -0.2404 
      8 C8         -3.2255  -12.6786  -46.5088 C.3       23 UNK        -0.0205 
      9 C9         -3.3014  -14.2080  -46.5276 C.ar      23 UNK        -0.0193 
     10 C10        -3.2336  -14.9681  -47.7030 C.ar      23 UNK        -0.1150 
     11 C11        -3.3080  -16.3634  -47.6577 C.ar      23 UNK        -0.0193 
     12 C12        -3.4517  -17.0037  -46.4242 C.ar      23 UNK        -0.1150 
     13 C13        -3.5625  -16.2644  -45.2420 C.ar      23 UNK        -0.0193 
     14 C14        -3.4824  -14.8699  -45.3090 C.ar      23 UNK        -0.1150 
     15 C15        -3.7600  -16.9337  -43.8808 C.3       23 UNK        -0.0205 
     16 S16        -4.7458  -18.4732  -43.9281 S.3       23 UNK        -0.2404 
     17 C17        -3.5209  -19.7766  -43.5525 C.3       23 UNK        -0.0398 
     18 CA         -3.2975  -20.7555  -44.7399 C.3       11 UNK         0.1400 
     19 N          -2.0928  -20.4440  -45.5146 N.am      11 UNK        -0.5000 
     20 C          -1.7566  -21.0173  -46.6787 C.2       10 UNK         0.5000 
     21 O          -2.4831  -21.7998  -47.2914 O.2       10 UNK        -0.5000 
     22 CA         -0.3620  -20.6980  -47.2438 C.3       10 UNK         0.1400 
     23 CB         -0.3981  -19.4141  -48.0755 C.3       10 UNK        -0.1800 
     24 N           0.6700  -20.5930  -46.2135 N.am      10 UNK        -0.5000 
     25 C           1.0958  -21.6198  -45.4662 C.2       9 UNK         0.5000 
     26 O           0.6635  -22.7655  -45.5788 O.2       9 UNK        -0.5000 
     27 CA          2.1511  -21.3157  -44.3877 C.3       9 UNK         0.1400 
     28 CB          3.5528  -21.2090  -45.0060 C.3       9 UNK        -0.1800 
     29 N           1.8516  -20.1017  -43.6298 N.am      9 UNK        -0.5000 
     30 C           0.7666  -19.9389  -42.8591 C.2       8 UNK         0.5000 
     31 O          -0.0810  -20.8130  -42.6698 O.2       8 UNK        -0.5000 
     32 CA          0.5603  -18.5417  -42.2463 C.3       8 UNK         0.1400 
     33 CB          1.4630  -18.3434  -41.0199 C.3       8 UNK        -0.1800 
     34 N           0.7788  -17.4574  -43.2072 N.am      8 UNK        -0.5000 
     35 C           0.1040  -17.3218  -44.3588 C.2       7 UNK         0.5000 
     36 O          -0.7769  -18.0954  -44.7255 O.2       7 UNK        -0.5000 
     37 CA          0.5155  -16.1671  -45.2833 C.3       7 UNK         0.1400 
     38 CB          0.0663  -14.8153  -44.7114 C.3       7 UNK        -0.1800 
     39 N           1.9550  -16.1383  -45.5202 N.am      7 UNK        -0.5000 
     40 C           2.6754  -17.1238  -46.0709 C.2       6 UNK         0.5000 
     41 O           2.1951  -18.1637  -46.5178 O.2       6 UNK        -0.5000 
     42 CA          4.2007  -16.9361  -46.0640 C.3       6 UNK         0.1400 
     43 CB          4.6482  -16.0019  -47.1995 C.3       6 UNK        -0.1800 
     44 N           4.6778  -16.4217  -44.7796 N.am      6 UNK        -0.5000 
     45 C           4.6382  -17.1050  -43.6263 C.2       5 UNK         0.5000 
     46 O           4.2196  -18.2586  -43.5258 O.2       5 UNK        -0.5000 
     47 CA          5.1207  -16.3594  -42.3687 C.3       5 UNK         0.1400 
     48 CB          6.6518  -16.4141  -42.2596 C.3       5 UNK        -0.1800 
     49 N           4.6809  -14.9635  -42.3410 N.am      5 UNK        -0.5000 
     50 C           3.4086  -14.5791  -42.1686 C.2       4 UNK         0.5000 
     51 O           2.4759  -15.3622  -41.9896 O.2       4 UNK        -0.5000 
     52 CA          3.1258  -13.0665  -42.2588 C.3       4 UNK         0.1400 
     53 CB          3.4098  -12.3801  -40.9145 C.3       4 UNK        -0.1800 
     54 N           3.8724  -12.3854  -43.3232 N.am      4 UNK        -0.5000 
     55 C           3.7793  -12.6969  -44.6219 C.2       3 UNK         0.5000 
     56 O           3.1251  -13.6503  -45.0491 O.2       3 UNK        -0.5000 
     57 CA          4.5719  -11.8395  -45.6142 C.3       3 UNK         0.1400 
     58 CB          6.0033  -12.3957  -45.7578 C.3       3 UNK        -0.1800 
     59 N           3.8454  -11.8967  -46.8781 N.am      3 UNK        -0.5000 
     60 C           4.1390  -11.2922  -48.0323 C.2       2 UNK         0.5000 
     61 O           5.1109  -10.5556  -48.2040 O.2       2 UNK        -0.5000 
     62 CA          3.1582  -11.5488  -49.1932 C.3       2 UNK         0.1400 
     63 CB          3.4651  -12.8940  -49.8709 C.3       2 UNK        -0.1800 
     64 N           1.7523  -11.5304  -48.7748 N.am      2 UNK        -0.5000 
     65 C           1.1051  -10.4330  -48.3543 C.2       1 UNK         0.5000 
     66 O           1.6365   -9.3213  -48.2948 O.2       1 UNK        -0.5000 
     67 C          -3.2787  -22.2218  -44.2596 C.2       11 UNK         0.5000 
     68 O          -4.2734  -22.9249  -44.4387 O.2       11 UNK        -0.5000 
     69 N          -2.1437  -22.6718  -43.7020 N.am      12 UNK        -0.5000 
     70 CA         -1.9322  -24.0508  -43.2494 C.3       12 UNK         0.1400 
     71 CB         -0.5974  -24.1466  -42.4954 C.3       12 UNK        -0.1800 
     72 C          -1.9909  -25.0802  -44.3955 C.2       12 UNK         0.5000 
     73 O          -2.5496  -26.1625  -44.2150 O.2       12 UNK        -0.5000 
     74 N          -1.4505  -24.7074  -45.5627 N.am      13 UNK        -0.5000 
     75 CA         -1.4990  -25.4826  -46.8033 C.3       13 UNK         0.1400 
     76 CB         -0.3796  -24.9925  -47.7360 C.3       13 UNK        -0.1800 
     77 C          -2.8587  -25.4128  -47.5277 C.2       13 UNK         0.5000 
     78 O          -3.0317  -26.1144  -48.5243 O.2       13 UNK        -0.5000 
     79 N          -3.7779  -24.5562  -47.0573 N.am      14 UNK        -0.5000 
     80 CA         -5.1057  -24.2775  -47.6140 C.3       14 UNK         0.1400 
     81 CB         -6.0347  -25.4950  -47.4264 C.3       14 UNK        -0.1800 
     82 C          -5.0443  -23.7878  -49.0759 C.2       14 UNK         0.5000 
     83 O          -5.7774  -24.2930  -49.9273 O.2       14 UNK        -0.5000 
     84 N          -4.1313  -22.8416  -49.3452 N.am      15 UNK        -0.5000 
     85 CA         -3.8130  -22.2734  -50.6621 C.3       15 UNK         0.1400 
     86 CB         -4.9790  -21.4111  -51.1850 C.3       15 UNK        -0.1800 
     87 C          -3.3542  -23.3463  -51.6736 C.2       15 UNK         0.5000 
     88 O          -3.7720  -23.3271  -52.8352 O.2       15 UNK        -0.5000 
     89 N          -2.5081  -24.2624  -51.1788 N.am      16 UNK        -0.5000 
     90 CA         -1.9838  -25.4601  -51.8391 C.3       16 UNK         0.1400 
     91 CB         -1.1201  -25.0954  -53.0635 C.3       16 UNK        -0.1800 
     92 C          -3.1013  -26.4731  -52.1526 C.2       16 UNK         0.5000 
     93 O          -3.2897  -26.8546  -53.3070 O.2       16 UNK        -0.5000 
     94 N          -3.8280  -26.8787  -51.1020 N.am      17 UNK        -0.5000 
     95 CA         -4.9286  -27.8479  -51.1027 C.3       17 UNK         0.1400 
     96 CB         -4.3975  -29.2676  -51.3907 C.3       17 UNK        -0.1800 
     97 C          -6.0901  -27.4340  -52.0299 C.2       17 UNK         0.5000 
     98 O          -6.5579  -28.2354  -52.8412 O.2       17 UNK        -0.5000 
     99 N          -6.5195  -26.1724  -51.8891 N.am      18 UNK        -0.5000 
    100 CA        -7.5962  -25.5068  -52.6270 C.3       18 UNK         0.1400 
    101 CB        -8.9568  -26.1831  -52.3568 C.3       18 UNK        -0.1800 
    102 C         -7.3081  -25.3122  -54.1313 C.2       18 UNK         0.5000 
    103 O         -8.2449  -25.1307  -54.9110 O.2       18 UNK        -0.5000 
    104 N         -6.0234  -25.3029  -54.5176 N.am      19 UNK        -0.5000 
    105 CA        -5.5712  -24.9841  -55.8764 C.3       19 UNK         0.1400 
    106 CB        -4.1438  -25.5126  -56.0749 C.3       19 UNK        -0.1800 
    107 C         -5.6278  -23.4759  -56.1928 C.2       19 UNK         0.5000 
    108 O         -5.5108  -23.1045  -57.3612 O.2       19 UNK        -0.5000 
    109 N         -5.7964  -22.6458  -55.1520 N.am      20 UNK        -0.5000 
    110 CA        -5.8306  -21.1819  -55.1718 C.3       20 UNK         0.1400 
    111 CB        -6.9945  -20.6498  -56.0345 C.3       20 UNK        -0.1800 
    112 C         -4.4611  -20.5805  -55.5413 C.2       20 UNK         0.5000 
    113 O         -4.3866  -19.6078  -56.2936 O.2       20 UNK        -0.5000 
    114 N         -3.3938  -21.1627  -54.9746 N.am      21 UNK        -0.5000 
    115 CA        -2.0104  -20.6920  -55.1123 C.3       21 UNK         0.1400 
    116 CB        -1.0638  -21.8291  -54.7000 C.3       21 UNK        -0.1800 
    117 C         -1.7111  -19.4142  -54.2963 C.2       21 UNK         0.5000 
    118 O         -0.6353  -18.8337  -54.4432 O.2       21 UNK        -0.5000 
    119 N         -2.6584  -19.0103  -53.4471 N.am      22 UNK        -0.5000 
    120 CA        -2.6313  -17.8348  -52.5800 C.3       22 UNK         0.1400 
    121 C         -4.0750  -17.2735  -52.4852 C.2       22 UNK         0.5000 
    122 N         -4.2449  -15.9592  -52.4954 N.am      22 UNK        -0.7600 
    123 O         -5.0436  -18.0250  -52.3882 O.2       22 UNK        -0.5000 
    124 C124       -2.0359  -18.2165  -51.2023 C.3       23 UNK        -0.0398 
    125 S125       -1.8691  -16.8403  -50.0124 S.3       23 UNK        -0.2404 
    126 C126       -3.3011  -17.1860  -48.9382 C.3       23 UNK        -0.0205 
    127 H127       -1.1162   -8.9504  -44.3489 H         1 UNK         0.0600 
    128 H128        0.4758   -9.3628  -43.7032 H         1 UNK         0.0600 
    129 H129       -0.8814  -10.4724  -43.4838 H         1 UNK         0.0600 
    130 H130       -1.2199   -9.2272  -46.5529 H         1 UNK         0.3000 
    131 H131       -0.8994   -9.8656  -48.6223 H         1 UNK         0.0600 
    132 H132       -0.6535  -12.6893  -47.4542 H         1 UNK         0.0800 
    133 H133       -0.7802  -12.3458  -49.1647 H         1 UNK         0.0800 
    134 H134       -2.4917  -12.3622  -45.7661 H         1 UNK         0.0800 
    135 H135       -4.1890  -12.3001  -46.1652 H         1 UNK         0.0800 
    136 H136       -3.1312  -14.4889  -48.6651 H         1 UNK         0.1150 
    137 H137       -3.5010  -18.0820  -46.3886 H         1 UNK         0.1150 
    138 H138       -3.5565  -14.2901  -44.3993 H         1 UNK         0.1150 
    139 H139       -2.7898  -17.1050  -43.4174 H         1 UNK         0.0800 
    140 H140       -4.2837  -16.2442  -43.2170 H         1 UNK         0.0800 
    141 H141       -3.9135  -20.2942  -42.6748 H         1 UNK         0.0800 
    142 H142       -2.5783  -19.3440  -43.2180 H         1 UNK         0.0800 
    143 H143       -4.1441  -20.6753  -45.4254 H         1 UNK         0.0600 
    144 H144       -1.4704  -19.7376  -45.1257 H         1 UNK         0.3000 
    145 H145       -0.0821  -21.5168  -47.9093 H         1 UNK         0.0600 
    146 H146       -0.6703  -18.5462  -47.4736 H         1 UNK         0.0600 
    147 H147        0.5669  -19.2123  -48.5402 H         1 UNK         0.0600 
    148 H148       -1.1302  -19.5083  -48.8750 H         1 UNK         0.0600 
    149 H149        1.0990  -19.6791  -46.0925 H         1 UNK         0.3000 
    150 H150        2.1550  -22.1517  -43.6853 H         1 UNK         0.0600 
    151 H151        3.8036  -22.1117  -45.5643 H         1 UNK         0.0600 
    152 H152        4.3135  -21.0803  -44.2358 H         1 UNK         0.0600 
    153 H153        3.6283  -20.3654  -45.6925 H         1 UNK         0.0600 
    154 H154        2.5128  -19.3361  -43.7165 H         1 UNK         0.3000 
    155 H155       -0.4779  -18.4790  -41.9147 H         1 UNK         0.0600 
    156 H156        1.3154  -19.1421  -40.2919 H         1 UNK         0.0600 
    157 H157        1.2423  -17.4016  -40.5175 H         1 UNK         0.0600 
    158 H158        2.5185  -18.3372  -41.2929 H         1 UNK         0.0600 
    159 H159        1.4773  -16.7633  -42.9580 H         1 UNK         0.3000 
    160 H160        0.0151  -16.3163  -46.2425 H         1 UNK         0.0600 
    161 H161        0.1483  -14.0306  -45.4623 H         1 UNK         0.0600 
    162 H162        0.6664  -14.5181  -43.8523 H         1 UNK         0.0600 
    163 H163       -0.9700  -14.8470  -44.3816 H         1 UNK         0.0600 
    164 H164        2.4394  -15.2937  -45.2203 H         1 UNK         0.3000 
    165 H165        4.6586  -17.9139  -46.2280 H         1 UNK         0.0600 
    166 H166        4.2257  -15.0026  -47.0954 H         1 UNK         0.0600 
    167 H167        5.7337  -15.9060  -47.2272 H         1 UNK         0.0600 
    168 H168        4.3316  -16.3898  -48.1685 H         1 UNK         0.0600 
    169 H169        4.9798  -15.4598  -44.7603 H         1 UNK         0.3000 
    170 H170        4.6998  -16.8680  -41.4986 H         1 UNK         0.0600 
    171 H171        7.1356  -15.8983  -43.0900 H         1 UNK         0.0600 
    172 H172        6.9972  -15.9560  -41.3326 H         1 UNK         0.0600 
    173 H173        7.0060  -17.4459  -42.2626 H         1 UNK         0.0600 
    174 H174        5.3846  -14.2549  -42.4866 H         1 UNK         0.3000 
    175 H175        2.0631  -12.9473  -42.4802 H         1 UNK         0.0600 
    176 H176        4.4680  -12.4239  -40.6543 H         1 UNK         0.0600 
    177 H177        3.1117  -11.3317  -40.9362 H         1 UNK         0.0600 
    178 H178        2.8529  -12.8578  -40.1071 H         1 UNK         0.0600 
    179 H179        4.4427  -11.6004  -43.0439 H         1 UNK         0.3000 
    180 H180        4.5973  -10.8062  -45.2640 H         1 UNK         0.0600 
    181 H181        6.0037  -13.4031  -46.1749 H         1 UNK         0.0600 
    182 H182        6.5053  -12.4407  -44.7906 H         1 UNK         0.0600 
    183 H183        6.6172  -11.7678  -46.4026 H         1 UNK         0.0600 
    184 H184        3.0056  -12.4607  -46.8186 H         1 UNK         0.3000 
    185 H185        3.3034  -10.7571  -49.9314 H         1 UNK         0.0600 
    186 H186        2.8397  -13.0441  -50.7510 H         1 UNK         0.0600 
    187 H187        4.5040  -12.9366  -50.2008 H         1 UNK         0.0600 
    188 H188        3.3013  -13.7344  -49.1951 H         1 UNK         0.0600 
    189 H189        1.2672  -12.4146  -48.7925 H         1 UNK         0.3000 
    190 H190       -1.3720  -22.0259  -43.5601 H         1 UNK         0.3000 
    191 H191       -2.7332  -24.2944  -42.5484 H         1 UNK         0.0600 
    192 H192        0.2469  -23.8874  -43.1343 H         1 UNK         0.0600 
    193 H193       -0.5822  -23.4772  -41.6351 H         1 UNK         0.0600 
    194 H194       -0.4300  -25.1582  -42.1238 H         1 UNK         0.0600 
    195 H195       -0.9310  -23.8342  -45.5977 H         1 UNK         0.3000 
    196 H196       -1.3106  -26.5316  -46.5665 H         1 UNK         0.0600 
    197 H197        0.5962  -25.0738  -47.2568 H         1 UNK         0.0600 
    198 H198       -0.5253  -23.9507  -48.0229 H         1 UNK         0.0600 
    199 H199       -0.3395  -25.5846  -48.6511 H         1 UNK         0.0600 
    200 H200       -3.5301  -24.0020  -46.2474 H         1 UNK         0.3000 
    201 H201       -5.5174  -23.4522  -47.0315 H         1 UNK         0.0600 
    202 H202       -7.0527  -25.2623  -47.7408 H         1 UNK         0.0600 
    203 H203       -6.0797  -25.7963  -46.3798 H         1 UNK         0.0600 
    204 H204       -5.7014  -26.3546  -48.0082 H         1 UNK         0.0600 
    205 H205       -3.5620  -22.5006  -48.5706 H         1 UNK         0.3000 
    206 H206       -2.9581  -21.6130  -50.5110 H         1 UNK         0.0600 
    207 H207       -5.2713  -20.6581  -50.4531 H         1 UNK         0.0600 
    208 H208       -5.8580  -22.0125  -51.4185 H         1 UNK         0.0600 
    209 H209       -4.6929  -20.8808  -52.0925 H         1 UNK         0.0600 
    210 H210       -2.2846  -24.1883  -50.1972 H         1 UNK         0.3000 
    211 H211       -1.3277  -25.9458  -51.1152 H         1 UNK         0.0600 
    212 H212       -0.3240  -24.4023  -52.7924 H         1 UNK         0.0600 
    213 H213       -0.6486  -25.9841  -53.4840 H         1 UNK         0.0600 
    214 H214       -1.7096  -24.6372  -53.8559 H         1 UNK         0.0600 
    215 H215       -3.5847  -26.5077  -50.1840 H         1 UNK         0.3000 
    216 H216       -5.3335  -27.8489  -50.0898 H         1 UNK         0.0600 
    217 H217       -5.1895  -30.0098  -51.2845 H         1 UNK         0.0600 
    218 H218       -4.0007  -29.3550  -52.4026 H         1 UNK         0.0600 
    219 H219       -3.6040  -29.5391  -50.6946 H         1 UNK         0.0600 
    220 H220       -6.0738  -25.5869  -51.1834 H         1 UNK         0.3000 
    221 H221       -7.6502  -24.5002  -52.2098 H         1 UNK         0.0600 
    222 H222       -9.0176  -27.1712  -52.8133 H         1 UNK         0.0600 
    223 H223       -9.1359  -26.2946  -51.2874 H         1 UNK         0.0600 
    224 H224       -9.7770  -25.5879  -52.7599 H         1 UNK         0.0600 
    225 H225       -5.3021  -25.4809  -53.8306 H         1 UNK         0.3000 
    226 H226       -6.2224  -25.4937  -56.5896 H         1 UNK         0.0600 
    227 H227       -4.0939  -26.5883  -55.9059 H         1 UNK         0.0600 
    228 H228       -3.7934  -25.3281  -57.0911 H         1 UNK         0.0600 
    229 H229       -3.4430  -25.0296  -55.3941 H         1 UNK         0.0600 
    230 H230       -5.8075  -23.0700  -54.2347 H         1 UNK         0.3000 
    231 H231       -6.0283  -20.8717  -54.1452 H         1 UNK         0.0600 
    232 H232       -7.1069  -19.5721  -55.9110 H         1 UNK         0.0600 
    233 H233       -7.9403  -21.1091  -55.7470 H         1 UNK         0.0600 
    234 H234       -6.8380  -20.8391  -57.0966 H         1 UNK         0.0600 
    235 H235       -3.5400  -21.9669  -54.3720 H         1 UNK         0.3000 
    236 H236       -1.8266  -20.4585  -56.1630 H         1 UNK         0.0600 
    237 H237       -1.2334  -22.7202  -55.3043 H         1 UNK         0.0600 
    238 H238       -0.0205  -21.5411  -54.8349 H         1 UNK         0.0600 
    239 H239       -1.1964  -22.0996  -53.6521 H         1 UNK         0.0600 
    240 H240       -3.5354  -19.5108  -53.4344 H         1 UNK         0.3000 
    241 H241       -1.9996  -17.0713  -53.0386 H         1 UNK         0.0600 
    242 H242       -5.1792  -15.5869  -52.4305 H         1 UNK         0.3800 
    243 H243       -3.4627  -15.3257  -52.5531 H         1 UNK         0.3800 
    244 H244       -2.6196  -19.0232  -50.7567 H         1 UNK         0.0800 
    245 H245       -1.0359  -18.6274  -51.3479 H         1 UNK         0.0800 
    246 H246       -3.3169  -18.2493  -48.6946 H         1 UNK         0.0800 
    247 H247       -4.2205  -16.9823  -49.4881 H         1 UNK         0.0800 
@<TRIPOS>BOND
     1    1    2 1    
     2    1  127 1    
     3    1  128 1    
     4    1  129 1    
     5    2    3 2    
     6    2    4 am   BACKBONE|DICT|INTERRES
     7    4    5 1    
     8    4  130 1    
     9    5    6 1    
    10    5   65 1    
    11    5  131 1    
    12    6    7 1    
    13    6  132 1    
    14    6  133 1    
    15    7    8 1    
    16    8    9 1    
    17    8  134 1    
    18    8  135 1    
    19    9   10 ar   
    20    9   14 ar   
    21   10   11 ar   
    22   10  136 1    
    23   11   12 ar   
    24   11  126 1    
    25   12   13 ar   
    26   12  137 1    
    27   13   14 ar   
    28   13   15 1    
    29   14  138 1    
    30   15   16 1    
    31   15  139 1    
    32   15  140 1    
    33   16   17 1    
    34   17   18 1    
    35   17  141 1    
    36   17  142 1    
    37   18   19 1    
    38   18   67 1    
    39   18  143 1    
    40   19   20 am   BACKBONE|DICT|INTERRES
    41   19  144 1    
    42   20   21 2    
    43   20   22 1    
    44   22   23 1    
    45   22   24 1    
    46   22  145 1    
    47   23  146 1    
    48   23  147 1    
    49   23  148 1    
    50   24   25 am   BACKBONE|DICT|INTERRES
    51   24  149 1    
    52   25   26 2    
    53   25   27 1    
    54   27   28 1    
    55   27   29 1    
    56   27  150 1    
    57   28  151 1    
    58   28  152 1    
    59   28  153 1    
    60   29   30 am   BACKBONE|DICT|INTERRES
    61   29  154 1    
    62   30   31 2    
    63   30   32 1    
    64   32   33 1    
    65   32   34 1    
    66   32  155 1    
    67   33  156 1    
    68   33  157 1    
    69   33  158 1    
    70   34   35 am   BACKBONE|DICT|INTERRES
    71   34  159 1    
    72   35   36 2    
    73   35   37 1    
    74   37   38 1    
    75   37   39 1    
    76   37  160 1    
    77   38  161 1    
    78   38  162 1    
    79   38  163 1    
    80   39   40 am   BACKBONE|DICT|INTERRES
    81   39  164 1    
    82   40   41 2    
    83   40   42 1    
    84   42   43 1    
    85   42   44 1    
    86   42  165 1    
    87   43  166 1    
    88   43  167 1    
    89   43  168 1    
    90   44   45 am   BACKBONE|DICT|INTERRES
    91   44  169 1    
    92   45   46 2    
    93   45   47 1    
    94   47   48 1    
    95   47   49 1    
    96   47  170 1    
    97   48  171 1    
    98   48  172 1    
    99   48  173 1    
   100   49   50 am   BACKBONE|DICT|INTERRES
   101   49  174 1    
   102   50   51 2    
   103   50   52 1    
   104   52   53 1    
   105   52   54 1    
   106   52  175 1    
   107   53  176 1    
   108   53  177 1    
   109   53  178 1    
   110   54   55 am   BACKBONE|DICT|INTERRES
   111   54  179 1    
   112   55   56 2    
   113   55   57 1    
   114   57   58 1    
   115   57   59 1    
   116   57  180 1    
   117   58  181 1    
   118   58  182 1    
   119   58  183 1    
   120   59   60 am   BACKBONE|DICT|INTERRES
   121   59  184 1    
   122   60   61 2    
   123   60   62 1    
   124   62   63 1    
   125   62   64 1    
   126   62  185 1    
   127   63  186 1    
   128   63  187 1    
   129   63  188 1    
   130   64   65 am   BACKBONE|DICT|INTERRES
   131   64  189 1    
   132   65   66 2    
   133   67   68 2    
   134   67   69 am   BACKBONE|DICT|INTERRES
   135   69   70 1    
   136   69  190 1    
   137   70   71 1    
   138   70   72 1    
   139   70  191 1    
   140   71  192 1    
   141   71  193 1    
   142   71  194 1    
   143   72   73 2    
   144   72   74 am   BACKBONE|DICT|INTERRES
   145   74   75 1    
   146   74  195 1    
   147   75   76 1    
   148   75   77 1    
   149   75  196 1    
   150   76  197 1    
   151   76  198 1    
   152   76  199 1    
   153   77   78 2    
   154   77   79 am   BACKBONE|DICT|INTERRES
   155   79   80 1    
   156   79  200 1    
   157   80   81 1    
   158   80   82 1    
   159   80  201 1    
   160   81  202 1    
   161   81  203 1    
   162   81  204 1    
   163   82   83 2    
   164   82   84 am   BACKBONE|DICT|INTERRES
   165   84   85 1    
   166   84  205 1    
   167   85   86 1    
   168   85   87 1    
   169   85  206 1    
   170   86  207 1    
   171   86  208 1    
   172   86  209 1    
   173   87   88 2    
   174   87   89 am   BACKBONE|DICT|INTERRES
   175   89   90 1    
   176   89  210 1    
   177   90   91 1    
   178   90   92 1    
   179   90  211 1    
   180   91  212 1    
   181   91  213 1    
   182   91  214 1    
   183   92   93 2    
   184   92   94 am   BACKBONE|DICT|INTERRES
   185   94   95 1    
   186   94  215 1    
   187   95   96 1    
   188   95   97 1    
   189   95  216 1    
   190   96  217 1    
   191   96  218 1    
   192   96  219 1    
   193   97   98 2    
   194   97   99 am   BACKBONE|DICT|INTERRES
   195   99  100 1    
   196   99  220 1    
   197  100  101 1    
   198  100  102 1    
   199  100  221 1    
   200  101  222 1    
   201  101  223 1    
   202  101  224 1    
   203  102  103 2    
   204  102  104 am   BACKBONE|DICT|INTERRES
   205  104  105 1    
   206  104  225 1    
   207  105  106 1    
   208  105  107 1    
   209  105  226 1    
   210  106  227 1    
   211  106  228 1    
   212  106  229 1    
   213  107  108 2    
   214  107  109 am   BACKBONE|DICT|INTERRES
   215  109  110 1    
   216  109  230 1    
   217  110  111 1    
   218  110  112 1    
   219  110  231 1    
   220  111  232 1    
   221  111  233 1    
   222  111  234 1    
   223  112  113 2    
   224  112  114 am   BACKBONE|DICT|INTERRES
   225  114  115 1    
   226  114  235 1    
   227  115  116 1    
   228  115  117 1    
   229  115  236 1    
   230  116  237 1    
   231  116  238 1    
   232  116  239 1    
   233  117  118 2    
   234  117  119 am   BACKBONE|DICT|INTERRES
   235  119  120 1    
   236  119  240 1    
   237  120  121 1    
   238  120  124 1    
   239  120  241 1    
   240  121  122 am   BACKBONE|DICT|INTERRES
   241  121  123 2    
   242  122  242 1    
   243  122  243 1    
   244  124  125 1    
   245  124  244 1    
   246  124  245 1    
   247  125  126 1    
   248  126  246 1    
   249  126  247 1    
@<TRIPOS>SUBSTRUCTURE
     1 UNK         1 GROUP             0       ****    0 ROOT    
