@<TRIPOS>MOLECULE
3R540
247   249    1
SMALL
USER_CHARGES


@<TRIPOS>ATOM
      1 CA         -0.2224  -12.2965  -48.5371 C.3       0 UNK        -0.1800 
      2 C           1.0286  -12.1331  -47.6852 C.2       0 UNK         0.5000 
      3 O           0.9410  -11.6376  -46.5628 O.2       0 UNK        -0.5000 
      4 N           2.1864  -12.5459  -48.2192 N.am      1 UNK        -0.5000 
      5 CA          3.5082  -12.5173  -47.5733 C.3       1 UNK         0.1400 
      6 C6          3.6300  -13.4937  -46.3624 C.3       23 UNK        -0.0398 
      7 S7          2.9889  -15.1687  -46.6880 S.3       23 UNK        -0.2404 
      8 C8          4.3311  -15.9005  -47.6658 C.3       23 UNK        -0.0205 
      9 C9          3.8821  -17.1917  -48.3321 C.ar      23 UNK        -0.0193 
     10 C10         3.1220  -17.1458  -49.5054 C.ar      23 UNK        -0.1150 
     11 C11         2.7387  -18.3244  -50.1522 C.ar      23 UNK        -0.0193 
     12 C12         3.1302  -19.5557  -49.6192 C.ar      23 UNK        -0.1150 
     13 C13         3.8787  -19.6166  -48.4382 C.ar      23 UNK        -0.0193 
     14 C14         4.2463  -18.4302  -47.7962 C.ar      23 UNK        -0.1150 
     15 C15         4.3203  -20.9609  -47.8730 C.3       23 UNK        -0.0205 
     16 S16         3.1209  -21.6442  -46.6844 S.3       23 UNK        -0.2404 
     17 C17         1.7066  -21.9554  -47.7872 C.3       23 UNK        -0.0398 
     18 CA          0.6495  -22.9114  -47.1887 C.3       11 UNK         0.1400 
     19 N          -0.0887  -22.3145  -46.0700 N.am      11 UNK        -0.5000 
     20 C          -1.0335  -22.9412  -45.3522 C.2       10 UNK         0.5000 
     21 O          -1.3586  -24.1167  -45.5206 O.2       10 UNK        -0.5000 
     22 CA         -1.7807  -22.1046  -44.2999 C.3       10 UNK         0.1400 
     23 CB         -0.9211  -21.9081  -43.0423 C.3       10 UNK        -0.1800 
     24 N          -2.2204  -20.8076  -44.8146 N.am      10 UNK        -0.5000 
     25 C          -3.0961  -20.6466  -45.8177 C.2       9 UNK         0.5000 
     26 O          -3.6472  -21.5765  -46.4060 O.2       9 UNK        -0.5000 
     27 CA         -3.3768  -19.2057  -46.2745 C.3       9 UNK         0.1400 
     28 CB         -4.3342  -18.4960  -45.3068 C.3       9 UNK        -0.1800 
     29 N          -2.1637  -18.4117  -46.4433 N.am      9 UNK        -0.5000 
     30 C          -1.1742  -18.7076  -47.2980 C.2       8 UNK         0.5000 
     31 O          -1.1849  -19.6765  -48.0564 O.2       8 UNK        -0.5000 
     32 CA          0.0603  -17.7936  -47.2473 C.3       8 UNK         0.1400 
     33 CB         -0.2290  -16.4621  -47.9633 C.3       8 UNK        -0.1800 
     34 N           0.5077  -17.5461  -45.8735 N.am      8 UNK        -0.5000 
     35 C           0.8676  -18.5037  -45.0044 C.2       7 UNK         0.5000 
     36 O           0.8936  -19.7032  -45.2728 O.2       7 UNK        -0.5000 
     37 CA          1.1692  -18.0551  -43.5661 C.3       7 UNK         0.1400 
     38 CB          2.5590  -17.4100  -43.4594 C.3       7 UNK        -0.1800 
     39 N           0.1432  -17.1402  -43.0652 N.am      7 UNK        -0.5000 
     40 C          -1.1137  -17.5158  -42.7768 C.2       6 UNK         0.5000 
     41 O          -1.5127  -18.6767  -42.8611 O.2       6 UNK        -0.5000 
     42 CA         -2.1088  -16.4141  -42.3602 C.3       6 UNK         0.1400 
     43 CB         -2.0809  -16.2113  -40.8382 C.3       6 UNK        -0.1800 
     44 N          -1.8576  -15.1340  -43.0195 N.am      6 UNK        -0.5000 
     45 C          -1.8948  -14.9339  -44.3436 C.2       5 UNK         0.5000 
     46 O          -2.2623  -15.7889  -45.1493 O.2       5 UNK        -0.5000 
     47 CA         -1.3887  -13.5740  -44.8621 C.3       5 UNK         0.1400 
     48 CB         -2.5626  -12.6721  -45.2683 C.3       5 UNK        -0.1800 
     49 N          -0.5211  -12.8419  -43.9326 N.am      5 UNK        -0.5000 
     50 C           0.6605  -13.2682  -43.4676 C.2       4 UNK         0.5000 
     51 O           1.1018  -14.3980  -43.6813 O.2       4 UNK        -0.5000 
     52 CA          1.4742  -12.2605  -42.6303 C.3       4 UNK         0.1400 
     53 CB          2.8104  -12.8462  -42.1383 C.3       4 UNK        -0.1800 
     54 N           1.7527  -11.0425  -43.3894 N.am      4 UNK        -0.5000 
     55 C           0.9159  -10.0148  -43.5788 C.2       3 UNK         0.5000 
     56 O          -0.2156   -9.9769  -43.0916 O.2       3 UNK        -0.5000 
     57 CA          1.3848   -8.8597  -44.4928 C.3       3 UNK         0.1400 
     58 CB          1.3514   -7.5019  -43.7630 C.3       3 UNK        -0.1800 
     59 N           2.6785   -9.0859  -45.1554 N.am      3 UNK        -0.5000 
     60 C           3.9091   -9.1225  -44.6232 C.2       2 UNK         0.5000 
     61 O           4.1500   -8.9038  -43.4357 O.2       2 UNK        -0.5000 
     62 CA          5.0390   -9.5703  -45.5769 C.3       2 UNK         0.1400 
     63 CB          6.4078   -9.6643  -44.8785 C.3       2 UNK        -0.1800 
     64 N           4.7173  -10.8761  -46.1611 N.am      2 UNK        -0.5000 
     65 C           3.9386  -11.0662  -47.2356 C.2       1 UNK         0.5000 
     66 O           3.5337  -10.1307  -47.9314 O.2       1 UNK        -0.5000 
     67 C          -0.3005  -23.3801  -48.3056 C.2       11 UNK         0.5000 
     68 O          -0.2126  -24.5307  -48.7358 O.2       11 UNK        -0.5000 
     69 N          -1.2004  -22.4854  -48.7346 N.am      12 UNK        -0.5000 
     70 CA         -2.1848  -22.7394  -49.7800 C.3       12 UNK         0.1400 
     71 CB         -2.9475  -21.4496  -50.0853 C.3       12 UNK        -0.1800 
     72 C          -3.1582  -23.8702  -49.4254 C.2       12 UNK         0.5000 
     73 O          -3.3699  -24.7543  -50.2529 O.2       12 UNK        -0.5000 
     74 N          -3.6955  -23.8465  -48.1976 N.am      13 UNK        -0.5000 
     75 CA         -4.6006  -24.8688  -47.6745 C.3       13 UNK         0.1400 
     76 CB         -5.1760  -24.4074  -46.3276 C.3       13 UNK        -0.1800 
     77 C          -3.9363  -26.2513  -47.5402 C.2       13 UNK         0.5000 
     78 O          -4.5748  -27.2559  -47.8547 O.2       13 UNK        -0.5000 
     79 N          -2.6678  -26.2813  -47.1051 N.am      14 UNK        -0.5000 
     80 CA         -1.8637  -27.5001  -46.9962 C.3       14 UNK         0.1400 
     81 CB         -0.5863  -27.2084  -46.1943 C.3       14 UNK        -0.1800 
     82 C          -1.5181  -28.1069  -48.3682 C.2       14 UNK         0.5000 
     83 O          -1.5943  -29.3255  -48.5306 O.2       14 UNK        -0.5000 
     84 N          -1.1578  -27.2484  -49.3313 N.am      15 UNK        -0.5000 
     85 CA         -0.8362  -27.6343  -50.7063 C.3       15 UNK         0.1400 
     86 CB         -0.0477  -26.4919  -51.3655 C.3       15 UNK        -0.1800 
     87 C          -2.0756  -27.9764  -51.5563 C.2       15 UNK         0.5000 
     88 O          -1.9355  -28.6717  -52.5630 O.2       15 UNK        -0.5000 
     89 N          -3.2446  -27.4518  -51.1580 N.am      16 UNK        -0.5000 
     90 CA         -4.5028  -27.3908  -51.9103 C.3       16 UNK         0.1400 
     91 CB         -5.0900  -28.7979  -52.1443 C.3       16 UNK        -0.1800 
     92 C          -4.3323  -26.5652  -53.2038 C.2       16 UNK         0.5000 
     93 O          -4.7658  -26.9817  -54.2798 O.2       16 UNK        -0.5000 
     94 N          -3.6601  -25.4175  -53.0668 N.am      17 UNK        -0.5000 
     95 CA         -3.2233  -24.5492  -54.1526 C.3       17 UNK         0.1400 
     96 CB         -1.8340  -25.0108  -54.6352 C.3       17 UNK        -0.1800 
     97 C          -3.2264  -23.0937  -53.6486 C.2       17 UNK         0.5000 
     98 O          -2.1609  -22.5702  -53.3263 O.2       17 UNK        -0.5000 
     99 N          -4.3812  -22.4257  -53.5385 N.am      18 UNK        -0.5000 
    100 CA        -5.7430  -22.8886  -53.7985 C.3       18 UNK         0.1400 
    101 CB        -6.3753  -21.9604  -54.8546 C.3       18 UNK        -0.1800 
    102 C         -6.5196  -22.9407  -52.4687 C.2       18 UNK         0.5000 
    103 O         -5.9819  -23.4223  -51.4699 O.2       18 UNK        -0.5000 
    104 N         -7.7728  -22.4691  -52.4669 N.am      19 UNK        -0.5000 
    105 CA        -8.6900  -22.4661  -51.3261 C.3       19 UNK         0.1400 
    106 CB       -10.1248  -22.2823  -51.8526 C.3       19 UNK        -0.1800 
    107 C         -8.3067  -21.4071  -50.2710 C.2       19 UNK         0.5000 
    108 O         -8.9951  -20.3951  -50.1292 O.2       19 UNK        -0.5000 
    109 N         -7.1967  -21.6644  -49.5663 N.am      20 UNK        -0.5000 
    110 CA        -6.6049  -20.8468  -48.5013 C.3       20 UNK         0.1400 
    111 CB        -7.5301  -20.7879  -47.2687 C.3       20 UNK        -0.1800 
    112 C         -6.1398  -19.4544  -48.9817 C.2       20 UNK         0.5000 
    113 O         -6.1941  -18.4839  -48.2256 O.2       20 UNK        -0.5000 
    114 N         -5.6547  -19.3941  -50.2248 N.am      21 UNK        -0.5000 
    115 CA        -4.9882  -18.2530  -50.8383 C.3       21 UNK         0.1400 
    116 CB        -6.0261  -17.2656  -51.3969 C.3       21 UNK        -0.1800 
    117 C         -4.0907  -18.8056  -51.9513 C.2       21 UNK         0.5000 
    118 O         -4.4817  -19.7762  -52.6042 O.2       21 UNK        -0.5000 
    119 N         -2.9104  -18.2054  -52.1409 N.am      22 UNK        -0.5000 
    120 CA        -1.8908  -18.6613  -53.1069 C.3       22 UNK         0.1400 
    121 C         -2.2638  -18.4609  -54.6083 C.2       22 UNK         0.5000 
    122 N         -3.3174  -17.7271  -54.9458 N.am      22 UNK        -0.7600 
    123 O         -1.5813  -18.9816  -55.4861 O.2       22 UNK        -0.5000 
    124 C124       -0.4972  -18.0434  -52.8129 C.3       23 UNK        -0.0398 
    125 S125        0.1457  -18.4275  -51.1473 S.3       23 UNK        -0.2404 
    126 C126        1.9350  -18.2653  -51.4439 C.3       23 UNK        -0.0205 
    127 H127       -0.9036  -13.0092  -48.0731 H         1 UNK         0.0600 
    128 H128        0.0137  -12.6559  -49.5389 H         1 UNK         0.0600 
    129 H129       -0.7389  -11.3414  -48.6313 H         1 UNK         0.0600 
    130 H130        2.1821  -12.9119  -49.1599 H         1 UNK         0.3000 
    131 H131        4.2121  -12.8514  -48.3359 H         1 UNK         0.0600 
    132 H132        4.6674  -13.5907  -46.0391 H         1 UNK         0.0800 
    133 H133        3.0726  -13.1066  -45.5082 H         1 UNK         0.0800 
    134 H134        5.1929  -16.0774  -47.0205 H         1 UNK         0.0800 
    135 H135        4.6575  -15.1988  -48.4338 H         1 UNK         0.0800 
    136 H136        2.8335  -16.1889  -49.9172 H         1 UNK         0.1150 
    137 H137        2.8495  -20.4675  -50.1268 H         1 UNK         0.1150 
    138 H138        4.8296  -18.4717  -46.8871 H         1 UNK         0.1150 
    139 H139        4.4835  -21.6757  -48.6810 H         1 UNK         0.0800 
    140 H140        5.2830  -20.8504  -47.3719 H         1 UNK         0.0800 
    141 H141        2.1050  -22.3673  -48.7166 H         1 UNK         0.0800 
    142 H142        1.2503  -20.9974  -48.0429 H         1 UNK         0.0800 
    143 H143        1.1612  -23.7975  -46.8073 H         1 UNK         0.0600 
    144 H144        0.1439  -21.3497  -45.8432 H         1 UNK         0.3000 
    145 H145       -2.6740  -22.6626  -44.0116 H         1 UNK         0.0600 
    146 H146       -0.5850  -22.8665  -42.6448 H         1 UNK         0.0600 
    147 H147       -0.0345  -21.3081  -43.2483 H         1 UNK         0.0600 
    148 H148       -1.4858  -21.4097  -42.2542 H         1 UNK         0.0600 
    149 H149       -1.8275  -19.9870  -44.3647 H         1 UNK         0.3000 
    150 H150       -3.8543  -19.2627  -47.2518 H         1 UNK         0.0600 
    151 H151       -5.2606  -19.0592  -45.1915 H         1 UNK         0.0600 
    152 H152       -4.6009  -17.5050  -45.6748 H         1 UNK         0.0600 
    153 H153       -3.8941  -18.3796  -44.3167 H         1 UNK         0.0600 
    154 H154       -2.0857  -17.5700  -45.8790 H         1 UNK         0.3000 
    155 H155        0.8688  -18.3018  -47.7764 H         1 UNK         0.0600 
    156 H156       -0.9045  -15.8269  -47.3923 H         1 UNK         0.0600 
    157 H157        0.6844  -15.9007  -48.1466 H         1 UNK         0.0600 
    158 H158       -0.6923  -16.6317  -48.9353 H         1 UNK         0.0600 
    159 H159        0.5154  -16.5859  -45.5618 H         1 UNK         0.3000 
    160 H160        1.1679  -18.9449  -42.9327 H         1 UNK         0.0600 
    161 H161        2.6358  -16.5073  -44.0640 H         1 UNK         0.0600 
    162 H162        3.3332  -18.0977  -43.8019 H         1 UNK         0.0600 
    163 H163        2.7914  -17.1419  -42.4288 H         1 UNK         0.0600 
    164 H164        0.3888  -16.1554  -43.0440 H         1 UNK         0.3000 
    165 H165       -3.1097  -16.7448  -42.6438 H         1 UNK         0.0600 
    166 H166       -2.8352  -15.4907  -40.5218 H         1 UNK         0.0600 
    167 H167       -2.2877  -17.1469  -40.3166 H         1 UNK         0.0600 
    168 H168       -1.1086  -15.8532  -40.4974 H         1 UNK         0.0600 
    169 H169       -1.5417  -14.3743  -42.4356 H         1 UNK         0.3000 
    170 H170       -0.7959  -13.7847  -45.7535 H         1 UNK         0.0600 
    171 H171       -3.2134  -13.1747  -45.9851 H         1 UNK         0.0600 
    172 H172       -3.1715  -12.3937  -44.4075 H         1 UNK         0.0600 
    173 H173       -2.2073  -11.7560  -45.7411 H         1 UNK         0.0600 
    174 H174       -0.7855  -11.8868  -43.7195 H         1 UNK         0.3000 
    175 H175        0.8768  -12.0062  -41.7525 H         1 UNK         0.0600 
    176 H176        3.4580  -13.1304  -42.9686 H         1 UNK         0.0600 
    177 H177        3.3519  -12.1287  -41.5216 H         1 UNK         0.0600 
    178 H178        2.6467  -13.7370  -41.5304 H         1 UNK         0.0600 
    179 H179        2.6467  -10.9981  -43.8521 H         1 UNK         0.3000 
    180 H180        0.6535   -8.8125  -45.3009 H         1 UNK         0.0600 
    181 H181        2.0007   -7.4921  -42.8875 H         1 UNK         0.0600 
    182 H182        0.3428   -7.2712  -43.4182 H         1 UNK         0.0600 
    183 H183        1.6611   -6.6910  -44.4221 H         1 UNK         0.0600 
    184 H184        2.6071   -9.3323  -46.1368 H         1 UNK         0.3000 
    185 H185        5.1197   -8.8196  -46.3660 H         1 UNK         0.0600 
    186 H186        6.6962   -8.7024  -44.4526 H         1 UNK         0.0600 
    187 H187        6.4000  -10.3944  -44.0682 H         1 UNK         0.0600 
    188 H188        7.1890   -9.9530  -45.5819 H         1 UNK         0.0600 
    189 H189        5.0306  -11.6779  -45.6343 H         1 UNK         0.3000 
    190 H190       -1.1984  -21.5473  -48.3394 H         1 UNK         0.3000 
    191 H191       -1.6440  -23.0384  -50.6799 H         1 UNK         0.0600 
    192 H192       -3.4066  -21.0306  -49.1904 H         1 UNK         0.0600 
    193 H193       -3.7383  -21.6337  -50.8117 H         1 UNK         0.0600 
    194 H194       -2.2804  -20.6963  -50.5041 H         1 UNK         0.0600 
    195 H195       -3.4777  -23.0728  -47.5740 H         1 UNK         0.3000 
    196 H196       -5.4283  -24.9677  -48.3802 H         1 UNK         0.0600 
    197 H197       -5.8612  -25.1507  -45.9184 H         1 UNK         0.0600 
    198 H198       -5.7329  -23.4765  -46.4356 H         1 UNK         0.0600 
    199 H199       -4.3886  -24.2426  -45.5908 H         1 UNK         0.0600 
    200 H200       -2.2198  -25.4147  -46.8231 H         1 UNK         0.3000 
    201 H201       -2.4461  -28.2401  -46.4433 H         1 UNK         0.0600 
    202 H202       -0.8242  -26.8683  -45.1863 H         1 UNK         0.0600 
    203 H203        0.0224  -26.4392  -46.6710 H         1 UNK         0.0600 
    204 H204        0.0293  -28.1037  -46.0985 H         1 UNK         0.0600 
    205 H205       -1.0619  -26.2627  -49.1018 H         1 UNK         0.3000 
    206 H206       -0.1973  -28.5194  -50.6800 H         1 UNK         0.0600 
    207 H207        0.8715  -26.2803  -50.8189 H         1 UNK         0.0600 
    208 H208        0.2329  -26.7464  -52.3883 H         1 UNK         0.0600 
    209 H209       -0.6331  -25.5719  -51.4029 H         1 UNK         0.0600 
    210 H210       -3.2121  -26.8370  -50.3531 H         1 UNK         0.3000 
    211 H211       -5.2057  -26.8388  -51.2843 H         1 UNK         0.0600 
    212 H212       -4.4734  -29.3923  -52.8187 H         1 UNK         0.0600 
    213 H213       -6.0851  -28.7338  -52.5855 H         1 UNK         0.0600 
    214 H214       -5.1849  -29.3446  -51.2061 H         1 UNK         0.0600 
    215 H215       -3.4187  -25.1140  -52.1253 H         1 UNK         0.3000 
    216 H216       -3.8969  -24.6231  -55.0072 H         1 UNK         0.0600 
    217 H217       -1.4662  -24.3678  -55.4356 H         1 UNK         0.0600 
    218 H218       -1.8697  -26.0282  -55.0252 H         1 UNK         0.0600 
    219 H219       -1.0985  -24.9895  -53.8308 H         1 UNK         0.0600 
    220 H220       -4.3379  -21.4745  -53.1782 H         1 UNK         0.3000 
    221 H221       -5.7655  -23.9027  -54.1933 H         1 UNK         0.0600 
    222 H222       -6.4631  -20.9350  -54.4917 H         1 UNK         0.0600 
    223 H223       -5.7693  -21.9353  -55.7605 H         1 UNK         0.0600 
    224 H224       -7.3677  -22.3034  -55.1494 H         1 UNK         0.0600 
    225 H225       -8.1291  -22.0619  -53.3192 H         1 UNK         0.3000 
    226 H226       -8.6415  -23.4428  -50.8397 H         1 UNK         0.0600 
    227 H227      -10.4015  -23.0888  -52.5320 H         1 UNK         0.0600 
    228 H228      -10.8454  -22.2886  -51.0337 H         1 UNK         0.0600 
    229 H229      -10.2422  -21.3387  -52.3871 H         1 UNK         0.0600 
    230 H230       -6.6664  -22.4856  -49.8432 H         1 UNK         0.3000 
    231 H231       -5.6993  -21.3722  -48.1967 H         1 UNK         0.0600 
    232 H232       -7.0262  -20.3154  -46.4252 H         1 UNK         0.0600 
    233 H233       -7.8241  -21.7875  -46.9488 H         1 UNK         0.0600 
    234 H234       -8.4373  -20.2175  -47.4692 H         1 UNK         0.0600 
    235 H235       -5.6461  -20.2289  -50.7961 H         1 UNK         0.3000 
    236 H236       -4.3651  -17.7545  -50.0923 H         1 UNK         0.0600 
    237 H237       -6.6647  -16.8733  -50.6053 H         1 UNK         0.0600 
    238 H238       -5.5392  -16.4142  -51.8735 H         1 UNK         0.0600 
    239 H239       -6.6689  -17.7387  -52.1405 H         1 UNK         0.0600 
    240 H240       -2.6518  -17.4169  -51.5667 H         1 UNK         0.3000 
    241 H241       -1.7958  -19.7415  -52.9767 H         1 UNK         0.0600 
    242 H242       -3.8928  -17.3004  -54.2385 H         1 UNK         0.3800 
    243 H243       -3.5480  -17.6089  -55.9197 H         1 UNK         0.3800 
    244 H244        0.2311  -18.4034  -53.5421 H         1 UNK         0.0800 
    245 H245       -0.5306  -16.9587  -52.9270 H         1 UNK         0.0800 
    246 H246        2.2618  -19.0574  -52.1193 H         1 UNK         0.0800 
    247 H247        2.1306  -17.3230  -51.9583 H         1 UNK         0.0800 
@<TRIPOS>BOND
     1    1    2 1    
     2    1  127 1    
     3    1  128 1    
     4    1  129 1    
     5    2    3 2    
     6    2    4 am   BACKBONE|DICT|INTERRES
     7    4    5 1    
     8    4  130 1    
     9    5    6 1    
    10    5   65 1    
    11    5  131 1    
    12    6    7 1    
    13    6  132 1    
    14    6  133 1    
    15    7    8 1    
    16    8    9 1    
    17    8  134 1    
    18    8  135 1    
    19    9   10 ar   
    20    9   14 ar   
    21   10   11 ar   
    22   10  136 1    
    23   11   12 ar   
    24   11  126 1    
    25   12   13 ar   
    26   12  137 1    
    27   13   14 ar   
    28   13   15 1    
    29   14  138 1    
    30   15   16 1    
    31   15  139 1    
    32   15  140 1    
    33   16   17 1    
    34   17   18 1    
    35   17  141 1    
    36   17  142 1    
    37   18   19 1    
    38   18   67 1    
    39   18  143 1    
    40   19   20 am   BACKBONE|DICT|INTERRES
    41   19  144 1    
    42   20   21 2    
    43   20   22 1    
    44   22   23 1    
    45   22   24 1    
    46   22  145 1    
    47   23  146 1    
    48   23  147 1    
    49   23  148 1    
    50   24   25 am   BACKBONE|DICT|INTERRES
    51   24  149 1    
    52   25   26 2    
    53   25   27 1    
    54   27   28 1    
    55   27   29 1    
    56   27  150 1    
    57   28  151 1    
    58   28  152 1    
    59   28  153 1    
    60   29   30 am   BACKBONE|DICT|INTERRES
    61   29  154 1    
    62   30   31 2    
    63   30   32 1    
    64   32   33 1    
    65   32   34 1    
    66   32  155 1    
    67   33  156 1    
    68   33  157 1    
    69   33  158 1    
    70   34   35 am   BACKBONE|DICT|INTERRES
    71   34  159 1    
    72   35   36 2    
    73   35   37 1    
    74   37   38 1    
    75   37   39 1    
    76   37  160 1    
    77   38  161 1    
    78   38  162 1    
    79   38  163 1    
    80   39   40 am   BACKBONE|DICT|INTERRES
    81   39  164 1    
    82   40   41 2    
    83   40   42 1    
    84   42   43 1    
    85   42   44 1    
    86   42  165 1    
    87   43  166 1    
    88   43  167 1    
    89   43  168 1    
    90   44   45 am   BACKBONE|DICT|INTERRES
    91   44  169 1    
    92   45   46 2    
    93   45   47 1    
    94   47   48 1    
    95   47   49 1    
    96   47  170 1    
    97   48  171 1    
    98   48  172 1    
    99   48  173 1    
   100   49   50 am   BACKBONE|DICT|INTERRES
   101   49  174 1    
   102   50   51 2    
   103   50   52 1    
   104   52   53 1    
   105   52   54 1    
   106   52  175 1    
   107   53  176 1    
   108   53  177 1    
   109   53  178 1    
   110   54   55 am   BACKBONE|DICT|INTERRES
   111   54  179 1    
   112   55   56 2    
   113   55   57 1    
   114   57   58 1    
   115   57   59 1    
   116   57  180 1    
   117   58  181 1    
   118   58  182 1    
   119   58  183 1    
   120   59   60 am   BACKBONE|DICT|INTERRES
   121   59  184 1    
   122   60   61 2    
   123   60   62 1    
   124   62   63 1    
   125   62   64 1    
   126   62  185 1    
   127   63  186 1    
   128   63  187 1    
   129   63  188 1    
   130   64   65 am   BACKBONE|DICT|INTERRES
   131   64  189 1    
   132   65   66 2    
   133   67   68 2    
   134   67   69 am   BACKBONE|DICT|INTERRES
   135   69   70 1    
   136   69  190 1    
   137   70   71 1    
   138   70   72 1    
   139   70  191 1    
   140   71  192 1    
   141   71  193 1    
   142   71  194 1    
   143   72   73 2    
   144   72   74 am   BACKBONE|DICT|INTERRES
   145   74   75 1    
   146   74  195 1    
   147   75   76 1    
   148   75   77 1    
   149   75  196 1    
   150   76  197 1    
   151   76  198 1    
   152   76  199 1    
   153   77   78 2    
   154   77   79 am   BACKBONE|DICT|INTERRES
   155   79   80 1    
   156   79  200 1    
   157   80   81 1    
   158   80   82 1    
   159   80  201 1    
   160   81  202 1    
   161   81  203 1    
   162   81  204 1    
   163   82   83 2    
   164   82   84 am   BACKBONE|DICT|INTERRES
   165   84   85 1    
   166   84  205 1    
   167   85   86 1    
   168   85   87 1    
   169   85  206 1    
   170   86  207 1    
   171   86  208 1    
   172   86  209 1    
   173   87   88 2    
   174   87   89 am   BACKBONE|DICT|INTERRES
   175   89   90 1    
   176   89  210 1    
   177   90   91 1    
   178   90   92 1    
   179   90  211 1    
   180   91  212 1    
   181   91  213 1    
   182   91  214 1    
   183   92   93 2    
   184   92   94 am   BACKBONE|DICT|INTERRES
   185   94   95 1    
   186   94  215 1    
   187   95   96 1    
   188   95   97 1    
   189   95  216 1    
   190   96  217 1    
   191   96  218 1    
   192   96  219 1    
   193   97   98 2    
   194   97   99 am   BACKBONE|DICT|INTERRES
   195   99  100 1    
   196   99  220 1    
   197  100  101 1    
   198  100  102 1    
   199  100  221 1    
   200  101  222 1    
   201  101  223 1    
   202  101  224 1    
   203  102  103 2    
   204  102  104 am   BACKBONE|DICT|INTERRES
   205  104  105 1    
   206  104  225 1    
   207  105  106 1    
   208  105  107 1    
   209  105  226 1    
   210  106  227 1    
   211  106  228 1    
   212  106  229 1    
   213  107  108 2    
   214  107  109 am   BACKBONE|DICT|INTERRES
   215  109  110 1    
   216  109  230 1    
   217  110  111 1    
   218  110  112 1    
   219  110  231 1    
   220  111  232 1    
   221  111  233 1    
   222  111  234 1    
   223  112  113 2    
   224  112  114 am   BACKBONE|DICT|INTERRES
   225  114  115 1    
   226  114  235 1    
   227  115  116 1    
   228  115  117 1    
   229  115  236 1    
   230  116  237 1    
   231  116  238 1    
   232  116  239 1    
   233  117  118 2    
   234  117  119 am   BACKBONE|DICT|INTERRES
   235  119  120 1    
   236  119  240 1    
   237  120  121 1    
   238  120  124 1    
   239  120  241 1    
   240  121  122 am   BACKBONE|DICT|INTERRES
   241  121  123 2    
   242  122  242 1    
   243  122  243 1    
   244  124  125 1    
   245  124  244 1    
   246  124  245 1    
   247  125  126 1    
   248  126  246 1    
   249  126  247 1    
@<TRIPOS>SUBSTRUCTURE
     1 UNK         1 GROUP             0       ****    0 ROOT    
