@<TRIPOS>MOLECULE
3R540
247   249    1
SMALL
USER_CHARGES


@<TRIPOS>ATOM
      1 CA          2.7118  -10.8234  -47.4043 C.3       0 UNK        -0.1800 
      2 C           2.2744  -12.2481  -47.7138 C.2       0 UNK         0.5000 
      3 O           2.7693  -12.8512  -48.6658 O.2       0 UNK        -0.5000 
      4 N           1.3539  -12.7880  -46.9104 N.am      1 UNK        -0.5000 
      5 CA          0.8518  -14.1552  -46.9927 C.3       1 UNK         0.1400 
      6 C6         -0.1660  -14.3379  -48.1501 C.3       23 UNK        -0.0398 
      7 S7         -0.2589  -16.0596  -48.7401 S.3       23 UNK        -0.2404 
      8 C8          1.1906  -16.1201  -49.8369 C.3       23 UNK        -0.0205 
      9 C9          1.2779  -17.4669  -50.5320 C.ar      23 UNK        -0.0193 
     10 C10         0.8292  -17.6084  -51.8458 C.ar      23 UNK        -0.1150 
     11 C11         0.8752  -18.8512  -52.4820 C.ar      23 UNK        -0.0193 
     12 C12         1.3738  -19.9585  -51.7875 C.ar      23 UNK        -0.1150 
     13 C13         1.8412  -19.8327  -50.4740 C.ar      23 UNK        -0.0193 
     14 C14         1.7990  -18.5743  -49.8584 C.ar      23 UNK        -0.1150 
     15 C15         2.4003  -21.0730  -49.7704 C.3       23 UNK        -0.0205 
     16 S16         2.4098  -21.0161  -47.9420 S.3       23 UNK        -0.2404 
     17 C17         0.6266  -20.8998  -47.5777 C.3       23 UNK        -0.0398 
     18 CA          0.0267  -22.2247  -47.0586 C.3       11 UNK         0.1400 
     19 N           0.6656  -22.6934  -45.8261 N.am      11 UNK        -0.5000 
     20 C           0.4856  -23.9143  -45.2992 C.2       10 UNK         0.5000 
     21 O          -0.2405  -24.7700  -45.8009 O.2       10 UNK        -0.5000 
     22 CA          1.1854  -24.2204  -43.9616 C.3       10 UNK         0.1400 
     23 CB          2.5810  -24.8088  -44.2145 C.3       10 UNK        -0.1800 
     24 N           1.3102  -23.0543  -43.0898 N.am      10 UNK        -0.5000 
     25 C           0.3077  -22.2664  -42.6739 C.2       9 UNK         0.5000 
     26 O          -0.8812  -22.4903  -42.9070 O.2       9 UNK        -0.5000 
     27 CA          0.7155  -20.9743  -41.9378 C.3       9 UNK         0.1400 
     28 CB          0.5824  -21.1552  -40.4191 C.3       9 UNK        -0.1800 
     29 N           2.0806  -20.5342  -42.2576 N.am      9 UNK        -0.5000 
     30 C           2.4885  -20.1510  -43.4754 C.2       8 UNK         0.5000 
     31 O           1.7484  -20.0998  -44.4606 O.2       8 UNK        -0.5000 
     32 CA          3.9808  -19.8492  -43.6399 C.3       8 UNK         0.1400 
     33 CB          4.7324  -21.0847  -44.1639 C.3       8 UNK        -0.1800 
     34 N           4.1124  -18.7521  -44.5861 N.am      8 UNK        -0.5000 
     35 C           5.0642  -17.8155  -44.5513 C.2       7 UNK         0.5000 
     36 O           6.0306  -17.8516  -43.7869 O.2       7 UNK        -0.5000 
     37 CA          4.9048  -16.6027  -45.4927 C.3       7 UNK         0.1400 
     38 CB          3.8560  -16.7980  -46.6142 C.3       7 UNK        -0.1800 
     39 N           4.6335  -15.3811  -44.7231 N.am      7 UNK        -0.5000 
     40 C           3.5972  -15.1755  -43.8961 C.2       6 UNK         0.5000 
     41 O           2.6926  -15.9962  -43.7277 O.2       6 UNK        -0.5000 
     42 CA          3.5750  -13.8432  -43.1200 C.3       6 UNK         0.1400 
     43 CB          3.7435  -12.6228  -44.0409 C.3       6 UNK        -0.1800 
     44 N           2.3019  -13.7123  -42.4150 N.am      6 UNK        -0.5000 
     45 C           2.1180  -13.8785  -41.1001 C.2       5 UNK         0.5000 
     46 O           3.0402  -14.0507  -40.3006 O.2       5 UNK        -0.5000 
     47 CA          0.6561  -13.8789  -40.5984 C.3       5 UNK         0.1400 
     48 CB          0.5207  -13.4211  -39.1308 C.3       5 UNK        -0.1800 
     49 N          -0.2681  -13.1447  -41.4708 N.am      5 UNK        -0.5000 
     50 C          -0.2736  -11.8287  -41.7408 C.2       4 UNK         0.5000 
     51 O           0.4971  -11.0221  -41.2189 O.2       4 UNK        -0.5000 
     52 CA         -1.2928  -11.3250  -42.7852 C.3       4 UNK         0.1400 
     53 CB         -0.5986  -10.4774  -43.8664 C.3       4 UNK        -0.1800 
     54 N          -1.9890  -12.4319  -43.4433 N.am      4 UNK        -0.5000 
     55 C          -3.2360  -12.8414  -43.1748 C.2       3 UNK         0.5000 
     56 O          -3.9804  -12.2823  -42.3690 O.2       3 UNK        -0.5000 
     57 CA         -3.7357  -14.0999  -43.9173 C.3       3 UNK         0.1400 
     58 CB         -4.5976  -13.7013  -45.1249 C.3       3 UNK        -0.1800 
     59 N          -2.6604  -14.9841  -44.3771 N.am      3 UNK        -0.5000 
     60 C          -1.8203  -15.6583  -43.5792 C.2       2 UNK         0.5000 
     61 O          -1.8811  -15.6352  -42.3502 O.2       2 UNK        -0.5000 
     62 CA         -0.6767  -16.4278  -44.2673 C.3       2 UNK         0.1400 
     63 CB         -1.1025  -17.8696  -44.5798 C.3       2 UNK        -0.1800 
     64 N          -0.1838  -15.8007  -45.4985 N.am      2 UNK        -0.5000 
     65 C           0.2980  -14.5562  -45.6122 C.2       1 UNK         0.5000 
     66 O           0.3150  -13.7417  -44.6827 O.2       1 UNK        -0.5000 
     67 C          -1.5011  -22.0835  -46.9085 C.2       11 UNK         0.5000 
     68 O          -2.2217  -22.3109  -47.8810 O.2       11 UNK        -0.5000 
     69 N          -1.9716  -21.7283  -45.7051 N.am      12 UNK        -0.5000 
     70 CA         -3.3938  -21.6868  -45.3736 C.3       12 UNK         0.1400 
     71 CB         -3.6358  -20.7181  -44.2064 C.3       12 UNK        -0.1800 
     72 C          -3.9240  -23.0906  -45.0446 C.2       12 UNK         0.5000 
     73 O          -4.9926  -23.4589  -45.5307 O.2       12 UNK        -0.5000 
     74 N          -3.1577  -23.8583  -44.2551 N.am      13 UNK        -0.5000 
     75 CA         -3.5092  -25.2096  -43.8075 C.3       13 UNK         0.1400 
     76 CB         -2.4760  -25.6945  -42.7806 C.3       13 UNK        -0.1800 
     77 C          -3.6488  -26.2248  -44.9584 C.2       13 UNK         0.5000 
     78 O          -4.5776  -27.0331  -44.9446 O.2       13 UNK        -0.5000 
     79 N          -2.7483  -26.1446  -45.9475 N.am      14 UNK        -0.5000 
     80 CA         -2.7770  -26.9557  -47.1677 C.3       14 UNK         0.1400 
     81 CB         -1.3528  -27.0395  -47.7412 C.3       14 UNK        -0.1800 
     82 C          -3.7479  -26.4114  -48.2355 C.2       14 UNK         0.5000 
     83 O          -3.9348  -27.0684  -49.2600 O.2       14 UNK        -0.5000 
     84 N          -4.3178  -25.2187  -47.9990 N.am      15 UNK        -0.5000 
     85 CA         -5.1972  -24.4520  -48.8894 C.3       15 UNK         0.1400 
     86 CB         -6.5170  -25.2076  -49.1510 C.3       15 UNK        -0.1800 
     87 C          -4.5047  -23.9862  -50.1890 C.2       15 UNK         0.5000 
     88 O          -5.1814  -23.6959  -51.1757 O.2       15 UNK        -0.5000 
     89 N          -3.1691  -23.8833  -50.1602 N.am      16 UNK        -0.5000 
     90 CA         -2.3366  -23.4176  -51.2672 C.3       16 UNK         0.1400 
     91 CB         -0.8602  -23.7108  -50.9609 C.3       16 UNK        -0.1800 
     92 C          -2.5440  -21.9229  -51.5537 C.2       16 UNK         0.5000 
     93 O          -2.6533  -21.5446  -52.7183 O.2       16 UNK        -0.5000 
     94 N          -2.6371  -21.1140  -50.4900 N.am      17 UNK        -0.5000 
     95 CA         -2.9239  -19.6799  -50.5717 C.3       17 UNK         0.1400 
     96 CB         -2.5148  -19.0079  -49.2514 C.3       17 UNK        -0.1800 
     97 C          -4.4027  -19.3824  -50.8907 C.2       17 UNK         0.5000 
     98 O          -4.7117  -18.2971  -51.3827 O.2       17 UNK        -0.5000 
     99 N          -5.2904  -20.3388  -50.5852 N.am      18 UNK        -0.5000 
    100 CA        -6.7345  -20.2355  -50.7951 C.3       18 UNK         0.1400 
    101 CB        -7.4478  -21.1558  -49.7926 C.3       18 UNK        -0.1800 
    102 C         -7.1623  -20.5713  -52.2368 C.2       18 UNK         0.5000 
    103 O         -8.2491  -20.1617  -52.6480 O.2       18 UNK        -0.5000 
    104 N         -6.3248  -21.3155  -52.9730 N.am      19 UNK        -0.5000 
    105 CA        -6.5467  -21.6954  -54.3679 C.3       19 UNK         0.1400 
    106 CB        -5.4794  -22.7214  -54.7802 C.3       19 UNK        -0.1800 
    107 C         -6.5171  -20.4762  -55.3087 C.2       19 UNK         0.5000 
    108 O         -5.7067  -19.5702  -55.1072 O.2       19 UNK        -0.5000 
    109 N         -7.3747  -20.4906  -56.3383 N.am      20 UNK        -0.5000 
    110 CA        -7.5227  -19.4027  -57.3121 C.3       20 UNK         0.1400 
    111 CB        -8.7696  -19.6569  -58.1730 C.3       20 UNK        -0.1800 
    112 C         -6.2805  -19.2028  -58.2012 C.2       20 UNK         0.5000 
    113 O         -5.9186  -18.0633  -58.4961 O.2       20 UNK        -0.5000 
    114 N         -5.6386  -20.3135  -58.5889 N.am      21 UNK        -0.5000 
    115 CA        -4.3721  -20.3223  -59.3280 C.3       21 UNK         0.1400 
    116 CB        -4.2425  -21.6629  -60.0683 C.3       21 UNK        -0.1800 
    117 C         -3.1499  -20.0936  -58.4144 C.2       21 UNK         0.5000 
    118 O         -2.0907  -19.7053  -58.9077 O.2       21 UNK        -0.5000 
    119 N         -3.3359  -20.3333  -57.1100 N.am      22 UNK        -0.5000 
    120 CA        -2.3499  -20.3138  -56.0233 C.3       22 UNK         0.1400 
    121 C         -1.3561  -21.5083  -56.0837 C.2       22 UNK         0.5000 
    122 N         -1.1990  -22.2360  -54.9888 N.am      22 UNK        -0.7600 
    123 O         -0.7051  -21.7674  -57.0923 O.2       22 UNK        -0.5000 
    124 C124       -1.6261  -18.9487  -55.8725 C.3       23 UNK        -0.0398 
    125 S125       -1.3395  -18.5312  -54.1208 S.3       23 UNK        -0.2404 
    126 C126        0.4110  -18.9870  -53.9256 C.3       23 UNK        -0.0205 
    127 H127        3.7793  -10.7988  -47.1853 H         1 UNK         0.0600 
    128 H128        2.1795  -10.4137  -46.5453 H         1 UNK         0.0600 
    129 H129        2.5226  -10.1775  -48.2617 H         1 UNK         0.0600 
    130 H130        1.0071  -12.2797  -46.1070 H         1 UNK         0.3000 
    131 H131        1.7154  -14.7983  -47.1666 H         1 UNK         0.0600 
    132 H132        0.1047  -13.7151  -49.0036 H         1 UNK         0.0800 
    133 H133       -1.1626  -14.0048  -47.8554 H         1 UNK         0.0800 
    134 H134        1.1277  -15.3161  -50.5720 H         1 UNK         0.0800 
    135 H135        2.1005  -15.9427  -49.2621 H         1 UNK         0.0800 
    136 H136        0.4343  -16.7523  -52.3747 H         1 UNK         0.1150 
    137 H137        1.4103  -20.9221  -52.2763 H         1 UNK         0.1150 
    138 H138        2.1565  -18.4461  -48.8474 H         1 UNK         0.1150 
    139 H139        1.8381  -21.9555  -50.0794 H         1 UNK         0.0800 
    140 H140        3.4245  -21.2254  -50.1124 H         1 UNK         0.0800 
    141 H141        0.1063  -20.5869  -48.4826 H         1 UNK         0.0800 
    142 H142        0.4803  -20.0977  -46.8524 H         1 UNK         0.0800 
    143 H143        0.1996  -22.9888  -47.8189 H         1 UNK         0.0600 
    144 H144        1.2516  -22.0205  -45.3461 H         1 UNK         0.3000 
    145 H145        0.5913  -24.9656  -43.4325 H         1 UNK         0.0600 
    146 H146        3.0606  -25.1048  -43.2813 H         1 UNK         0.0600 
    147 H147        2.5213  -25.6979  -44.8438 H         1 UNK         0.0600 
    148 H148        3.2344  -24.0941  -44.7171 H         1 UNK         0.0600 
    149 H149        2.2489  -22.7853  -42.8378 H         1 UNK         0.3000 
    150 H150        0.0255  -20.1887  -42.2530 H         1 UNK         0.0600 
    151 H151        1.2657  -21.9174  -40.0424 H         1 UNK         0.0600 
    152 H152       -0.4300  -21.4596  -40.1497 H         1 UNK         0.0600 
    153 H153        0.7913  -20.2246  -39.8911 H         1 UNK         0.0600 
    154 H154        2.7478  -20.5572  -41.4995 H         1 UNK         0.3000 
    155 H155        4.3878  -19.5547  -42.6701 H         1 UNK         0.0600 
    156 H156        4.3428  -21.4118  -45.1292 H         1 UNK         0.0600 
    157 H157        4.6433  -21.9221  -43.4710 H         1 UNK         0.0600 
    158 H158        5.7954  -20.8767  -44.2865 H         1 UNK         0.0600 
    159 H159        3.3138  -18.6324  -45.1963 H         1 UNK         0.3000 
    160 H160        5.8739  -16.4611  -45.9734 H         1 UNK         0.0600 
    161 H161        2.8419  -16.9055  -46.2281 H         1 UNK         0.0600 
    162 H162        4.0785  -17.6855  -47.2082 H         1 UNK         0.0600 
    163 H163        3.8615  -15.9490  -47.2975 H         1 UNK         0.0600 
    164 H164        5.3519  -14.6730  -44.7751 H         1 UNK         0.3000 
    165 H165        4.4077  -13.8615  -42.4144 H         1 UNK         0.0600 
    166 H166        3.7194  -11.6963  -43.4668 H         1 UNK         0.0600 
    167 H167        4.6936  -12.6433  -44.5752 H         1 UNK         0.0600 
    168 H168        2.9472  -12.5708  -44.7792 H         1 UNK         0.0600 
    169 H169        1.4840  -13.6515  -43.0122 H         1 UNK         0.3000 
    170 H170        0.3341  -14.9202  -40.6419 H         1 UNK         0.0600 
    171 H171        1.0749  -14.0813  -38.4628 H         1 UNK         0.0600 
    172 H172        0.9051  -12.4119  -38.9821 H         1 UNK         0.0600 
    173 H173       -0.5202  -13.4359  -38.8076 H         1 UNK         0.0600 
    174 H174       -0.9510  -13.7237  -41.9441 H         1 UNK         0.3000 
    175 H175       -2.0061  -10.6872  -42.2596 H         1 UNK         0.0600 
    176 H176       -0.1410   -9.5872  -43.4332 H         1 UNK         0.0600 
    177 H177        0.1890  -11.0354  -44.3729 H         1 UNK         0.0600 
    178 H178       -1.3098  -10.1398  -44.6204 H         1 UNK         0.0600 
    179 H179       -1.4222  -12.9749  -44.0859 H         1 UNK         0.3000 
    180 H180       -4.3597  -14.6641  -43.2210 H         1 UNK         0.0600 
    181 H181       -4.0189  -13.1506  -45.8677 H         1 UNK         0.0600 
    182 H182       -5.4291  -13.0649  -44.8190 H         1 UNK         0.0600 
    183 H183       -5.0243  -14.5780  -45.6125 H         1 UNK         0.0600 
    184 H184       -2.5308  -15.0571  -45.3752 H         1 UNK         0.3000 
    185 H185        0.1531  -16.4661  -43.5604 H         1 UNK         0.0600 
    186 H186       -1.4346  -18.3833  -43.6769 H         1 UNK         0.0600 
    187 H187       -1.9193  -17.9001  -45.3018 H         1 UNK         0.0600 
    188 H188       -0.2731  -18.4443  -44.9908 H         1 UNK         0.0600 
    189 H189       -0.1770  -16.3878  -46.3216 H         1 UNK         0.3000 
    190 H190       -1.3224  -21.6111  -44.9387 H         1 UNK         0.3000 
    191 H191       -3.9523  -21.3124  -46.2347 H         1 UNK         0.0600 
    192 H192       -3.3785  -19.6980  -44.4865 H         1 UNK         0.0600 
    193 H193       -4.6869  -20.7144  -43.9150 H         1 UNK         0.0600 
    194 H194       -3.0527  -20.9837  -43.3245 H         1 UNK         0.0600 
    195 H195       -2.3042  -23.4608  -43.8746 H         1 UNK         0.3000 
    196 H196       -4.4770  -25.1436  -43.3062 H         1 UNK         0.0600 
    197 H197       -2.7785  -26.6482  -42.3465 H         1 UNK         0.0600 
    198 H198       -2.3639  -24.9836  -41.9616 H         1 UNK         0.0600 
    199 H199       -1.4983  -25.8410  -43.2373 H         1 UNK         0.0600 
    200 H200       -1.9726  -25.4913  -45.8621 H         1 UNK         0.3000 
    201 H201       -3.1004  -27.9674  -46.9143 H         1 UNK         0.0600 
    202 H202       -1.3146  -27.7085  -48.6017 H         1 UNK         0.0600 
    203 H203       -0.6504  -27.4233  -47.0010 H         1 UNK         0.0600 
    204 H204       -0.9937  -26.0634  -48.0700 H         1 UNK         0.0600 
    205 H205       -4.1263  -24.7779  -47.1084 H         1 UNK         0.3000 
    206 H206       -5.4467  -23.5398  -48.3458 H         1 UNK         0.0600 
    207 H207       -6.9872  -25.5121  -48.2159 H         1 UNK         0.0600 
    208 H208       -7.2332  -24.5806  -49.6822 H         1 UNK         0.0600 
    209 H209       -6.3613  -26.1011  -49.7557 H         1 UNK         0.0600 
    210 H210       -2.7018  -24.0485  -49.2796 H         1 UNK         0.3000 
    211 H211       -2.6193  -23.9755  -52.1625 H         1 UNK         0.0600 
    212 H212       -0.5167  -23.1711  -50.0788 H         1 UNK         0.0600 
    213 H213       -0.2230  -23.4123  -51.7945 H         1 UNK         0.0600 
    214 H214       -0.6957  -24.7748  -50.7896 H         1 UNK         0.0600 
    215 H215       -2.5398  -21.5168  -49.5614 H         1 UNK         0.3000 
    216 H216       -2.3209  -19.2462  -51.3717 H         1 UNK         0.0600 
    217 H217       -2.7958  -17.9540  -49.2443 H         1 UNK         0.0600 
    218 H218       -1.4357  -19.0454  -49.1124 H         1 UNK         0.0600 
    219 H219       -2.9880  -19.4806  -48.3900 H         1 UNK         0.0600 
    220 H220       -4.9449  -21.2069  -50.2059 H         1 UNK         0.3000 
    221 H221       -7.0477  -19.2096  -50.5901 H         1 UNK         0.0600 
    222 H222       -7.2056  -22.2032  -49.9678 H         1 UNK         0.0600 
    223 H223       -7.1742  -20.9128  -48.7657 H         1 UNK         0.0600 
    224 H224       -8.5308  -21.0539  -49.8729 H         1 UNK         0.0600 
    225 H225       -5.4556  -21.6172  -52.5561 H         1 UNK         0.3000 
    226 H226       -7.5283  -22.1689  -54.4352 H         1 UNK         0.0600 
    227 H227       -5.6205  -23.0447  -55.8122 H         1 UNK         0.0600 
    228 H228       -4.4725  -22.3120  -54.6976 H         1 UNK         0.0600 
    229 H229       -5.5268  -23.6110  -54.1515 H         1 UNK         0.0600 
    230 H230       -8.0048  -21.2733  -56.4417 H         1 UNK         0.3000 
    231 H231       -7.6796  -18.4761  -56.7555 H         1 UNK         0.0600 
    232 H232       -8.6909  -20.5894  -58.7332 H         1 UNK         0.0600 
    233 H233       -8.9164  -18.8521  -58.8946 H         1 UNK         0.0600 
    234 H234       -9.6691  -19.7083  -57.5591 H         1 UNK         0.0600 
    235 H235       -6.0191  -21.2100  -58.3225 H         1 UNK         0.3000 
    236 H236       -4.3861  -19.5225  -60.0716 H         1 UNK         0.0600 
    237 H237       -5.0729  -21.8148  -60.7581 H         1 UNK         0.0600 
    238 H238       -3.3236  -21.6974  -60.6551 H         1 UNK         0.0600 
    239 H239       -4.2210  -22.5054  -59.3759 H         1 UNK         0.0600 
    240 H240       -4.2673  -20.5926  -56.8236 H         1 UNK         0.3000 
    241 H241       -2.9715  -20.4544  -55.1382 H         1 UNK         0.0600 
    242 H242       -0.5574  -23.0121  -54.9955 H         1 UNK         0.3800 
    243 H243       -1.7175  -22.0043  -54.1417 H         1 UNK         0.3800 
    244 H244       -0.6953  -18.9127  -56.4414 H         1 UNK         0.0800 
    245 H245       -2.2486  -18.1492  -56.2765 H         1 UNK         0.0800 
    246 H246        0.5583  -20.0084  -54.2785 H         1 UNK         0.0800 
    247 H247        1.0245  -18.3457  -54.5598 H         1 UNK         0.0800 
@<TRIPOS>BOND
     1    1    2 1    
     2    1  127 1    
     3    1  128 1    
     4    1  129 1    
     5    2    3 2    
     6    2    4 am   BACKBONE|DICT|INTERRES
     7    4    5 1    
     8    4  130 1    
     9    5    6 1    
    10    5   65 1    
    11    5  131 1    
    12    6    7 1    
    13    6  132 1    
    14    6  133 1    
    15    7    8 1    
    16    8    9 1    
    17    8  134 1    
    18    8  135 1    
    19    9   10 ar   
    20    9   14 ar   
    21   10   11 ar   
    22   10  136 1    
    23   11   12 ar   
    24   11  126 1    
    25   12   13 ar   
    26   12  137 1    
    27   13   14 ar   
    28   13   15 1    
    29   14  138 1    
    30   15   16 1    
    31   15  139 1    
    32   15  140 1    
    33   16   17 1    
    34   17   18 1    
    35   17  141 1    
    36   17  142 1    
    37   18   19 1    
    38   18   67 1    
    39   18  143 1    
    40   19   20 am   BACKBONE|DICT|INTERRES
    41   19  144 1    
    42   20   21 2    
    43   20   22 1    
    44   22   23 1    
    45   22   24 1    
    46   22  145 1    
    47   23  146 1    
    48   23  147 1    
    49   23  148 1    
    50   24   25 am   BACKBONE|DICT|INTERRES
    51   24  149 1    
    52   25   26 2    
    53   25   27 1    
    54   27   28 1    
    55   27   29 1    
    56   27  150 1    
    57   28  151 1    
    58   28  152 1    
    59   28  153 1    
    60   29   30 am   BACKBONE|DICT|INTERRES
    61   29  154 1    
    62   30   31 2    
    63   30   32 1    
    64   32   33 1    
    65   32   34 1    
    66   32  155 1    
    67   33  156 1    
    68   33  157 1    
    69   33  158 1    
    70   34   35 am   BACKBONE|DICT|INTERRES
    71   34  159 1    
    72   35   36 2    
    73   35   37 1    
    74   37   38 1    
    75   37   39 1    
    76   37  160 1    
    77   38  161 1    
    78   38  162 1    
    79   38  163 1    
    80   39   40 am   BACKBONE|DICT|INTERRES
    81   39  164 1    
    82   40   41 2    
    83   40   42 1    
    84   42   43 1    
    85   42   44 1    
    86   42  165 1    
    87   43  166 1    
    88   43  167 1    
    89   43  168 1    
    90   44   45 am   BACKBONE|DICT|INTERRES
    91   44  169 1    
    92   45   46 2    
    93   45   47 1    
    94   47   48 1    
    95   47   49 1    
    96   47  170 1    
    97   48  171 1    
    98   48  172 1    
    99   48  173 1    
   100   49   50 am   BACKBONE|DICT|INTERRES
   101   49  174 1    
   102   50   51 2    
   103   50   52 1    
   104   52   53 1    
   105   52   54 1    
   106   52  175 1    
   107   53  176 1    
   108   53  177 1    
   109   53  178 1    
   110   54   55 am   BACKBONE|DICT|INTERRES
   111   54  179 1    
   112   55   56 2    
   113   55   57 1    
   114   57   58 1    
   115   57   59 1    
   116   57  180 1    
   117   58  181 1    
   118   58  182 1    
   119   58  183 1    
   120   59   60 am   BACKBONE|DICT|INTERRES
   121   59  184 1    
   122   60   61 2    
   123   60   62 1    
   124   62   63 1    
   125   62   64 1    
   126   62  185 1    
   127   63  186 1    
   128   63  187 1    
   129   63  188 1    
   130   64   65 am   BACKBONE|DICT|INTERRES
   131   64  189 1    
   132   65   66 2    
   133   67   68 2    
   134   67   69 am   BACKBONE|DICT|INTERRES
   135   69   70 1    
   136   69  190 1    
   137   70   71 1    
   138   70   72 1    
   139   70  191 1    
   140   71  192 1    
   141   71  193 1    
   142   71  194 1    
   143   72   73 2    
   144   72   74 am   BACKBONE|DICT|INTERRES
   145   74   75 1    
   146   74  195 1    
   147   75   76 1    
   148   75   77 1    
   149   75  196 1    
   150   76  197 1    
   151   76  198 1    
   152   76  199 1    
   153   77   78 2    
   154   77   79 am   BACKBONE|DICT|INTERRES
   155   79   80 1    
   156   79  200 1    
   157   80   81 1    
   158   80   82 1    
   159   80  201 1    
   160   81  202 1    
   161   81  203 1    
   162   81  204 1    
   163   82   83 2    
   164   82   84 am   BACKBONE|DICT|INTERRES
   165   84   85 1    
   166   84  205 1    
   167   85   86 1    
   168   85   87 1    
   169   85  206 1    
   170   86  207 1    
   171   86  208 1    
   172   86  209 1    
   173   87   88 2    
   174   87   89 am   BACKBONE|DICT|INTERRES
   175   89   90 1    
   176   89  210 1    
   177   90   91 1    
   178   90   92 1    
   179   90  211 1    
   180   91  212 1    
   181   91  213 1    
   182   91  214 1    
   183   92   93 2    
   184   92   94 am   BACKBONE|DICT|INTERRES
   185   94   95 1    
   186   94  215 1    
   187   95   96 1    
   188   95   97 1    
   189   95  216 1    
   190   96  217 1    
   191   96  218 1    
   192   96  219 1    
   193   97   98 2    
   194   97   99 am   BACKBONE|DICT|INTERRES
   195   99  100 1    
   196   99  220 1    
   197  100  101 1    
   198  100  102 1    
   199  100  221 1    
   200  101  222 1    
   201  101  223 1    
   202  101  224 1    
   203  102  103 2    
   204  102  104 am   BACKBONE|DICT|INTERRES
   205  104  105 1    
   206  104  225 1    
   207  105  106 1    
   208  105  107 1    
   209  105  226 1    
   210  106  227 1    
   211  106  228 1    
   212  106  229 1    
   213  107  108 2    
   214  107  109 am   BACKBONE|DICT|INTERRES
   215  109  110 1    
   216  109  230 1    
   217  110  111 1    
   218  110  112 1    
   219  110  231 1    
   220  111  232 1    
   221  111  233 1    
   222  111  234 1    
   223  112  113 2    
   224  112  114 am   BACKBONE|DICT|INTERRES
   225  114  115 1    
   226  114  235 1    
   227  115  116 1    
   228  115  117 1    
   229  115  236 1    
   230  116  237 1    
   231  116  238 1    
   232  116  239 1    
   233  117  118 2    
   234  117  119 am   BACKBONE|DICT|INTERRES
   235  119  120 1    
   236  119  240 1    
   237  120  121 1    
   238  120  124 1    
   239  120  241 1    
   240  121  122 am   BACKBONE|DICT|INTERRES
   241  121  123 2    
   242  122  242 1    
   243  122  243 1    
   244  124  125 1    
   245  124  244 1    
   246  124  245 1    
   247  125  126 1    
   248  126  246 1    
   249  126  247 1    
@<TRIPOS>SUBSTRUCTURE
     1 UNK         1 GROUP             0       ****    0 ROOT    
