@<TRIPOS>MOLECULE
3R540
247   249    1
SMALL
USER_CHARGES


@<TRIPOS>ATOM
      1 CA          3.7369  -15.4491  -46.7774 C.3       0 UNK        -0.1800 
      2 C           2.9140  -15.1778  -48.0277 C.2       0 UNK         0.5000 
      3 O           1.7027  -15.4043  -48.0280 O.2       0 UNK        -0.5000 
      4 N           3.5595  -14.6653  -49.0856 N.am      1 UNK        -0.5000 
      5 CA          2.9765  -14.4567  -50.4209 C.3       1 UNK         0.1400 
      6 C6          4.0404  -14.3511  -51.5430 C.3       23 UNK        -0.0398 
      7 S7          5.1904  -15.7699  -51.5908 S.3       23 UNK        -0.2404 
      8 C8          4.3002  -16.9515  -52.6597 C.3       23 UNK        -0.0205 
      9 C9          3.1051  -17.5683  -51.9468 C.ar      23 UNK        -0.0193 
     10 C10         1.7998  -17.2224  -52.3122 C.ar      23 UNK        -0.1150 
     11 C11         0.7068  -17.7359  -51.6070 C.ar      23 UNK        -0.0193 
     12 C12         0.9268  -18.6314  -50.5541 C.ar      23 UNK        -0.1150 
     13 C13         2.2253  -19.0135  -50.2046 C.ar      23 UNK        -0.0193 
     14 C14         3.3090  -18.4716  -50.9001 C.ar      23 UNK        -0.1150 
     15 C15         2.4658  -20.0492  -49.1164 C.3       23 UNK        -0.0205 
     16 S16         2.6115  -19.3199  -47.4487 S.3       23 UNK        -0.2404 
     17 C17         0.9601  -19.6043  -46.7147 C.3       23 UNK        -0.0398 
     18 CA          0.6293  -21.1023  -46.4912 C.3       11 UNK         0.1400 
     19 N           1.6443  -21.7946  -45.6924 N.am      11 UNK        -0.5000 
     20 C           1.8594  -23.1160  -45.7285 C.2       10 UNK         0.5000 
     21 O           1.2122  -23.8939  -46.4273 O.2       10 UNK        -0.5000 
     22 CA          2.9535  -23.6635  -44.7952 C.3       10 UNK         0.1400 
     23 CB          4.3471  -23.4313  -45.3980 C.3       10 UNK        -0.1800 
     24 N           2.8935  -23.0688  -43.4602 N.am      10 UNK        -0.5000 
     25 C           1.8738  -23.2347  -42.6069 C.2       9 UNK         0.5000 
     26 O           0.9009  -23.9513  -42.8380 O.2       9 UNK        -0.5000 
     27 CA          1.9238  -22.4299  -41.2966 C.3       9 UNK         0.1400 
     28 CB          2.6344  -23.2308  -40.1964 C.3       9 UNK        -0.1800 
     29 N           2.5614  -21.1179  -41.4241 N.am      9 UNK        -0.5000 
     30 C           2.1545  -20.1265  -42.2274 C.2       8 UNK         0.5000 
     31 O           1.2367  -20.2401  -43.0419 O.2       8 UNK        -0.5000 
     32 CA          2.8693  -18.7759  -42.0379 C.3       8 UNK         0.1400 
     33 CB          2.4792  -17.7447  -43.1090 C.3       8 UNK        -0.1800 
     34 N           2.5439  -18.2447  -40.7149 N.am      8 UNK        -0.5000 
     35 C           3.1713  -18.5842  -39.5795 C.2       7 UNK         0.5000 
     36 O           4.1889  -19.2778  -39.5471 O.2       7 UNK        -0.5000 
     37 CA          2.5176  -18.1340  -38.2587 C.3       7 UNK         0.1400 
     38 CB          3.0351  -16.7492  -37.8424 C.3       7 UNK        -0.1800 
     39 N           1.0558  -18.0998  -38.3348 N.am      7 UNK        -0.5000 
     40 C           0.2654  -19.1654  -38.5289 C.2       6 UNK         0.5000 
     41 O           0.6761  -20.3252  -38.5764 O.2       6 UNK        -0.5000 
     42 CA         -1.2366  -18.8911  -38.7398 C.3       6 UNK         0.1400 
     43 CB         -1.7518  -17.6554  -37.9689 C.3       6 UNK        -0.1800 
     44 N          -1.5858  -18.8004  -40.1629 N.am      6 UNK        -0.5000 
     45 C          -1.0997  -17.9372  -41.0672 C.2       5 UNK         0.5000 
     46 O          -0.2483  -17.0804  -40.8086 O.2       5 UNK        -0.5000 
     47 CA         -1.6516  -18.0396  -42.5009 C.3       5 UNK         0.1400 
     48 CB         -3.1697  -18.3053  -42.5591 C.3       5 UNK        -0.1800 
     49 N          -1.3387  -16.7982  -43.1970 N.am      5 UNK        -0.5000 
     50 C          -1.1307  -16.6703  -44.5081 C.2       4 UNK         0.5000 
     51 O          -1.2453  -17.5958  -45.3151 O.2       4 UNK        -0.5000 
     52 CA         -0.6847  -15.2693  -44.9700 C.3       4 UNK         0.1400 
     53 CB          0.7621  -14.9836  -44.5386 C.3       4 UNK        -0.1800 
     54 N          -0.7640  -15.1189  -46.4175 N.am      4 UNK        -0.5000 
     55 C          -1.8963  -15.0019  -47.1203 C.2       3 UNK         0.5000 
     56 O          -3.0190  -14.9131  -46.6196 O.2       3 UNK        -0.5000 
     57 CA         -1.6997  -14.9505  -48.6428 C.3       3 UNK         0.1400 
     58 CB         -3.0061  -14.8167  -49.4502 C.3       3 UNK        -0.1800 
     59 N          -0.7069  -13.9370  -48.9982 N.am      3 UNK        -0.5000 
     60 C          -0.8056  -12.5994  -48.9379 C.2       2 UNK         0.5000 
     61 O          -1.8493  -11.9980  -48.6834 O.2       2 UNK        -0.5000 
     62 CA          0.4937  -11.7881  -49.1729 C.3       2 UNK         0.1400 
     63 CB          0.7834  -10.8617  -47.9800 C.3       2 UNK        -0.1800 
     64 N           1.6671  -12.6401  -49.3865 N.am      2 UNK        -0.5000 
     65 C           1.9380  -13.3157  -50.5104 C.2       1 UNK         0.5000 
     66 O           1.3472  -13.1168  -51.5721 O.2       1 UNK        -0.5000 
     67 C          -0.7877  -21.3215  -45.9216 C.2       11 UNK         0.5000 
     68 O          -1.7443  -21.3961  -46.6957 O.2       11 UNK        -0.5000 
     69 N          -0.8928  -21.5070  -44.5965 N.am      12 UNK        -0.5000 
     70 CA         -2.1096  -21.9557  -43.9187 C.3       12 UNK         0.1400 
     71 CB         -1.9143  -21.9040  -42.3938 C.3       12 UNK        -0.1800 
     72 C          -2.5185  -23.3720  -44.3671 C.2       12 UNK         0.5000 
     73 O          -3.6666  -23.5753  -44.7617 O.2       12 UNK        -0.5000 
     74 N          -1.5599  -24.3106  -44.3395 N.am      13 UNK        -0.5000 
     75 CA         -1.7328  -25.7034  -44.7605 C.3       13 UNK         0.1400 
     76 CB         -0.4826  -26.5112  -44.3811 C.3       13 UNK        -0.1800 
     77 C          -2.0393  -25.8539  -46.2620 C.2       13 UNK         0.5000 
     78 O          -2.8389  -26.7133  -46.6341 O.2       13 UNK        -0.5000 
     79 N          -1.4252  -24.9997  -47.0921 N.am      14 UNK        -0.5000 
     80 CA         -1.6650  -24.9160  -48.5346 C.3       14 UNK         0.1400 
     81 CB         -0.5362  -24.1017  -49.1862 C.3       14 UNK        -0.1800 
     82 C          -3.0341  -24.3105  -48.9060 C.2       14 UNK         0.5000 
     83 O          -3.4355  -24.4334  -50.0628 O.2       14 UNK        -0.5000 
     84 N          -3.7099  -23.6697  -47.9385 N.am      15 UNK        -0.5000 
     85 CA         -4.9762  -22.9439  -48.0644 C.3       15 UNK         0.1400 
     86 CB         -6.1344  -23.8978  -48.4262 C.3       15 UNK        -0.1800 
     87 C          -4.8453  -21.7510  -49.0292 C.2       15 UNK         0.5000 
     88 O          -5.5445  -21.6867  -50.0425 O.2       15 UNK        -0.5000 
     89 N          -3.9141  -20.8437  -48.7019 N.am      16 UNK        -0.5000 
     90 CA         -3.5743  -19.6475  -49.4737 C.3       16 UNK         0.1400 
     91 CB         -2.5648  -18.8136  -48.6790 C.3       16 UNK        -0.1800 
     92 C          -4.7844  -18.7811  -49.8744 C.2       16 UNK         0.5000 
     93 O          -5.7401  -18.6554  -49.1050 O.2       16 UNK        -0.5000 
     94 N          -4.7170  -18.2268  -51.0916 N.am      17 UNK        -0.5000 
     95 CA         -5.7519  -17.4924  -51.8303 C.3       17 UNK         0.1400 
     96 CB         -6.2355  -16.2351  -51.0839 C.3       17 UNK        -0.1800 
     97 C          -6.9355  -18.3699  -52.2827 C.2       17 UNK         0.5000 
     98 O          -7.3162  -18.3033  -53.4525 O.2       17 UNK        -0.5000 
     99 N          -7.4769  -19.1923  -51.3740 N.am      18 UNK        -0.5000 
    100 CA        -8.5657  -20.1381  -51.6304 C.3       18 UNK         0.1400 
    101 CB        -9.0184  -20.7720  -50.3064 C.3       18 UNK        -0.1800 
    102 C         -8.1834  -21.2187  -52.6584 C.2       18 UNK         0.5000 
    103 O         -8.9942  -21.5525  -53.5245 O.2       18 UNK        -0.5000 
    104 N         -6.9380  -21.7047  -52.5817 N.am      19 UNK        -0.5000 
    105 CA        -6.3114  -22.6114  -53.5414 C.3       19 UNK         0.1400 
    106 CB        -5.1051  -23.2875  -52.8675 C.3       19 UNK        -0.1800 
    107 C         -5.9262  -21.8860  -54.8487 C.2       19 UNK         0.5000 
    108 O         -4.7402  -21.7414  -55.1500 O.2       19 UNK        -0.5000 
    109 N         -6.9454  -21.4287  -55.5906 N.am      20 UNK        -0.5000 
    110 CA        -6.8894  -20.8328  -56.9315 C.3       20 UNK         0.1400 
    111 CB        -6.6142  -21.9333  -57.9767 C.3       20 UNK        -0.1800 
    112 C         -5.9079  -19.6469  -57.0460 C.2       20 UNK         0.5000 
    113 O         -5.0810  -19.6116  -57.9608 O.2       20 UNK        -0.5000 
    114 N         -5.9824  -18.7190  -56.0791 N.am      21 UNK        -0.5000 
    115 CA        -5.1344  -17.5261  -55.9409 C.3       21 UNK         0.1400 
    116 CB        -5.3960  -16.5362  -57.0957 C.3       21 UNK        -0.1800 
    117 C         -3.6314  -17.8428  -55.7609 C.2       21 UNK         0.5000 
    118 O         -2.7921  -16.9845  -56.0370 O.2       21 UNK        -0.5000 
    119 N         -3.3227  -19.0688  -55.3139 N.am      22 UNK        -0.5000 
    120 CA        -1.9753  -19.6565  -55.2193 C.3       22 UNK         0.1400 
    121 C         -1.3261  -19.9730  -56.6025 C.2       22 UNK         0.5000 
    122 N         -2.0769  -20.0127  -57.6987 N.am      22 UNK        -0.7600 
    123 O         -0.1253  -20.2165  -56.6872 O.2       22 UNK        -0.5000 
    124 C124       -1.0159  -18.8909  -54.2624 C.3       23 UNK        -0.0398 
    125 S125       -1.7214  -18.6682  -52.5949 S.3       23 UNK        -0.2404 
    126 C126       -0.7079  -17.2975  -51.9606 C.3       23 UNK        -0.0205 
    127 H127        3.5032  -14.7153  -46.0066 H         1 UNK         0.0600 
    128 H128        4.8068  -15.4033  -46.9816 H         1 UNK         0.0600 
    129 H129        3.5099  -16.4415  -46.3876 H         1 UNK         0.0600 
    130 H130        4.5523  -14.4907  -49.0184 H         1 UNK         0.3000 
    131 H131        2.3872  -15.3487  -50.6154 H         1 UNK         0.0600 
    132 H132        3.5662  -14.2631  -52.5222 H         1 UNK         0.0800 
    133 H133        4.6316  -13.4434  -51.4126 H         1 UNK         0.0800 
    134 H134        3.9955  -16.4571  -53.5833 H         1 UNK         0.0800 
    135 H135        4.9872  -17.7467  -52.9524 H         1 UNK         0.0800 
    136 H136        1.6371  -16.5222  -53.1196 H         1 UNK         0.1150 
    137 H137        0.0851  -19.0427  -50.0175 H         1 UNK         0.1150 
    138 H138        4.3168  -18.7492  -50.6245 H         1 UNK         0.1150 
    139 H139        1.6816  -20.8020  -49.1601 H         1 UNK         0.0800 
    140 H140        3.3914  -20.5866  -49.3283 H         1 UNK         0.0800 
    141 H141        0.2184  -19.1235  -47.3502 H         1 UNK         0.0800 
    142 H142        0.9288  -19.0730  -45.7622 H         1 UNK         0.0800 
    143 H143        0.6117  -21.5813  -47.4683 H         1 UNK         0.0600 
    144 H144        2.1773  -21.2243  -45.0522 H         1 UNK         0.3000 
    145 H145        2.7986  -24.7400  -44.6948 H         1 UNK         0.0600 
    146 H146        4.4219  -23.8798  -46.3896 H         1 UNK         0.0600 
    147 H147        4.5720  -22.3689  -45.5009 H         1 UNK         0.0600 
    148 H148        5.1240  -23.8810  -44.7796 H         1 UNK         0.0600 
    149 H149        3.6529  -22.4612  -43.1908 H         1 UNK         0.3000 
    150 H150        0.8940  -22.2583  -40.9779 H         1 UNK         0.0600 
    151 H151        2.5847  -22.7113  -39.2390 H         1 UNK         0.0600 
    152 H152        3.6855  -23.3983  -40.4347 H         1 UNK         0.0600 
    153 H153        2.1675  -24.2071  -40.0597 H         1 UNK         0.0600 
    154 H154        3.2976  -20.9096  -40.7607 H         1 UNK         0.3000 
    155 H155        3.9446  -18.9485  -42.1169 H         1 UNK         0.0600 
    156 H156        2.7249  -18.1048  -44.1089 H         1 UNK         0.0600 
    157 H157        3.0085  -16.8032  -42.9623 H         1 UNK         0.0600 
    158 H158        1.4111  -17.5345  -43.0893 H         1 UNK         0.0600 
    159 H159        1.6789  -17.7177  -40.6463 H         1 UNK         0.3000 
    160 H160        2.7982  -18.8533  -37.4866 H         1 UNK         0.0600 
    161 H161        4.1225  -16.7487  -37.7564 H         1 UNK         0.0600 
    162 H162        2.6332  -16.4528  -36.8733 H         1 UNK         0.0600 
    163 H163        2.7623  -15.9825  -38.5687 H         1 UNK         0.0600 
    164 H164        0.6275  -17.1854  -38.3621 H         1 UNK         0.3000 
    165 H165       -1.7643  -19.7613  -38.3461 H         1 UNK         0.0600 
    166 H166       -2.8378  -17.5862  -38.0314 H         1 UNK         0.0600 
    167 H167       -1.4946  -17.7198  -36.9108 H         1 UNK         0.0600 
    168 H168       -1.3429  -16.7202  -38.3518 H         1 UNK         0.0600 
    169 H169       -2.2698  -19.4746  -40.4736 H         1 UNK         0.3000 
    170 H170       -1.1228  -18.8584  -42.9915 H         1 UNK         0.0600 
    171 H171       -3.5247  -18.3251  -43.5898 H         1 UNK         0.0600 
    172 H172       -3.4295  -19.2680  -42.1193 H         1 UNK         0.0600 
    173 H173       -3.7308  -17.5347  -42.0292 H         1 UNK         0.0600 
    174 H174       -1.1378  -16.0216  -42.5800 H         1 UNK         0.3000 
    175 H175       -1.3421  -14.5292  -44.5089 H         1 UNK         0.0600 
    176 H176        1.4501  -15.7188  -44.9560 H         1 UNK         0.0600 
    177 H177        1.0860  -13.9964  -44.8689 H         1 UNK         0.0600 
    178 H178        0.8673  -15.0118  -43.4534 H         1 UNK         0.0600 
    179 H179        0.1087  -15.2246  -46.9270 H         1 UNK         0.3000 
    180 H180       -1.2454  -15.9032  -48.9129 H         1 UNK         0.0600 
    181 H181       -2.8096  -14.8054  -50.5221 H         1 UNK         0.0600 
    182 H182       -3.5568  -13.9108  -49.1973 H         1 UNK         0.0600 
    183 H183       -3.6648  -15.6618  -49.2475 H         1 UNK         0.0600 
    184 H184        0.2248  -14.3089  -49.1331 H         1 UNK         0.3000 
    185 H185        0.3381  -11.1699  -50.0593 H         1 UNK         0.0600 
    186 H186        0.9220  -11.4270  -47.0574 H         1 UNK         0.0600 
    187 H187        1.6823  -10.2687  -48.1497 H         1 UNK         0.0600 
    188 H188       -0.0373  -10.1621  -47.8163 H         1 UNK         0.0600 
    189 H189        2.2011  -12.8784  -48.5630 H         1 UNK         0.3000 
    190 H190       -0.0676  -21.3635  -44.0234 H         1 UNK         0.3000 
    191 H191       -2.9101  -21.2626  -44.1861 H         1 UNK         0.0600 
    192 H192       -1.2738  -22.7083  -42.0345 H         1 UNK         0.0600 
    193 H193       -2.8713  -22.0034  -41.8808 H         1 UNK         0.0600 
    194 H194       -1.4648  -20.9667  -42.0749 H         1 UNK         0.0600 
    195 H195       -0.6474  -24.0682  -43.9624 H         1 UNK         0.3000 
    196 H196       -2.5816  -26.1130  -44.2091 H         1 UNK         0.0600 
    197 H197       -0.5880  -27.5571  -44.6720 H         1 UNK         0.0600 
    198 H198       -0.3113  -26.4889  -43.3047 H         1 UNK         0.0600 
    199 H199        0.4112  -26.1215  -44.8695 H         1 UNK         0.0600 
    200 H200       -0.7116  -24.3838  -46.7154 H         1 UNK         0.3000 
    201 H201       -1.6338  -25.9279  -48.9435 H         1 UNK         0.0600 
    202 H202        0.4411  -24.5351  -48.9733 H         1 UNK         0.0600 
    203 H203       -0.5351  -23.0706  -48.8341 H         1 UNK         0.0600 
    204 H204       -0.6483  -24.0753  -50.2708 H         1 UNK         0.0600 
    205 H205       -3.2795  -23.6217  -47.0238 H         1 UNK         0.3000 
    206 H206       -5.1912  -22.5267  -47.0794 H         1 UNK         0.0600 
    207 H207       -7.0880  -23.3689  -48.4163 H         1 UNK         0.0600 
    208 H208       -6.0149  -24.3307  -49.4197 H         1 UNK         0.0600 
    209 H209       -6.2078  -24.7161  -47.7101 H         1 UNK         0.0600 
    210 H210       -3.3440  -21.0132  -47.8791 H         1 UNK         0.3000 
    211 H211       -3.0895  -20.0039  -50.3834 H         1 UNK         0.0600 
    212 H212       -2.9696  -18.4880  -47.7196 H         1 UNK         0.0600 
    213 H213       -2.2710  -17.9262  -49.2353 H         1 UNK         0.0600 
    214 H214       -1.6638  -19.3904  -48.4874 H         1 UNK         0.0600 
    215 H215       -3.8785  -18.4074  -51.6300 H         1 UNK         0.3000 
    216 H216       -5.2562  -17.1478  -52.7375 H         1 UNK         0.0600 
    217 H217       -6.9607  -15.6851  -51.6848 H         1 UNK         0.0600 
    218 H218       -5.4094  -15.5557  -50.8811 H         1 UNK         0.0600 
    219 H219       -6.7185  -16.4738  -50.1366 H         1 UNK         0.0600 
    220 H220       -7.0756  -19.1895  -50.4409 H         1 UNK         0.3000 
    221 H221       -9.4048  -19.5735  -52.0419 H         1 UNK         0.0600 
    222 H222       -8.2126  -21.3296  -49.8285 H         1 UNK         0.0600 
    223 H223       -9.3621  -20.0130  -49.6036 H         1 UNK         0.0600 
    224 H224       -9.8456  -21.4644  -50.4681 H         1 UNK         0.0600 
    225 H225       -6.3644  -21.4309  -51.7882 H         1 UNK         0.3000 
    226 H226       -7.0263  -23.3947  -53.8011 H         1 UNK         0.0600 
    227 H227       -5.4139  -23.8540  -51.9887 H         1 UNK         0.0600 
    228 H228       -4.6136  -23.9853  -53.5463 H         1 UNK         0.0600 
    229 H229       -4.3601  -22.5584  -52.5459 H         1 UNK         0.0600 
    230 H230       -7.8740  -21.5281  -55.1913 H         1 UNK         0.3000 
    231 H231       -7.8817  -20.4265  -57.1320 H         1 UNK         0.0600 
    232 H232       -5.6252  -22.3744  -57.8460 H         1 UNK         0.0600 
    233 H233       -7.3499  -22.7347  -57.9085 H         1 UNK         0.0600 
    234 H234       -6.6648  -21.5342  -58.9905 H         1 UNK         0.0600 
    235 H235       -6.6620  -18.8439  -55.3349 H         1 UNK         0.3000 
    236 H236       -5.4503  -17.0327  -55.0230 H         1 UNK         0.0600 
    237 H237       -5.0323  -16.9192  -58.0495 H         1 UNK         0.0600 
    238 H238       -6.4603  -16.3263  -57.2015 H         1 UNK         0.0600 
    239 H239       -4.8965  -15.5835  -56.9160 H         1 UNK         0.0600 
    240 H240       -4.0753  -19.7304  -55.1647 H         1 UNK         0.3000 
    241 H241       -2.1351  -20.6394  -54.7747 H         1 UNK         0.0600 
    242 H242       -1.6462  -20.2288  -58.5835 H         1 UNK         0.3800 
    243 H243       -3.0753  -19.8366  -57.6595 H         1 UNK         0.3800 
    244 H244       -0.0761  -19.4336  -54.1484 H         1 UNK         0.0800 
    245 H245       -0.7542  -17.9180  -54.6797 H         1 UNK         0.0800 
    246 H246       -1.1840  -16.8922  -51.0695 H         1 UNK         0.0800 
    247 H247       -0.6984  -16.4851  -52.6892 H         1 UNK         0.0800 
@<TRIPOS>BOND
     1    1    2 1    
     2    1  127 1    
     3    1  128 1    
     4    1  129 1    
     5    2    3 2    
     6    2    4 am   BACKBONE|DICT|INTERRES
     7    4    5 1    
     8    4  130 1    
     9    5    6 1    
    10    5   65 1    
    11    5  131 1    
    12    6    7 1    
    13    6  132 1    
    14    6  133 1    
    15    7    8 1    
    16    8    9 1    
    17    8  134 1    
    18    8  135 1    
    19    9   10 ar   
    20    9   14 ar   
    21   10   11 ar   
    22   10  136 1    
    23   11   12 ar   
    24   11  126 1    
    25   12   13 ar   
    26   12  137 1    
    27   13   14 ar   
    28   13   15 1    
    29   14  138 1    
    30   15   16 1    
    31   15  139 1    
    32   15  140 1    
    33   16   17 1    
    34   17   18 1    
    35   17  141 1    
    36   17  142 1    
    37   18   19 1    
    38   18   67 1    
    39   18  143 1    
    40   19   20 am   BACKBONE|DICT|INTERRES
    41   19  144 1    
    42   20   21 2    
    43   20   22 1    
    44   22   23 1    
    45   22   24 1    
    46   22  145 1    
    47   23  146 1    
    48   23  147 1    
    49   23  148 1    
    50   24   25 am   BACKBONE|DICT|INTERRES
    51   24  149 1    
    52   25   26 2    
    53   25   27 1    
    54   27   28 1    
    55   27   29 1    
    56   27  150 1    
    57   28  151 1    
    58   28  152 1    
    59   28  153 1    
    60   29   30 am   BACKBONE|DICT|INTERRES
    61   29  154 1    
    62   30   31 2    
    63   30   32 1    
    64   32   33 1    
    65   32   34 1    
    66   32  155 1    
    67   33  156 1    
    68   33  157 1    
    69   33  158 1    
    70   34   35 am   BACKBONE|DICT|INTERRES
    71   34  159 1    
    72   35   36 2    
    73   35   37 1    
    74   37   38 1    
    75   37   39 1    
    76   37  160 1    
    77   38  161 1    
    78   38  162 1    
    79   38  163 1    
    80   39   40 am   BACKBONE|DICT|INTERRES
    81   39  164 1    
    82   40   41 2    
    83   40   42 1    
    84   42   43 1    
    85   42   44 1    
    86   42  165 1    
    87   43  166 1    
    88   43  167 1    
    89   43  168 1    
    90   44   45 am   BACKBONE|DICT|INTERRES
    91   44  169 1    
    92   45   46 2    
    93   45   47 1    
    94   47   48 1    
    95   47   49 1    
    96   47  170 1    
    97   48  171 1    
    98   48  172 1    
    99   48  173 1    
   100   49   50 am   BACKBONE|DICT|INTERRES
   101   49  174 1    
   102   50   51 2    
   103   50   52 1    
   104   52   53 1    
   105   52   54 1    
   106   52  175 1    
   107   53  176 1    
   108   53  177 1    
   109   53  178 1    
   110   54   55 am   BACKBONE|DICT|INTERRES
   111   54  179 1    
   112   55   56 2    
   113   55   57 1    
   114   57   58 1    
   115   57   59 1    
   116   57  180 1    
   117   58  181 1    
   118   58  182 1    
   119   58  183 1    
   120   59   60 am   BACKBONE|DICT|INTERRES
   121   59  184 1    
   122   60   61 2    
   123   60   62 1    
   124   62   63 1    
   125   62   64 1    
   126   62  185 1    
   127   63  186 1    
   128   63  187 1    
   129   63  188 1    
   130   64   65 am   BACKBONE|DICT|INTERRES
   131   64  189 1    
   132   65   66 2    
   133   67   68 2    
   134   67   69 am   BACKBONE|DICT|INTERRES
   135   69   70 1    
   136   69  190 1    
   137   70   71 1    
   138   70   72 1    
   139   70  191 1    
   140   71  192 1    
   141   71  193 1    
   142   71  194 1    
   143   72   73 2    
   144   72   74 am   BACKBONE|DICT|INTERRES
   145   74   75 1    
   146   74  195 1    
   147   75   76 1    
   148   75   77 1    
   149   75  196 1    
   150   76  197 1    
   151   76  198 1    
   152   76  199 1    
   153   77   78 2    
   154   77   79 am   BACKBONE|DICT|INTERRES
   155   79   80 1    
   156   79  200 1    
   157   80   81 1    
   158   80   82 1    
   159   80  201 1    
   160   81  202 1    
   161   81  203 1    
   162   81  204 1    
   163   82   83 2    
   164   82   84 am   BACKBONE|DICT|INTERRES
   165   84   85 1    
   166   84  205 1    
   167   85   86 1    
   168   85   87 1    
   169   85  206 1    
   170   86  207 1    
   171   86  208 1    
   172   86  209 1    
   173   87   88 2    
   174   87   89 am   BACKBONE|DICT|INTERRES
   175   89   90 1    
   176   89  210 1    
   177   90   91 1    
   178   90   92 1    
   179   90  211 1    
   180   91  212 1    
   181   91  213 1    
   182   91  214 1    
   183   92   93 2    
   184   92   94 am   BACKBONE|DICT|INTERRES
   185   94   95 1    
   186   94  215 1    
   187   95   96 1    
   188   95   97 1    
   189   95  216 1    
   190   96  217 1    
   191   96  218 1    
   192   96  219 1    
   193   97   98 2    
   194   97   99 am   BACKBONE|DICT|INTERRES
   195   99  100 1    
   196   99  220 1    
   197  100  101 1    
   198  100  102 1    
   199  100  221 1    
   200  101  222 1    
   201  101  223 1    
   202  101  224 1    
   203  102  103 2    
   204  102  104 am   BACKBONE|DICT|INTERRES
   205  104  105 1    
   206  104  225 1    
   207  105  106 1    
   208  105  107 1    
   209  105  226 1    
   210  106  227 1    
   211  106  228 1    
   212  106  229 1    
   213  107  108 2    
   214  107  109 am   BACKBONE|DICT|INTERRES
   215  109  110 1    
   216  109  230 1    
   217  110  111 1    
   218  110  112 1    
   219  110  231 1    
   220  111  232 1    
   221  111  233 1    
   222  111  234 1    
   223  112  113 2    
   224  112  114 am   BACKBONE|DICT|INTERRES
   225  114  115 1    
   226  114  235 1    
   227  115  116 1    
   228  115  117 1    
   229  115  236 1    
   230  116  237 1    
   231  116  238 1    
   232  116  239 1    
   233  117  118 2    
   234  117  119 am   BACKBONE|DICT|INTERRES
   235  119  120 1    
   236  119  240 1    
   237  120  121 1    
   238  120  124 1    
   239  120  241 1    
   240  121  122 am   BACKBONE|DICT|INTERRES
   241  121  123 2    
   242  122  242 1    
   243  122  243 1    
   244  124  125 1    
   245  124  244 1    
   246  124  245 1    
   247  125  126 1    
   248  126  246 1    
   249  126  247 1    
@<TRIPOS>SUBSTRUCTURE
     1 UNK         1 GROUP             0       ****    0 ROOT    
