@<TRIPOS>MOLECULE
3R540
247   249    1
SMALL
USER_CHARGES


@<TRIPOS>ATOM
      1 CA         -1.4544  -14.8847  -46.3994 C.3       0 UNK        -0.1800 
      2 C          -0.7908  -13.6889  -47.0671 C.2       0 UNK         0.5000 
      3 O          -1.4537  -12.6905  -47.3463 O.2       0 UNK        -0.5000 
      4 N           0.5149  -13.7895  -47.3255 N.am      1 UNK        -0.5000 
      5 CA          1.3473  -12.7603  -47.9428 C.3       1 UNK         0.1400 
      6 C6          1.2434  -12.7602  -49.4925 C.3       23 UNK        -0.0398 
      7 S7          1.8126  -14.2970  -50.3046 S.3       23 UNK        -0.2404 
      8 C8          0.2437  -15.1904  -50.5314 C.3       23 UNK        -0.0205 
      9 C9          0.4891  -16.5806  -51.0936 C.ar      23 UNK        -0.0193 
     10 C10         0.2811  -16.8437  -52.4496 C.ar      23 UNK        -0.1150 
     11 C11         0.5253  -18.1185  -52.9759 C.ar      23 UNK        -0.0193 
     12 C12         0.9879  -19.1253  -52.1211 C.ar      23 UNK        -0.1150 
     13 C13         1.2118  -18.8779  -50.7625 C.ar      23 UNK        -0.0193 
     14 C14         0.9523  -17.5987  -50.2570 C.ar      23 UNK        -0.1150 
     15 C15         1.8138  -19.9836  -49.8939 C.3       23 UNK        -0.0205 
     16 S16         1.3753  -19.9058  -48.1229 S.3       23 UNK        -0.2404 
     17 C17        -0.3369  -20.5333  -48.1319 C.3       23 UNK        -0.0398 
     18 CA         -0.4690  -21.8712  -47.3649 C.3       11 UNK         0.1400 
     19 N          -0.0308  -21.7839  -45.9693 N.am      11 UNK        -0.5000 
     20 C           0.2919  -22.8488  -45.2244 C.2       10 UNK         0.5000 
     21 O           0.2148  -24.0092  -45.6289 O.2       10 UNK        -0.5000 
     22 CA          0.7450  -22.5806  -43.7805 C.3       10 UNK         0.1400 
     23 CB          2.1878  -22.0541  -43.7521 C.3       10 UNK        -0.1800 
     24 N          -0.1244  -21.6609  -43.0464 N.am      10 UNK        -0.5000 
     25 C          -1.4110  -21.8937  -42.7504 C.2       9 UNK         0.5000 
     26 O          -2.0496  -22.8531  -43.1820 O.2       9 UNK        -0.5000 
     27 CA         -2.0990  -20.8828  -41.8204 C.3       9 UNK         0.1400 
     28 CB         -1.5371  -20.9736  -40.3925 C.3       9 UNK        -0.1800 
     29 N          -1.9247  -19.5258  -42.3267 N.am      9 UNK        -0.5000 
     30 C          -2.8106  -18.8917  -43.1060 C.2       8 UNK         0.5000 
     31 O          -3.9229  -19.3399  -43.3822 O.2       8 UNK        -0.5000 
     32 CA         -2.3868  -17.5304  -43.6935 C.3       8 UNK         0.1400 
     33 CB         -2.9584  -16.3856  -42.8435 C.3       8 UNK        -0.1800 
     34 N          -0.9366  -17.3615  -43.8303 N.am      8 UNK        -0.5000 
     35 C          -0.1501  -18.1383  -44.5898 C.2       7 UNK         0.5000 
     36 O          -0.5711  -19.0751  -45.2650 O.2       7 UNK        -0.5000 
     37 CA          1.3644  -17.8762  -44.5442 C.3       7 UNK         0.1400 
     38 CB          1.7623  -16.8095  -45.5714 C.3       7 UNK        -0.1800 
     39 N           1.8587  -17.4929  -43.2209 N.am      7 UNK        -0.5000 
     40 C           1.7595  -18.2396  -42.1111 C.2       6 UNK         0.5000 
     41 O           1.1678  -19.3187  -42.0600 O.2       6 UNK        -0.5000 
     42 CA          2.4074  -17.6691  -40.8415 C.3       6 UNK         0.1400 
     43 CB          3.9376  -17.7994  -40.9007 C.3       6 UNK        -0.1800 
     44 N           2.0405  -16.2664  -40.6660 N.am      6 UNK        -0.5000 
     45 C           0.9436  -15.8509  -40.0184 C.2       5 UNK         0.5000 
     46 O           0.1732  -16.6045  -39.4227 O.2       5 UNK        -0.5000 
     47 CA          0.6440  -14.3387  -40.0491 C.3       5 UNK         0.1400 
     48 CB          1.2648  -13.6422  -38.8288 C.3       5 UNK        -0.1800 
     49 N           1.1076  -13.6717  -41.2676 N.am      5 UNK        -0.5000 
     50 C           0.6412  -13.9243  -42.4977 C.2       4 UNK         0.5000 
     51 O          -0.2307  -14.7552  -42.7448 O.2       4 UNK        -0.5000 
     52 CA          1.2949  -13.1577  -43.6580 C.3       4 UNK         0.1400 
     53 CB          0.6014  -11.8069  -43.8822 C.3       4 UNK        -0.1800 
     54 N           2.7375  -12.9476  -43.5233 N.am      4 UNK        -0.5000 
     55 C           3.6637  -13.8988  -43.3385 C.2       3 UNK         0.5000 
     56 O           3.3957  -15.0733  -43.0765 O.2       3 UNK        -0.5000 
     57 CA          5.1296  -13.4574  -43.5372 C.3       3 UNK         0.1400 
     58 CB          6.1328  -14.5678  -43.1773 C.3       3 UNK        -0.1800 
     59 N           5.3460  -13.0560  -44.9288 N.am      3 UNK        -0.5000 
     60 C           4.9533  -11.8941  -45.4670 C.2       2 UNK         0.5000 
     61 O           4.5059  -10.9570  -44.8027 O.2       2 UNK        -0.5000 
     62 CA          4.9738  -11.7762  -47.0043 C.3       2 UNK         0.1400 
     63 CB          5.9381  -12.7607  -47.7045 C.3       2 UNK        -0.1800 
     64 N           3.6112  -11.8904  -47.5426 N.am      2 UNK        -0.5000 
     65 C           2.7849  -12.9413  -47.4188 C.2       1 UNK         0.5000 
     66 O           3.1060  -14.0141  -46.8989 O.2       1 UNK        -0.5000 
     67 C          -1.9029  -22.4196  -47.4623 C.2       11 UNK         0.5000 
     68 O          -2.2258  -23.0748  -48.4519 O.2       11 UNK        -0.5000 
     69 N          -2.7341  -22.1668  -46.4414 N.am      12 UNK        -0.5000 
     70 CA         -4.0852  -22.7155  -46.3361 C.3       12 UNK         0.1400 
     71 CB         -4.8718  -21.9682  -45.2508 C.3       12 UNK        -0.1800 
     72 C          -4.0607  -24.2296  -46.0675 C.2       12 UNK         0.5000 
     73 O          -4.7796  -24.9721  -46.7356 O.2       12 UNK        -0.5000 
     74 N          -3.1951  -24.6640  -45.1395 N.am      13 UNK        -0.5000 
     75 CA         -2.9567  -26.0713  -44.8100 C.3       13 UNK         0.1400 
     76 CB         -2.0500  -26.1596  -43.5731 C.3       13 UNK        -0.1800 
     77 C          -2.3560  -26.8688  -45.9830 C.2       13 UNK         0.5000 
     78 O          -2.7438  -28.0173  -46.1998 O.2       13 UNK        -0.5000 
     79 N          -1.4468  -26.2351  -46.7363 N.am      14 UNK        -0.5000 
     80 CA         -0.8394  -26.7859  -47.9499 C.3       14 UNK         0.1400 
     81 CB          0.4292  -25.9807  -48.2736 C.3       14 UNK        -0.1800 
     82 C          -1.7831  -26.7920  -49.1707 C.2       14 UNK         0.5000 
     83 O          -1.4704  -27.4570  -50.1589 O.2       14 UNK        -0.5000 
     84 N          -2.8882  -26.0325  -49.0977 N.am      15 UNK        -0.5000 
     85 CA         -3.8379  -25.7309  -50.1764 C.3       15 UNK         0.1400 
     86 CB         -4.6127  -26.9927  -50.6080 C.3       15 UNK        -0.1800 
     87 C          -3.1692  -24.9892  -51.3555 C.2       15 UNK         0.5000 
     88 O          -3.5042  -25.2254  -52.5160 O.2       15 UNK        -0.5000 
     89 N          -2.2239  -24.1068  -51.0158 N.am      16 UNK        -0.5000 
     90 CA         -1.4226  -23.2997  -51.9309 C.3       16 UNK         0.1400 
     91 CB          0.0397  -23.3592  -51.4613 C.3       16 UNK        -0.1800 
     92 C          -1.8991  -21.8363  -51.9850 C.2       16 UNK         0.5000 
     93 O          -1.5003  -21.1161  -52.8978 O.2       16 UNK        -0.5000 
     94 N          -2.7108  -21.4199  -51.0016 N.am      17 UNK        -0.5000 
     95 CA         -3.2320  -20.0636  -50.8143 C.3       17 UNK         0.1400 
     96 CB         -3.9552  -20.0127  -49.4554 C.3       17 UNK        -0.1800 
     97 C          -4.1714  -19.5798  -51.9378 C.2       17 UNK         0.5000 
     98 O          -4.5154  -20.3377  -52.8500 O.2       17 UNK        -0.5000 
     99 N          -4.5937  -18.3116  -51.8362 N.am      18 UNK        -0.5000 
    100 CA        -5.6098  -17.6842  -52.6837 C.3       18 UNK         0.1400 
    101 CB        -5.8329  -16.2383  -52.2188 C.3       18 UNK        -0.1800 
    102 C         -6.9320  -18.4726  -52.6787 C.2       18 UNK         0.5000 
    103 O         -7.3593  -18.9412  -51.6220 O.2       18 UNK        -0.5000 
    104 N         -7.5106  -18.6494  -53.8725 N.am      19 UNK        -0.5000 
    105 CA        -8.6791  -19.4752  -54.2109 C.3       19 UNK         0.1400 
    106 CB        -9.9281  -19.0643  -53.4067 C.3       19 UNK        -0.1800 
    107 C         -8.4343  -20.9986  -54.1334 C.2       19 UNK         0.5000 
    108 O         -9.0637  -21.7354  -54.8934 O.2       19 UNK        -0.5000 
    109 N         -7.5231  -21.4527  -53.2609 N.am      20 UNK        -0.5000 
    110 CA        -7.0934  -22.8484  -53.1575 C.3       20 UNK         0.1400 
    111 CB        -6.3819  -23.0809  -51.8145 C.3       20 UNK        -0.1800 
    112 C         -6.2013  -23.2567  -54.3446 C.2       20 UNK         0.5000 
    113 O         -6.4181  -24.3206  -54.9265 O.2       20 UNK        -0.5000 
    114 N         -5.2533  -22.3833  -54.7089 N.am      21 UNK        -0.5000 
    115 CA        -4.3883  -22.5361  -55.8798 C.3       21 UNK         0.1400 
    116 CB        -3.1805  -23.4259  -55.5478 C.3       21 UNK        -0.1800 
    117 C         -3.9218  -21.1837  -56.4400 C.2       21 UNK         0.5000 
    118 O         -3.7836  -21.0603  -57.6573 O.2       21 UNK        -0.5000 
    119 N         -3.6976  -20.1913  -55.5671 N.am      22 UNK        -0.5000 
    120 CA        -3.2317  -18.8410  -55.9347 C.3       22 UNK         0.1400 
    121 C         -4.3416  -17.8976  -56.4942 C.2       22 UNK         0.5000 
    122 N         -5.5831  -18.3441  -56.6514 N.am      22 UNK        -0.7600 
    123 O         -4.0765  -16.7376  -56.7946 O.2       22 UNK        -0.5000 
    124 C124       -2.4231  -18.1802  -54.7788 C.3       23 UNK        -0.0398 
    125 S125       -0.8687  -17.4189  -55.3513 S.3       23 UNK        -0.2404 
    126 C126        0.3771  -18.4238  -54.4685 C.3       23 UNK        -0.0205 
    127 H127       -0.9179  -15.8094  -46.6113 H         1 UNK         0.0600 
    128 H128       -2.4771  -15.0027  -46.7573 H         1 UNK         0.0600 
    129 H129       -1.4837  -14.7408  -45.3197 H         1 UNK         0.0600 
    130 H130        1.0461  -14.6055  -47.0480 H         1 UNK         0.3000 
    131 H131        1.0076  -11.7885  -47.5777 H         1 UNK         0.0600 
    132 H132        0.2137  -12.5590  -49.7910 H         1 UNK         0.0800 
    133 H133        1.8260  -11.9339  -49.9021 H         1 UNK         0.0800 
    134 H134       -0.2770  -15.2765  -49.5777 H         1 UNK         0.0800 
    135 H135       -0.4092  -14.6176  -51.1917 H         1 UNK         0.0800 
    136 H136       -0.0497  -16.0433  -53.0953 H         1 UNK         0.1150 
    137 H137        1.2013  -20.1052  -52.5251 H         1 UNK         0.1150 
    138 H138        1.1415  -17.3749  -49.2170 H         1 UNK         0.1150 
    139 H139        1.5404  -20.9650  -50.2825 H         1 UNK         0.0800 
    140 H140        2.8992  -19.9163  -49.9754 H         1 UNK         0.0800 
    141 H141       -0.6612  -20.6545  -49.1661 H         1 UNK         0.0800 
    142 H142       -0.9855  -19.7687  -47.7034 H         1 UNK         0.0800 
    143 H143        0.1769  -22.5933  -47.8683 H         1 UNK         0.0600 
    144 H144       -0.0092  -20.8502  -45.5673 H         1 UNK         0.3000 
    145 H145        0.7269  -23.5360  -43.2518 H         1 UNK         0.0600 
    146 H146        2.5470  -21.9434  -42.7288 H         1 UNK         0.0600 
    147 H147        2.8647  -22.7403  -44.2627 H         1 UNK         0.0600 
    148 H148        2.2726  -21.0841  -44.2419 H         1 UNK         0.0600 
    149 H149        0.3239  -20.8315  -42.6635 H         1 UNK         0.3000 
    150 H150       -3.1602  -21.1368  -41.7751 H         1 UNK         0.0600 
    151 H151       -1.6472  -21.9830  -39.9941 H         1 UNK         0.0600 
    152 H152       -2.0675  -20.2991  -39.7201 H         1 UNK         0.0600 
    153 H153       -0.4778  -20.7178  -40.3513 H         1 UNK         0.0600 
    154 H154       -1.0164  -19.1030  -42.1832 H         1 UNK         0.3000 
    155 H155       -2.8210  -17.4619  -44.6930 H         1 UNK         0.0600 
    156 H156       -2.4973  -16.3518  -41.8555 H         1 UNK         0.0600 
    157 H157       -2.7980  -15.4199  -43.3220 H         1 UNK         0.0600 
    158 H158       -4.0341  -16.4986  -42.7021 H         1 UNK         0.0600 
    159 H159       -0.5246  -16.5833  -43.3224 H         1 UNK         0.3000 
    160 H160        1.8635  -18.8061  -44.8212 H         1 UNK         0.0600 
    161 H161        2.8435  -16.6732  -45.6035 H         1 UNK         0.0600 
    162 H162        1.3130  -15.8479  -45.3344 H         1 UNK         0.0600 
    163 H163        1.4394  -17.0894  -46.5749 H         1 UNK         0.0600 
    164 H164        2.3726  -16.6163  -43.1694 H         1 UNK         0.3000 
    165 H165        2.0550  -18.2544  -39.9893 H         1 UNK         0.0600 
    166 H166        4.3979  -17.4358  -39.9819 H         1 UNK         0.0600 
    167 H167        4.2344  -18.8418  -41.0228 H         1 UNK         0.0600 
    168 H168        4.3646  -17.2377  -41.7322 H         1 UNK         0.0600 
    169 H169        2.5840  -15.5904  -41.1888 H         1 UNK         0.3000 
    170 H170       -0.4403  -14.2195  -39.9962 H         1 UNK         0.0600 
    171 H171        2.3537  -13.7048  -38.8406 H         1 UNK         0.0600 
    172 H172        0.9884  -12.5883  -38.7925 H         1 UNK         0.0600 
    173 H173        0.9196  -14.0994  -37.9004 H         1 UNK         0.0600 
    174 H174        1.8402  -12.9850  -41.1637 H         1 UNK         0.3000 
    175 H175        1.1483  -13.7537  -44.5572 H         1 UNK         0.0600 
    176 H176        0.9815  -11.3131  -44.7769 H         1 UNK         0.0600 
    177 H177        0.7491  -11.1334  -43.0373 H         1 UNK         0.0600 
    178 H178       -0.4733  -11.9370  -44.0177 H         1 UNK         0.0600 
    179 H179        3.0785  -12.0229  -43.7618 H         1 UNK         0.3000 
    180 H180        5.3162  -12.6066  -42.8787 H         1 UNK         0.0600 
    181 H181        6.0056  -15.4478  -43.8091 H         1 UNK         0.0600 
    182 H182        6.0078  -14.8863  -42.1416 H         1 UNK         0.0600 
    183 H183        7.1603  -14.2211  -43.2886 H         1 UNK         0.0600 
    184 H184        5.6208  -13.7930  -45.5622 H         1 UNK         0.3000 
    185 H185        5.3174  -10.7656  -47.2300 H         1 UNK         0.0600 
    186 H186        5.6457  -13.8029  -47.5761 H         1 UNK         0.0600 
    187 H187        5.9790  -12.5639  -48.7758 H         1 UNK         0.0600 
    188 H188        6.9529  -12.6524  -47.3196 H         1 UNK         0.0600 
    189 H189        3.2504  -11.0442  -47.9609 H         1 UNK         0.3000 
    190 H190       -2.3884  -21.6398  -45.6524 H         1 UNK         0.3000 
    191 H191       -4.5944  -22.5540  -47.2889 H         1 UNK         0.0600 
    192 H192       -4.9488  -20.9062  -45.4843 H         1 UNK         0.0600 
    193 H193       -5.8875  -22.3567  -45.1679 H         1 UNK         0.0600 
    194 H194       -4.4042  -22.0616  -44.2706 H         1 UNK         0.0600 
    195 H195       -2.6700  -23.9811  -44.5992 H         1 UNK         0.3000 
    196 H196       -3.9188  -26.5231  -44.5602 H         1 UNK         0.0600 
    197 H197       -1.8638  -27.1981  -43.2967 H         1 UNK         0.0600 
    198 H198       -2.5089  -25.6711  -42.7134 H         1 UNK         0.0600 
    199 H199       -1.0831  -25.6863  -43.7483 H         1 UNK         0.0600 
    200 H200       -1.1203  -25.3210  -46.4398 H         1 UNK         0.3000 
    201 H201       -0.5478  -27.8197  -47.7536 H         1 UNK         0.0600 
    202 H202        1.1349  -26.0033  -47.4430 H         1 UNK         0.0600 
    203 H203        0.1964  -24.9376  -48.4885 H         1 UNK         0.0600 
    204 H204        0.9418  -26.3879  -49.1460 H         1 UNK         0.0600 
    205 H205       -3.0506  -25.5321  -48.2338 H         1 UNK         0.3000 
    206 H206       -4.5604  -25.0322  -49.7521 H         1 UNK         0.0600 
    207 H207       -5.0740  -27.4829  -49.7507 H         1 UNK         0.0600 
    208 H208       -5.4118  -26.7394  -51.3056 H         1 UNK         0.0600 
    209 H209       -3.9664  -27.7179  -51.1028 H         1 UNK         0.0600 
    210 H210       -2.0693  -23.9411  -50.0235 H         1 UNK         0.3000 
    211 H211       -1.4728  -23.7129  -52.9388 H         1 UNK         0.0600 
    212 H212        0.1515  -22.9743  -50.4473 H         1 UNK         0.0600 
    213 H213        0.6868  -22.7707  -52.1131 H         1 UNK         0.0600 
    214 H214        0.4131  -24.3835  -51.4711 H         1 UNK         0.0600 
    215 H215       -2.9728  -22.0976  -50.2994 H         1 UNK         0.3000 
    216 H216       -2.3796  -19.3813  -50.7873 H         1 UNK         0.0600 
    217 H217       -4.3784  -19.0284  -49.2532 H         1 UNK         0.0600 
    218 H218       -3.2743  -20.2265  -48.6351 H         1 UNK         0.0600 
    219 H219       -4.7727  -20.7336  -49.4102 H         1 UNK         0.0600 
    220 H220       -4.2825  -17.7623  -51.0492 H         1 UNK         0.3000 
    221 H221       -5.2258  -17.6614  -53.7027 H         1 UNK         0.0600 
    222 H222       -6.1944  -16.1980  -51.1904 H         1 UNK         0.0600 
    223 H223       -4.9113  -15.6585  -52.2752 H         1 UNK         0.0600 
    224 H224       -6.5705  -15.7359  -52.8460 H         1 UNK         0.0600 
    225 H225       -7.0569  -18.2281  -54.6717 H         1 UNK         0.3000 
    226 H226       -8.8879  -19.2566  -55.2594 H         1 UNK         0.0600 
    227 H227      -10.1143  -17.9933  -53.4854 H         1 UNK         0.0600 
    228 H228      -10.8145  -19.5768  -53.7824 H         1 UNK         0.0600 
    229 H229       -9.8370  -19.3142  -52.3495 H         1 UNK         0.0600 
    230 H230       -7.0694  -20.7828  -52.6518 H         1 UNK         0.3000 
    231 H231       -7.9842  -23.4800  -53.1743 H         1 UNK         0.0600 
    232 H232       -5.4431  -22.5323  -51.7461 H         1 UNK         0.0600 
    233 H233       -6.1521  -24.1384  -51.6834 H         1 UNK         0.0600 
    234 H234       -7.0094  -22.7786  -50.9761 H         1 UNK         0.0600 
    235 H235       -5.1232  -21.5515  -54.1398 H         1 UNK         0.3000 
    236 H236       -4.9626  -23.0202  -56.6728 H         1 UNK         0.0600 
    237 H237       -3.4912  -24.4018  -55.1749 H         1 UNK         0.0600 
    238 H238       -2.5658  -23.5958  -56.4324 H         1 UNK         0.0600 
    239 H239       -2.5475  -22.9604  -54.7948 H         1 UNK         0.0600 
    240 H240       -3.8309  -20.3556  -54.5736 H         1 UNK         0.3000 
    241 H241       -2.5483  -18.9803  -56.7744 H         1 UNK         0.0600 
    242 H242       -5.7892  -19.3197  -56.5140 H         1 UNK         0.3800 
    243 H243       -6.2707  -17.7328  -57.0640 H         1 UNK         0.3800 
    244 H244       -2.9993  -17.4158  -54.2570 H         1 UNK         0.0800 
    245 H245       -2.1736  -18.9141  -54.0147 H         1 UNK         0.0800 
    246 H246        0.1407  -19.4794  -54.6152 H         1 UNK         0.0800 
    247 H247        1.3454  -18.2584  -54.9421 H         1 UNK         0.0800 
@<TRIPOS>BOND
     1    1    2 1    
     2    1  127 1    
     3    1  128 1    
     4    1  129 1    
     5    2    3 2    
     6    2    4 am   BACKBONE|DICT|INTERRES
     7    4    5 1    
     8    4  130 1    
     9    5    6 1    
    10    5   65 1    
    11    5  131 1    
    12    6    7 1    
    13    6  132 1    
    14    6  133 1    
    15    7    8 1    
    16    8    9 1    
    17    8  134 1    
    18    8  135 1    
    19    9   10 ar   
    20    9   14 ar   
    21   10   11 ar   
    22   10  136 1    
    23   11   12 ar   
    24   11  126 1    
    25   12   13 ar   
    26   12  137 1    
    27   13   14 ar   
    28   13   15 1    
    29   14  138 1    
    30   15   16 1    
    31   15  139 1    
    32   15  140 1    
    33   16   17 1    
    34   17   18 1    
    35   17  141 1    
    36   17  142 1    
    37   18   19 1    
    38   18   67 1    
    39   18  143 1    
    40   19   20 am   BACKBONE|DICT|INTERRES
    41   19  144 1    
    42   20   21 2    
    43   20   22 1    
    44   22   23 1    
    45   22   24 1    
    46   22  145 1    
    47   23  146 1    
    48   23  147 1    
    49   23  148 1    
    50   24   25 am   BACKBONE|DICT|INTERRES
    51   24  149 1    
    52   25   26 2    
    53   25   27 1    
    54   27   28 1    
    55   27   29 1    
    56   27  150 1    
    57   28  151 1    
    58   28  152 1    
    59   28  153 1    
    60   29   30 am   BACKBONE|DICT|INTERRES
    61   29  154 1    
    62   30   31 2    
    63   30   32 1    
    64   32   33 1    
    65   32   34 1    
    66   32  155 1    
    67   33  156 1    
    68   33  157 1    
    69   33  158 1    
    70   34   35 am   BACKBONE|DICT|INTERRES
    71   34  159 1    
    72   35   36 2    
    73   35   37 1    
    74   37   38 1    
    75   37   39 1    
    76   37  160 1    
    77   38  161 1    
    78   38  162 1    
    79   38  163 1    
    80   39   40 am   BACKBONE|DICT|INTERRES
    81   39  164 1    
    82   40   41 2    
    83   40   42 1    
    84   42   43 1    
    85   42   44 1    
    86   42  165 1    
    87   43  166 1    
    88   43  167 1    
    89   43  168 1    
    90   44   45 am   BACKBONE|DICT|INTERRES
    91   44  169 1    
    92   45   46 2    
    93   45   47 1    
    94   47   48 1    
    95   47   49 1    
    96   47  170 1    
    97   48  171 1    
    98   48  172 1    
    99   48  173 1    
   100   49   50 am   BACKBONE|DICT|INTERRES
   101   49  174 1    
   102   50   51 2    
   103   50   52 1    
   104   52   53 1    
   105   52   54 1    
   106   52  175 1    
   107   53  176 1    
   108   53  177 1    
   109   53  178 1    
   110   54   55 am   BACKBONE|DICT|INTERRES
   111   54  179 1    
   112   55   56 2    
   113   55   57 1    
   114   57   58 1    
   115   57   59 1    
   116   57  180 1    
   117   58  181 1    
   118   58  182 1    
   119   58  183 1    
   120   59   60 am   BACKBONE|DICT|INTERRES
   121   59  184 1    
   122   60   61 2    
   123   60   62 1    
   124   62   63 1    
   125   62   64 1    
   126   62  185 1    
   127   63  186 1    
   128   63  187 1    
   129   63  188 1    
   130   64   65 am   BACKBONE|DICT|INTERRES
   131   64  189 1    
   132   65   66 2    
   133   67   68 2    
   134   67   69 am   BACKBONE|DICT|INTERRES
   135   69   70 1    
   136   69  190 1    
   137   70   71 1    
   138   70   72 1    
   139   70  191 1    
   140   71  192 1    
   141   71  193 1    
   142   71  194 1    
   143   72   73 2    
   144   72   74 am   BACKBONE|DICT|INTERRES
   145   74   75 1    
   146   74  195 1    
   147   75   76 1    
   148   75   77 1    
   149   75  196 1    
   150   76  197 1    
   151   76  198 1    
   152   76  199 1    
   153   77   78 2    
   154   77   79 am   BACKBONE|DICT|INTERRES
   155   79   80 1    
   156   79  200 1    
   157   80   81 1    
   158   80   82 1    
   159   80  201 1    
   160   81  202 1    
   161   81  203 1    
   162   81  204 1    
   163   82   83 2    
   164   82   84 am   BACKBONE|DICT|INTERRES
   165   84   85 1    
   166   84  205 1    
   167   85   86 1    
   168   85   87 1    
   169   85  206 1    
   170   86  207 1    
   171   86  208 1    
   172   86  209 1    
   173   87   88 2    
   174   87   89 am   BACKBONE|DICT|INTERRES
   175   89   90 1    
   176   89  210 1    
   177   90   91 1    
   178   90   92 1    
   179   90  211 1    
   180   91  212 1    
   181   91  213 1    
   182   91  214 1    
   183   92   93 2    
   184   92   94 am   BACKBONE|DICT|INTERRES
   185   94   95 1    
   186   94  215 1    
   187   95   96 1    
   188   95   97 1    
   189   95  216 1    
   190   96  217 1    
   191   96  218 1    
   192   96  219 1    
   193   97   98 2    
   194   97   99 am   BACKBONE|DICT|INTERRES
   195   99  100 1    
   196   99  220 1    
   197  100  101 1    
   198  100  102 1    
   199  100  221 1    
   200  101  222 1    
   201  101  223 1    
   202  101  224 1    
   203  102  103 2    
   204  102  104 am   BACKBONE|DICT|INTERRES
   205  104  105 1    
   206  104  225 1    
   207  105  106 1    
   208  105  107 1    
   209  105  226 1    
   210  106  227 1    
   211  106  228 1    
   212  106  229 1    
   213  107  108 2    
   214  107  109 am   BACKBONE|DICT|INTERRES
   215  109  110 1    
   216  109  230 1    
   217  110  111 1    
   218  110  112 1    
   219  110  231 1    
   220  111  232 1    
   221  111  233 1    
   222  111  234 1    
   223  112  113 2    
   224  112  114 am   BACKBONE|DICT|INTERRES
   225  114  115 1    
   226  114  235 1    
   227  115  116 1    
   228  115  117 1    
   229  115  236 1    
   230  116  237 1    
   231  116  238 1    
   232  116  239 1    
   233  117  118 2    
   234  117  119 am   BACKBONE|DICT|INTERRES
   235  119  120 1    
   236  119  240 1    
   237  120  121 1    
   238  120  124 1    
   239  120  241 1    
   240  121  122 am   BACKBONE|DICT|INTERRES
   241  121  123 2    
   242  122  242 1    
   243  122  243 1    
   244  124  125 1    
   245  124  244 1    
   246  124  245 1    
   247  125  126 1    
   248  126  246 1    
   249  126  247 1    
@<TRIPOS>SUBSTRUCTURE
     1 UNK         1 GROUP             0       ****    0 ROOT    
