@<TRIPOS>MOLECULE
3R540
247   249    1
SMALL
USER_CHARGES


@<TRIPOS>ATOM
      1 CA          6.7631  -10.1139  -48.2811 C.3       0 UNK        -0.1800 
      2 C           5.7286  -11.2178  -48.1213 C.2       0 UNK         0.5000 
      3 O           4.5317  -10.9586  -48.2523 O.2       0 UNK        -0.5000 
      4 N           6.1788  -12.4447  -47.8194 N.am      1 UNK        -0.5000 
      5 CA          5.3490  -13.6485  -47.6576 C.3       1 UNK         0.1400 
      6 C6          4.6922  -14.0734  -49.0010 C.3       23 UNK        -0.0398 
      7 S7          4.3135  -15.8530  -49.0831 S.3       23 UNK        -0.2404 
      8 C8          3.1580  -15.9176  -50.4902 C.3       23 UNK        -0.0205 
      9 C9          2.0887  -16.9770  -50.2715 C.ar      23 UNK        -0.0193 
     10 C10         0.8604  -16.6204  -49.7070 C.ar      23 UNK        -0.1150 
     11 C11        -0.1231  -17.5852  -49.4733 C.ar      23 UNK        -0.0193 
     12 C12         0.1293  -18.9160  -49.8167 C.ar      23 UNK        -0.1150 
     13 C13         1.3535  -19.2892  -50.3805 C.ar      23 UNK        -0.0193 
     14 C14         2.3279  -18.3128  -50.6122 C.ar      23 UNK        -0.1150 
     15 C15         1.6157  -20.7493  -50.7324 C.3       23 UNK        -0.0205 
     16 S16         2.7912  -21.5696  -49.5967 S.3       23 UNK        -0.2404 
     17 C17         2.0344  -21.3028  -47.9536 C.3       23 UNK        -0.0398 
     18 CA          1.2239  -22.4752  -47.3584 C.3       11 UNK         0.1400 
     19 N           0.7380  -22.1287  -46.0168 N.am      11 UNK        -0.5000 
     20 C           0.1615  -22.9879  -45.1668 C.2       10 UNK         0.5000 
     21 O           0.0120  -24.1859  -45.4030 O.2       10 UNK        -0.5000 
     22 CA         -0.3876  -22.4006  -43.8535 C.3       10 UNK         0.1400 
     23 CB          0.7292  -22.2895  -42.8066 C.3       10 UNK        -0.1800 
     24 N          -1.0602  -21.1037  -44.0101 N.am      10 UNK        -0.5000 
     25 C          -2.1494  -20.9107  -44.7738 C.2       9 UNK         0.5000 
     26 O          -2.6051  -21.7891  -45.5066 O.2       9 UNK        -0.5000 
     27 CA         -2.8754  -19.5513  -44.7114 C.3       9 UNK         0.1400 
     28 CB         -4.4068  -19.7285  -44.8314 C.3       9 UNK        -0.1800 
     29 N          -2.5344  -18.8087  -43.4987 N.am      9 UNK        -0.5000 
     30 C          -2.7924  -17.5173  -43.2659 C.2       8 UNK         0.5000 
     31 O          -3.4196  -16.7857  -44.0329 O.2       8 UNK        -0.5000 
     32 CA         -2.2455  -16.9290  -41.9521 C.3       8 UNK         0.1400 
     33 CB         -2.9415  -17.5346  -40.7166 C.3       8 UNK        -0.1800 
     34 N          -0.7825  -16.9946  -41.8457 N.am      8 UNK        -0.5000 
     35 C           0.0034  -18.0733  -41.7221 C.2       7 UNK         0.5000 
     36 O          -0.4126  -19.2332  -41.6715 O.2       7 UNK        -0.5000 
     37 CA          1.5155  -17.7778  -41.7089 C.3       7 UNK         0.1400 
     38 CB          2.3658  -18.9577  -41.1945 C.3       7 UNK        -0.1800 
     39 N           1.9714  -17.3203  -43.0263 N.am      7 UNK        -0.5000 
     40 C           1.9371  -18.0084  -44.1783 C.2       6 UNK         0.5000 
     41 O           1.5744  -19.1833  -44.2796 O.2       6 UNK        -0.5000 
     42 CA          2.3449  -17.2122  -45.4364 C.3       6 UNK         0.1400 
     43 CB          2.3449  -18.0858  -46.6968 C.3       6 UNK        -0.1800 
     44 N           1.5146  -16.0231  -45.6593 N.am      6 UNK        -0.5000 
     45 C           0.1732  -15.9772  -45.7066 C.2       5 UNK         0.5000 
     46 O          -0.5502  -16.9636  -45.5891 O.2       5 UNK        -0.5000 
     47 CA         -0.4837  -14.6064  -45.9195 C.3       5 UNK         0.1400 
     48 CB         -0.7046  -13.9114  -44.5675 C.3       5 UNK        -0.1800 
     49 N           0.3147  -13.7399  -46.7881 N.am      5 UNK        -0.5000 
     50 C          -0.1344  -13.1635  -47.9090 C.2       4 UNK         0.5000 
     51 O          -1.2758  -13.3155  -48.3476 O.2       4 UNK        -0.5000 
     52 CA          0.8708  -12.2664  -48.6633 C.3       4 UNK         0.1400 
     53 CB          0.2285  -11.4740  -49.8203 C.3       4 UNK        -0.1800 
     54 N           1.6235  -11.3663  -47.7816 N.am      4 UNK        -0.5000 
     55 C           1.1317  -10.4442  -46.9393 C.2       3 UNK         0.5000 
     56 O          -0.0682  -10.2004  -46.7995 O.2       3 UNK        -0.5000 
     57 CA          2.1864   -9.6777  -46.1137 C.3       3 UNK         0.1400 
     58 CB          1.5790   -8.6918  -45.0927 C.3       3 UNK        -0.1800 
     59 N           3.1425  -10.5921  -45.4788 N.am      3 UNK        -0.5000 
     60 C           2.8887  -11.5124  -44.5353 C.2       2 UNK         0.5000 
     61 O           1.8042  -11.6356  -43.9668 O.2       2 UNK        -0.5000 
     62 CA          4.0519  -12.4740  -44.1994 C.3       2 UNK         0.1400 
     63 CB          3.5966  -13.7153  -43.4026 C.3       2 UNK        -0.1800 
     64 N           4.8181  -12.8707  -45.3894 N.am      2 UNK        -0.5000 
     65 C           4.3510  -13.5032  -46.4786 C.2       1 UNK         0.5000 
     66 O           3.1884  -13.9007  -46.5808 O.2       1 UNK        -0.5000 
     67 C           0.0680  -22.9113  -48.2839 C.2       11 UNK         0.5000 
     68 O           0.2024  -23.9003  -49.0036 O.2       11 UNK        -0.5000 
     69 N          -1.0580  -22.1863  -48.2244 N.am      12 UNK        -0.5000 
     70 CA         -2.2632  -22.4770  -48.9994 C.3       12 UNK         0.1400 
     71 CB         -3.2351  -21.2934  -48.8896 C.3       12 UNK        -0.1800 
     72 C          -2.9261  -23.7919  -48.5536 C.2       12 UNK         0.5000 
     73 O          -3.3283  -24.5901  -49.3995 O.2       12 UNK        -0.5000 
     74 N          -2.9843  -24.0149  -47.2341 N.am      13 UNK        -0.5000 
     75 CA         -3.4604  -25.2509  -46.6168 C.3       13 UNK         0.1400 
     76 CB         -3.5520  -25.0640  -45.0955 C.3       13 UNK        -0.1800 
     77 C          -2.5864  -26.4661  -46.9781 C.2       13 UNK         0.5000 
     78 O          -3.1301  -27.5126  -47.3303 O.2       13 UNK        -0.5000 
     79 N          -1.2560  -26.2960  -46.9434 N.am      14 UNK        -0.5000 
     80 CA         -0.2741  -27.3052  -47.3540 C.3       14 UNK         0.1400 
     81 CB          1.1393  -26.8306  -46.9851 C.3       14 UNK        -0.1800 
     82 C          -0.3557  -27.6555  -48.8528 C.2       14 UNK         0.5000 
     83 O          -0.1727  -28.8177  -49.2162 O.2       14 UNK        -0.5000 
     84 N          -0.6700  -26.6563  -49.6880 N.am      15 UNK        -0.5000 
     85 CA         -0.9339  -26.8050  -51.1210 C.3       15 UNK         0.1400 
     86 CB         -0.7953  -25.4290  -51.7946 C.3       15 UNK        -0.1800 
     87 C          -2.3128  -27.4251  -51.4374 C.2       15 UNK         0.5000 
     88 O          -2.5730  -27.7277  -52.6026 O.2       15 UNK        -0.5000 
     89 N          -3.1685  -27.5890  -50.4152 N.am      16 UNK        -0.5000 
     90 CA         -4.5571  -28.0587  -50.4734 C.3       16 UNK         0.1400 
     91 CB         -4.6284  -29.5289  -50.9361 C.3       16 UNK        -0.1800 
     92 C          -5.4642  -27.1138  -51.2899 C.2       16 UNK         0.5000 
     93 O          -6.3505  -27.5691  -52.0154 O.2       16 UNK        -0.5000 
     94 N          -5.2171  -25.8072  -51.1527 N.am      17 UNK        -0.5000 
     95 CA         -5.8870  -24.7273  -51.8672 C.3       17 UNK         0.1400 
     96 CB         -5.0886  -24.3988  -53.1427 C.3       17 UNK        -0.1800 
     97 C          -6.0517  -23.5292  -50.9184 C.2       17 UNK         0.5000 
     98 O          -5.7066  -22.4001  -51.2759 O.2       17 UNK        -0.5000 
     99 N          -6.5488  -23.8104  -49.7041 N.am      18 UNK        -0.5000 
    100 CA        -6.7551  -22.8653  -48.6047 C.3       18 UNK         0.1400 
    101 CB        -7.3881  -23.6042  -47.4156 C.3       18 UNK        -0.1800 
    102 C         -7.6033  -21.6507  -49.0262 C.2       18 UNK         0.5000 
    103 O         -8.7804  -21.8142  -49.3514 O.2       18 UNK        -0.5000 
    104 N         -6.9598  -20.4746  -49.0598 N.am      19 UNK        -0.5000 
    105 CA        -7.4757  -19.1758  -49.5145 C.3       19 UNK         0.1400 
    106 CB        -8.6661  -18.7159  -48.6476 C.3       19 UNK        -0.1800 
    107 C         -7.7880  -19.0933  -51.0275 C.2       19 UNK         0.5000 
    108 O         -8.3171  -18.0746  -51.4735 O.2       19 UNK        -0.5000 
    109 N         -7.4324  -20.1293  -51.7986 N.am      20 UNK        -0.5000 
    110 CA        -7.5615  -20.1796  -53.2556 C.3       20 UNK         0.1400 
    111 CB        -8.1608  -21.5327  -53.6687 C.3       20 UNK        -0.1800 
    112 C         -6.2008  -19.9504  -53.9353 C.2       20 UNK         0.5000 
    113 O         -6.1572  -19.3461  -55.0069 O.2       20 UNK        -0.5000 
    114 N         -5.1123  -20.3941  -53.2875 N.am      21 UNK        -0.5000 
    115 CA        -3.7268  -20.1954  -53.7265 C.3       21 UNK         0.1400 
    116 CB        -2.8023  -21.0519  -52.8453 C.3       21 UNK        -0.1800 
    117 C         -3.2643  -18.7246  -53.6806 C.2       21 UNK         0.5000 
    118 O         -2.3335  -18.3571  -54.3986 O.2       21 UNK        -0.5000 
    119 N         -3.9057  -17.9249  -52.8238 N.am      22 UNK        -0.5000 
    120 CA        -3.5282  -16.5436  -52.4899 C.3       22 UNK         0.1400 
    121 C         -4.7462  -15.6147  -52.2146 C.2       22 UNK         0.5000 
    122 N         -5.9680  -16.0073  -52.5543 N.am      22 UNK        -0.7600 
    123 O         -4.5863  -14.5068  -51.7102 O.2       22 UNK        -0.5000 
    124 C124       -2.4449  -16.5006  -51.3767 C.3       23 UNK        -0.0398 
    125 S125       -2.8863  -17.4773  -49.8951 S.3       23 UNK        -0.2404 
    126 C126       -1.4436  -17.1903  -48.8242 C.3       23 UNK        -0.0205 
    127 H127        6.7051   -9.6900  -49.2835 H         1 UNK         0.0600 
    128 H128        7.7772  -10.4824  -48.1251 H         1 UNK         0.0600 
    129 H129        6.5752   -9.3172  -47.5615 H         1 UNK         0.0600 
    130 H130        7.1742  -12.5883  -47.7152 H         1 UNK         0.3000 
    131 H131        6.0430  -14.4366  -47.3615 H         1 UNK         0.0600 
    132 H132        3.7980  -13.4840  -49.1979 H         1 UNK         0.0800 
    133 H133        5.3714  -13.8638  -49.8285 H         1 UNK         0.0800 
    134 H134        2.6842  -14.9466  -50.6395 H         1 UNK         0.0800 
    135 H135        3.7158  -16.1283  -51.4037 H         1 UNK         0.0800 
    136 H136        0.6775  -15.5917  -49.4339 H         1 UNK         0.1150 
    137 H137       -0.6271  -19.6643  -49.6355 H         1 UNK         0.1150 
    138 H138        3.2795  -18.5964  -51.0395 H         1 UNK         0.1150 
    139 H139        0.6819  -21.3132  -50.7495 H         1 UNK         0.0800 
    140 H140        2.0152  -20.8037  -51.7459 H         1 UNK         0.0800 
    141 H141        2.8562  -21.0745  -47.2750 H         1 UNK         0.0800 
    142 H142        1.4139  -20.4123  -47.9799 H         1 UNK         0.0800 
    143 H143        1.8959  -23.3298  -47.2540 H         1 UNK         0.0600 
    144 H144        0.8317  -21.1650  -45.7225 H         1 UNK         0.3000 
    145 H145       -1.1320  -23.1020  -43.4713 H         1 UNK         0.0600 
    146 H146        0.3485  -21.9143  -41.8566 H         1 UNK         0.0600 
    147 H147        1.1809  -23.2634  -42.6144 H         1 UNK         0.0600 
    148 H148        1.5234  -21.6221  -43.1397 H         1 UNK         0.0600 
    149 H149       -0.6729  -20.3385  -43.4700 H         1 UNK         0.3000 
    150 H150       -2.5241  -18.9752  -45.5695 H         1 UNK         0.0600 
    151 H151       -4.6765  -20.2631  -45.7428 H         1 UNK         0.0600 
    152 H152       -4.9264  -18.7719  -44.8695 H         1 UNK         0.0600 
    153 H153       -4.8075  -20.2931  -43.9890 H         1 UNK         0.0600 
    154 H154       -1.9801  -19.2990  -42.8036 H         1 UNK         0.3000 
    155 H155       -2.4889  -15.8653  -41.9634 H         1 UNK         0.0600 
    156 H156       -2.6004  -17.0547  -39.7994 H         1 UNK         0.0600 
    157 H157       -2.7603  -18.6051  -40.6205 H         1 UNK         0.0600 
    158 H158       -4.0215  -17.3939  -40.7743 H         1 UNK         0.0600 
    159 H159       -0.3215  -16.0995  -41.9211 H         1 UNK         0.3000 
    160 H160        1.6698  -16.9475  -41.0180 H         1 UNK         0.0600 
    161 H161        2.2763  -19.8393  -41.8269 H         1 UNK         0.0600 
    162 H162        2.0566  -19.2481  -40.1899 H         1 UNK         0.0600 
    163 H163        3.4209  -18.6890  -41.1456 H         1 UNK         0.0600 
    164 H164        2.2675  -16.3565  -43.0698 H         1 UNK         0.3000 
    165 H165        3.3646  -16.8593  -45.2756 H         1 UNK         0.0600 
    166 H166        1.3507  -18.4816  -46.9001 H         1 UNK         0.0600 
    167 H167        2.6562  -17.5194  -47.5685 H         1 UNK         0.0600 
    168 H168        3.0381  -18.9182  -46.5878 H         1 UNK         0.0600 
    169 H169        2.0377  -15.1728  -45.8452 H         1 UNK         0.3000 
    170 H170       -1.4645  -14.7915  -46.3621 H         1 UNK         0.0600 
    171 H171        0.2309  -13.7812  -44.0235 H         1 UNK         0.0600 
    172 H172       -1.1554  -12.9274  -44.6984 H         1 UNK         0.0600 
    173 H173       -1.3739  -14.4961  -43.9359 H         1 UNK         0.0600 
    174 H174        1.2884  -13.5978  -46.5377 H         1 UNK         0.3000 
    175 H175        1.5979  -12.9471  -49.1038 H         1 UNK         0.0600 
    176 H176       -0.5447  -10.7927  -49.4639 H         1 UNK         0.0600 
    177 H177        0.9738  -10.8855  -50.3554 H         1 UNK         0.0600 
    178 H178       -0.2346  -12.1451  -50.5447 H         1 UNK         0.0600 
    179 H179        2.6342  -11.4488  -47.8344 H         1 UNK         0.3000 
    180 H180        2.7605   -9.0877  -46.8299 H         1 UNK         0.0600 
    181 H181        0.9283   -9.1923  -44.3754 H         1 UNK         0.0600 
    182 H182        0.9806   -7.9326  -45.5973 H         1 UNK         0.0600 
    183 H183        2.3580   -8.1727  -44.5346 H         1 UNK         0.0600 
    184 H184        4.0573  -10.6092  -45.9072 H         1 UNK         0.3000 
    185 H185        4.7378  -11.9104  -43.5654 H         1 UNK         0.0600 
    186 H186        3.1741  -13.4257  -42.4398 H         1 UNK         0.0600 
    187 H187        2.8327  -14.2794  -43.9347 H         1 UNK         0.0600 
    188 H188        4.4326  -14.3851  -43.2017 H         1 UNK         0.0600 
    189 H189        5.7822  -12.5682  -45.4058 H         1 UNK         0.3000 
    190 H190       -1.1235  -21.4428  -47.5457 H         1 UNK         0.3000 
    191 H191       -1.9741  -22.5835  -50.0471 H         1 UNK         0.0600 
    192 H192       -2.7515  -20.3562  -49.1573 H         1 UNK         0.0600 
    193 H193       -4.0733  -21.4193  -49.5709 H         1 UNK         0.0600 
    194 H194       -3.6364  -21.1837  -47.8825 H         1 UNK         0.0600 
    195 H195       -2.6762  -23.2787  -46.6024 H         1 UNK         0.3000 
    196 H196       -4.4660  -25.4433  -46.9959 H         1 UNK         0.0600 
    197 H197       -3.9395  -25.9626  -44.6141 H         1 UNK         0.0600 
    198 H198       -4.2212  -24.2420  -44.8403 H         1 UNK         0.0600 
    199 H199       -2.5778  -24.8491  -44.6563 H         1 UNK         0.0600 
    200 H200       -0.8816  -25.4192  -46.5908 H         1 UNK         0.3000 
    201 H201       -0.4822  -28.2178  -46.7917 H         1 UNK         0.0600 
    202 H202        1.2324  -26.6682  -45.9112 H         1 UNK         0.0600 
    203 H203        1.3946  -25.8976  -47.4881 H         1 UNK         0.0600 
    204 H204        1.8876  -27.5722  -47.2675 H         1 UNK         0.0600 
    205 H205       -0.7298  -25.7142  -49.3160 H         1 UNK         0.3000 
    206 H206       -0.1758  -27.4672  -51.5439 H         1 UNK         0.0600 
    207 H207        0.1923  -25.0014  -51.6202 H         1 UNK         0.0600 
    208 H208       -0.9294  -25.5043  -52.8743 H         1 UNK         0.0600 
    209 H209       -1.5364  -24.7217  -51.4223 H         1 UNK         0.0600 
    210 H210       -2.8559  -27.3027  -49.4958 H         1 UNK         0.3000 
    211 H211       -4.9305  -28.0212  -49.4493 H         1 UNK         0.0600 
    212 H212       -4.3359  -29.6425  -51.9801 H         1 UNK         0.0600 
    213 H213       -5.6417  -29.9196  -50.8375 H         1 UNK         0.0600 
    214 H214       -3.9773  -30.1625  -50.3338 H         1 UNK         0.0600 
    215 H215       -4.4802  -25.5066  -50.5151 H         1 UNK         0.3000 
    216 H216       -6.8945  -25.0327  -52.1561 H         1 UNK         0.0600 
    217 H217       -5.5033  -23.5416  -53.6729 H         1 UNK         0.0600 
    218 H218       -5.0960  -25.2415  -53.8341 H         1 UNK         0.0600 
    219 H219       -4.0479  -24.1760  -52.9089 H         1 UNK         0.0600 
    220 H220       -6.8065  -24.7678  -49.5168 H         1 UNK         0.3000 
    221 H221       -5.7733  -22.5171  -48.2836 H         1 UNK         0.0600 
    222 H222       -8.3559  -24.0342  -47.6768 H         1 UNK         0.0600 
    223 H223       -6.7458  -24.4115  -47.0640 H         1 UNK         0.0600 
    224 H224       -7.5453  -22.9270  -46.5751 H         1 UNK         0.0600 
    225 H225       -5.9853  -20.4656  -48.7967 H         1 UNK         0.3000 
    226 H226       -6.6637  -18.4662  -49.3484 H         1 UNK         0.0600 
    227 H227       -8.4225  -18.7617  -47.5861 H         1 UNK         0.0600 
    228 H228       -8.9372  -17.6835  -48.8716 H         1 UNK         0.0600 
    229 H229       -9.5530  -19.3269  -48.8163 H         1 UNK         0.0600 
    230 H230       -6.9796  -20.9262  -51.3635 H         1 UNK         0.3000 
    231 H231       -8.2392  -19.3976  -53.6041 H         1 UNK         0.0600 
    232 H232       -8.2724  -21.5960  -54.7518 H         1 UNK         0.0600 
    233 H233       -9.1493  -21.6721  -53.2308 H         1 UNK         0.0600 
    234 H234       -7.5377  -22.3681  -53.3537 H         1 UNK         0.0600 
    235 H235       -5.2419  -20.9498  -52.4474 H         1 UNK         0.3000 
    236 H236       -3.6427  -20.5406  -54.7589 H         1 UNK         0.0600 
    237 H237       -3.0627  -22.1069  -52.9033 H         1 UNK         0.0600 
    238 H238       -1.7620  -20.9579  -53.1594 H         1 UNK         0.0600 
    239 H239       -2.8559  -20.7502  -51.7989 H         1 UNK         0.0600 
    240 H240       -4.6383  -18.3239  -52.2570 H         1 UNK         0.3000 
    241 H241       -3.0794  -16.1013  -53.3810 H         1 UNK         0.0600 
    242 H242       -6.1249  -16.8784  -53.0334 H         1 UNK         0.3800 
    243 H243       -6.7490  -15.3979  -52.3686 H         1 UNK         0.3800 
    244 H244       -2.2171  -15.4755  -51.0794 H         1 UNK         0.0800 
    245 H245       -1.5152  -16.9035  -51.7803 H         1 UNK         0.0800 
    246 H246       -1.4321  -16.1409  -48.5277 H         1 UNK         0.0800 
    247 H247       -1.5726  -17.7680  -47.9085 H         1 UNK         0.0800 
@<TRIPOS>BOND
     1    1    2 1    
     2    1  127 1    
     3    1  128 1    
     4    1  129 1    
     5    2    3 2    
     6    2    4 am   BACKBONE|DICT|INTERRES
     7    4    5 1    
     8    4  130 1    
     9    5    6 1    
    10    5   65 1    
    11    5  131 1    
    12    6    7 1    
    13    6  132 1    
    14    6  133 1    
    15    7    8 1    
    16    8    9 1    
    17    8  134 1    
    18    8  135 1    
    19    9   10 ar   
    20    9   14 ar   
    21   10   11 ar   
    22   10  136 1    
    23   11   12 ar   
    24   11  126 1    
    25   12   13 ar   
    26   12  137 1    
    27   13   14 ar   
    28   13   15 1    
    29   14  138 1    
    30   15   16 1    
    31   15  139 1    
    32   15  140 1    
    33   16   17 1    
    34   17   18 1    
    35   17  141 1    
    36   17  142 1    
    37   18   19 1    
    38   18   67 1    
    39   18  143 1    
    40   19   20 am   BACKBONE|DICT|INTERRES
    41   19  144 1    
    42   20   21 2    
    43   20   22 1    
    44   22   23 1    
    45   22   24 1    
    46   22  145 1    
    47   23  146 1    
    48   23  147 1    
    49   23  148 1    
    50   24   25 am   BACKBONE|DICT|INTERRES
    51   24  149 1    
    52   25   26 2    
    53   25   27 1    
    54   27   28 1    
    55   27   29 1    
    56   27  150 1    
    57   28  151 1    
    58   28  152 1    
    59   28  153 1    
    60   29   30 am   BACKBONE|DICT|INTERRES
    61   29  154 1    
    62   30   31 2    
    63   30   32 1    
    64   32   33 1    
    65   32   34 1    
    66   32  155 1    
    67   33  156 1    
    68   33  157 1    
    69   33  158 1    
    70   34   35 am   BACKBONE|DICT|INTERRES
    71   34  159 1    
    72   35   36 2    
    73   35   37 1    
    74   37   38 1    
    75   37   39 1    
    76   37  160 1    
    77   38  161 1    
    78   38  162 1    
    79   38  163 1    
    80   39   40 am   BACKBONE|DICT|INTERRES
    81   39  164 1    
    82   40   41 2    
    83   40   42 1    
    84   42   43 1    
    85   42   44 1    
    86   42  165 1    
    87   43  166 1    
    88   43  167 1    
    89   43  168 1    
    90   44   45 am   BACKBONE|DICT|INTERRES
    91   44  169 1    
    92   45   46 2    
    93   45   47 1    
    94   47   48 1    
    95   47   49 1    
    96   47  170 1    
    97   48  171 1    
    98   48  172 1    
    99   48  173 1    
   100   49   50 am   BACKBONE|DICT|INTERRES
   101   49  174 1    
   102   50   51 2    
   103   50   52 1    
   104   52   53 1    
   105   52   54 1    
   106   52  175 1    
   107   53  176 1    
   108   53  177 1    
   109   53  178 1    
   110   54   55 am   BACKBONE|DICT|INTERRES
   111   54  179 1    
   112   55   56 2    
   113   55   57 1    
   114   57   58 1    
   115   57   59 1    
   116   57  180 1    
   117   58  181 1    
   118   58  182 1    
   119   58  183 1    
   120   59   60 am   BACKBONE|DICT|INTERRES
   121   59  184 1    
   122   60   61 2    
   123   60   62 1    
   124   62   63 1    
   125   62   64 1    
   126   62  185 1    
   127   63  186 1    
   128   63  187 1    
   129   63  188 1    
   130   64   65 am   BACKBONE|DICT|INTERRES
   131   64  189 1    
   132   65   66 2    
   133   67   68 2    
   134   67   69 am   BACKBONE|DICT|INTERRES
   135   69   70 1    
   136   69  190 1    
   137   70   71 1    
   138   70   72 1    
   139   70  191 1    
   140   71  192 1    
   141   71  193 1    
   142   71  194 1    
   143   72   73 2    
   144   72   74 am   BACKBONE|DICT|INTERRES
   145   74   75 1    
   146   74  195 1    
   147   75   76 1    
   148   75   77 1    
   149   75  196 1    
   150   76  197 1    
   151   76  198 1    
   152   76  199 1    
   153   77   78 2    
   154   77   79 am   BACKBONE|DICT|INTERRES
   155   79   80 1    
   156   79  200 1    
   157   80   81 1    
   158   80   82 1    
   159   80  201 1    
   160   81  202 1    
   161   81  203 1    
   162   81  204 1    
   163   82   83 2    
   164   82   84 am   BACKBONE|DICT|INTERRES
   165   84   85 1    
   166   84  205 1    
   167   85   86 1    
   168   85   87 1    
   169   85  206 1    
   170   86  207 1    
   171   86  208 1    
   172   86  209 1    
   173   87   88 2    
   174   87   89 am   BACKBONE|DICT|INTERRES
   175   89   90 1    
   176   89  210 1    
   177   90   91 1    
   178   90   92 1    
   179   90  211 1    
   180   91  212 1    
   181   91  213 1    
   182   91  214 1    
   183   92   93 2    
   184   92   94 am   BACKBONE|DICT|INTERRES
   185   94   95 1    
   186   94  215 1    
   187   95   96 1    
   188   95   97 1    
   189   95  216 1    
   190   96  217 1    
   191   96  218 1    
   192   96  219 1    
   193   97   98 2    
   194   97   99 am   BACKBONE|DICT|INTERRES
   195   99  100 1    
   196   99  220 1    
   197  100  101 1    
   198  100  102 1    
   199  100  221 1    
   200  101  222 1    
   201  101  223 1    
   202  101  224 1    
   203  102  103 2    
   204  102  104 am   BACKBONE|DICT|INTERRES
   205  104  105 1    
   206  104  225 1    
   207  105  106 1    
   208  105  107 1    
   209  105  226 1    
   210  106  227 1    
   211  106  228 1    
   212  106  229 1    
   213  107  108 2    
   214  107  109 am   BACKBONE|DICT|INTERRES
   215  109  110 1    
   216  109  230 1    
   217  110  111 1    
   218  110  112 1    
   219  110  231 1    
   220  111  232 1    
   221  111  233 1    
   222  111  234 1    
   223  112  113 2    
   224  112  114 am   BACKBONE|DICT|INTERRES
   225  114  115 1    
   226  114  235 1    
   227  115  116 1    
   228  115  117 1    
   229  115  236 1    
   230  116  237 1    
   231  116  238 1    
   232  116  239 1    
   233  117  118 2    
   234  117  119 am   BACKBONE|DICT|INTERRES
   235  119  120 1    
   236  119  240 1    
   237  120  121 1    
   238  120  124 1    
   239  120  241 1    
   240  121  122 am   BACKBONE|DICT|INTERRES
   241  121  123 2    
   242  122  242 1    
   243  122  243 1    
   244  124  125 1    
   245  124  244 1    
   246  124  245 1    
   247  125  126 1    
   248  126  246 1    
   249  126  247 1    
@<TRIPOS>SUBSTRUCTURE
     1 UNK         1 GROUP             0       ****    0 ROOT    
