@<TRIPOS>MOLECULE
3R540
247   249    1
SMALL
USER_CHARGES


@<TRIPOS>ATOM
      1 CA          2.3686  -18.1729  -49.3882 C.3       0 UNK        -0.1800 
      2 C           1.9159  -16.7721  -49.0040 C.2       0 UNK         0.5000 
      3 O           1.6013  -16.5356  -47.8393 O.2       0 UNK        -0.5000 
      4 N           1.9134  -15.8320  -49.9592 N.am      1 UNK        -0.5000 
      5 CA          1.5954  -14.4097  -49.7650 C.3       1 UNK         0.1400 
      6 C6          1.1856  -13.7214  -51.0973 C.3       23 UNK        -0.0398 
      7 S7         -0.5799  -13.9626  -51.4908 S.3       23 UNK        -0.2404 
      8 C8         -0.5365  -15.0718  -52.9353 C.3       23 UNK        -0.0205 
      9 C9         -0.2667  -16.5196  -52.5515 C.ar      23 UNK        -0.0193 
     10 C10         0.8055  -17.2141  -53.1181 C.ar      23 UNK        -0.1150 
     11 C11         1.0497  -18.5483  -52.7758 C.ar      23 UNK        -0.0193 
     12 C12         0.2215  -19.1804  -51.8427 C.ar      23 UNK        -0.1150 
     13 C13        -0.8591  -18.4982  -51.2757 C.ar      23 UNK        -0.0193 
     14 C14        -1.1051  -17.1747  -51.6451 C.ar      23 UNK        -0.1150 
     15 C15        -1.7723  -19.1919  -50.2792 C.3       23 UNK        -0.0205 
     16 S16        -1.4940  -18.6090  -48.5802 S.3       23 UNK        -0.2404 
     17 C17        -2.4551  -19.8558  -47.6612 C.3       23 UNK        -0.0398 
     18 CA         -1.5896  -21.0885  -47.3150 C.3       11 UNK         0.1400 
     19 N          -0.5037  -20.7746  -46.3827 N.am      11 UNK        -0.5000 
     20 C           0.5776  -21.5462  -46.2158 C.2       10 UNK         0.5000 
     21 O           0.7476  -22.6151  -46.8008 O.2       10 UNK        -0.5000 
     22 CA          1.6234  -21.0725  -45.1950 C.3       10 UNK         0.1400 
     23 CB          2.4491  -19.9098  -45.7665 C.3       10 UNK        -0.1800 
     24 N           1.0432  -20.6869  -43.9080 N.am      10 UNK        -0.5000 
     25 C           0.3450  -21.5008  -43.1031 C.2       9 UNK         0.5000 
     26 O           0.0532  -22.6617  -43.3904 O.2       9 UNK        -0.5000 
     27 CA         -0.1205  -20.9153  -41.7600 C.3       9 UNK         0.1400 
     28 CB          1.0431  -20.8330  -40.7599 C.3       9 UNK        -0.1800 
     29 N          -0.7110  -19.5912  -41.9359 N.am      9 UNK        -0.5000 
     30 C          -1.9780  -19.3802  -42.3176 C.2       8 UNK         0.5000 
     31 O          -2.8001  -20.2802  -42.4862 O.2       8 UNK        -0.5000 
     32 CA         -2.3956  -17.9201  -42.5803 C.3       8 UNK         0.1400 
     33 CB         -2.9022  -17.2660  -41.2862 C.3       8 UNK        -0.1800 
     34 N          -1.3262  -17.0983  -43.1486 N.am      8 UNK        -0.5000 
     35 C          -0.7094  -17.3452  -44.3135 C.2       7 UNK         0.5000 
     36 O          -0.9967  -18.2833  -45.0564 O.2       7 UNK        -0.5000 
     37 CA          0.4674  -16.4266  -44.6766 C.3       7 UNK         0.1400 
     38 CB         -0.0341  -15.1432  -45.3536 C.3       7 UNK        -0.1800 
     39 N           1.3058  -16.0805  -43.5295 N.am      7 UNK        -0.5000 
     40 C           1.9720  -16.9510  -42.7588 C.2       6 UNK         0.5000 
     41 O           1.9272  -18.1717  -42.9059 O.2       6 UNK        -0.5000 
     42 CA          2.7967  -16.3569  -41.6077 C.3       6 UNK         0.1400 
     43 CB          4.1395  -15.8115  -42.1188 C.3       6 UNK        -0.1800 
     44 N           2.0596  -15.2910  -40.9327 N.am      6 UNK        -0.5000 
     45 C           1.1378  -15.4953  -39.9829 C.2       5 UNK         0.5000 
     46 O           0.8599  -16.6049  -39.5268 O.2       5 UNK        -0.5000 
     47 CA          0.3898  -14.2530  -39.4605 C.3       5 UNK         0.1400 
     48 CB          1.1403  -13.6337  -38.2718 C.3       5 UNK        -0.1800 
     49 N           0.1788  -13.2246  -40.4820 N.am      5 UNK        -0.5000 
     50 C          -0.6188  -13.3696  -41.5485 C.2       4 UNK         0.5000 
     51 O          -1.2527  -14.3961  -41.7959 O.2       4 UNK        -0.5000 
     52 CA         -0.6876  -12.1808  -42.5278 C.3       4 UNK         0.1400 
     53 CB         -1.6732  -11.1206  -42.0131 C.3       4 UNK        -0.1800 
     54 N           0.5954  -11.5359  -42.8436 N.am      4 UNK        -0.5000 
     55 C           1.7145  -12.1635  -43.2290 C.2       3 UNK         0.5000 
     56 O           1.8727  -13.3835  -43.1695 O.2       3 UNK        -0.5000 
     57 CA          2.8632  -11.2928  -43.7726 C.3       3 UNK         0.1400 
     58 CB          3.8315  -10.9201  -42.6404 C.3       3 UNK        -0.1800 
     59 N           3.6006  -12.0162  -44.8130 N.am      3 UNK        -0.5000 
     60 C           3.0754  -12.3812  -45.9912 C.2       2 UNK         0.5000 
     61 O           2.0005  -11.9426  -46.4113 O.2       2 UNK        -0.5000 
     62 CA          3.8646  -13.4262  -46.8115 C.3       2 UNK         0.1400 
     63 CB          4.4669  -14.5314  -45.9212 C.3       2 UNK        -0.1800 
     64 N           2.9844  -14.0705  -47.7821 N.am      2 UNK        -0.5000 
     65 C           2.7473  -13.6730  -49.0355 C.2       1 UNK         0.5000 
     66 O           3.3908  -12.7867  -49.6016 O.2       1 UNK        -0.5000 
     67 C          -2.4580  -22.2653  -46.8322 C.2       11 UNK         0.5000 
     68 O          -3.0264  -22.9630  -47.6703 O.2       11 UNK        -0.5000 
     69 N          -2.5217  -22.5003  -45.5134 N.am      12 UNK        -0.5000 
     70 CA         -3.1653  -23.6805  -44.9360 C.3       12 UNK         0.1400 
     71 CB         -3.4179  -23.4650  -43.4367 C.3       12 UNK        -0.1800 
     72 C          -2.3364  -24.9534  -45.1840 C.2       12 UNK         0.5000 
     73 O          -2.9001  -25.9758  -45.5743 O.2       12 UNK        -0.5000 
     74 N          -1.0134  -24.8581  -44.9878 N.am      13 UNK        -0.5000 
     75 CA         -0.0536  -25.9380  -45.2216 C.3       13 UNK         0.1400 
     76 CB          1.3114  -25.5426  -44.6374 C.3       13 UNK        -0.1800 
     77 C           0.0759  -26.3130  -46.7095 C.2       13 UNK         0.5000 
     78 O           0.1011  -27.5000  -47.0371 O.2       13 UNK        -0.5000 
     79 N           0.1371  -25.2987  -47.5832 N.am      14 UNK        -0.5000 
     80 CA          0.2163  -25.4577  -49.0373 C.3       14 UNK         0.1400 
     81 CB          0.7093  -24.1394  -49.6563 C.3       14 UNK        -0.1800 
     82 C          -1.1193  -25.8696  -49.6854 C.2       14 UNK         0.5000 
     83 O          -1.1137  -26.3291  -50.8284 O.2       14 UNK        -0.5000 
     84 N          -2.2354  -25.6504  -48.9752 N.am      15 UNK        -0.5000 
     85 CA         -3.6408  -25.7866  -49.3796 C.3       15 UNK         0.1400 
     86 CB         -3.9827  -27.2192  -49.8295 C.3       15 UNK        -0.1800 
     87 C          -4.0746  -24.7413  -50.4247 C.2       15 UNK         0.5000 
     88 O          -5.0974  -24.0844  -50.2279 O.2       15 UNK        -0.5000 
     89 N          -3.2800  -24.5911  -51.4953 N.am      16 UNK        -0.5000 
     90 CA         -3.3111  -23.5250  -52.5024 C.3       16 UNK         0.1400 
     91 CB         -2.7185  -22.2393  -51.8932 C.3       16 UNK        -0.1800 
     92 C          -4.6945  -23.2950  -53.1432 C.2       16 UNK         0.5000 
     93 O          -5.1083  -22.1484  -53.3079 O.2       16 UNK        -0.5000 
     94 N          -5.3970  -24.3925  -53.4627 N.am      17 UNK        -0.5000 
     95 CA         -6.7574  -24.4232  -54.0175 C.3       17 UNK         0.1400 
     96 CB         -6.7664  -23.8858  -55.4644 C.3       17 UNK        -0.1800 
     97 C          -7.7875  -23.7224  -53.1020 C.2       17 UNK         0.5000 
     98 O          -8.5994  -22.9253  -53.5744 O.2       17 UNK        -0.5000 
     99 N          -7.7079  -24.0378  -51.8006 N.am      18 UNK        -0.5000 
    100 CA        -8.4659  -23.4558  -50.6885 C.3       18 UNK         0.1400 
    101 CB        -9.9855  -23.6761  -50.8515 C.3       18 UNK        -0.1800 
    102 C         -8.0728  -21.9862  -50.4374 C.2       18 UNK         0.5000 
    103 O         -8.9374  -21.1107  -50.3660 O.2       18 UNK        -0.5000 
    104 N         -6.7579  -21.7643  -50.2965 N.am      19 UNK        -0.5000 
    105 CA        -6.0917  -20.4921  -50.0028 C.3       19 UNK         0.1400 
    106 CB        -6.3950  -20.0417  -48.5588 C.3       19 UNK        -0.1800 
    107 C         -6.3569  -19.3947  -51.0556 C.2       19 UNK         0.5000 
    108 O         -6.6044  -18.2390  -50.7037 O.2       19 UNK        -0.5000 
    109 N         -6.2790  -19.7787  -52.3345 N.am      20 UNK        -0.5000 
    110 CA        -6.2422  -18.8761  -53.4818 C.3       20 UNK         0.1400 
    111 CB        -6.8391  -19.6078  -54.6983 C.3       20 UNK        -0.1800 
    112 C         -4.7928  -18.4115  -53.7403 C.2       20 UNK         0.5000 
    113 O         -3.9046  -18.6525  -52.9189 O.2       20 UNK        -0.5000 
    114 N         -4.5603  -17.7583  -54.8862 N.am      21 UNK        -0.5000 
    115 CA        -3.2536  -17.2632  -55.3302 C.3       21 UNK         0.1400 
    116 CB        -3.4719  -16.1992  -56.4203 C.3       21 UNK        -0.1800 
    117 C         -2.3146  -18.4022  -55.7881 C.2       21 UNK         0.5000 
    118 O         -1.9838  -18.5031  -56.9708 O.2       21 UNK        -0.5000 
    119 N         -1.9188  -19.2468  -54.8311 N.am      22 UNK        -0.5000 
    120 CA        -1.0386  -20.4151  -54.9853 C.3       22 UNK         0.1400 
    121 C         -1.6676  -21.6203  -55.7503 C.2       22 UNK         0.5000 
    122 N         -2.9828  -21.6796  -55.9191 N.am      22 UNK        -0.7600 
    123 O         -0.9641  -22.5338  -56.1723 O.2       22 UNK        -0.5000 
    124 C124        0.3936  -20.0362  -55.4753 C.3       23 UNK        -0.0398 
    125 S125        1.6833  -20.7474  -54.3941 S.3       23 UNK        -0.2404 
    126 C126        2.2121  -19.2997  -53.4150 C.3       23 UNK        -0.0205 
    127 H127        1.5512  -18.8812  -49.2549 H         1 UNK         0.0600 
    128 H128        3.1952  -18.4855  -48.7507 H         1 UNK         0.0600 
    129 H129        2.7041  -18.2198  -50.4235 H         1 UNK         0.0600 
    130 H130        2.1733  -16.0933  -50.8986 H         1 UNK         0.3000 
    131 H131        0.7404  -14.3481  -49.0874 H         1 UNK         0.0600 
    132 H132        1.3150  -12.6393  -51.0400 H         1 UNK         0.0800 
    133 H133        1.8170  -14.0511  -51.9235 H         1 UNK         0.0800 
    134 H134        0.1985  -14.7069  -53.6543 H         1 UNK         0.0800 
    135 H135       -1.5036  -15.0199  -53.4358 H         1 UNK         0.0800 
    136 H136        1.4462  -16.7181  -53.8336 H         1 UNK         0.1150 
    137 H137        0.4147  -20.2081  -51.5690 H         1 UNK         0.1150 
    138 H138       -1.9448  -16.6492  -51.2126 H         1 UNK         0.1150 
    139 H139       -2.8147  -19.0264  -50.5534 H         1 UNK         0.0800 
    140 H140       -1.6053  -20.2672  -50.3135 H         1 UNK         0.0800 
    141 H141       -2.8511  -19.3960  -46.7543 H         1 UNK         0.0800 
    142 H142       -3.3209  -20.1386  -48.2621 H         1 UNK         0.0800 
    143 H143       -1.1271  -21.4299  -48.2436 H         1 UNK         0.0600 
    144 H144       -0.5855  -19.8979  -45.8703 H         1 UNK         0.3000 
    145 H145        2.3019  -21.9070  -45.0066 H         1 UNK         0.0600 
    146 H146        2.9536  -20.2068  -46.6867 H         1 UNK         0.0600 
    147 H147        1.8227  -19.0501  -46.0033 H         1 UNK         0.0600 
    148 H148        3.2164  -19.5838  -45.0643 H         1 UNK         0.0600 
    149 H149        1.2582  -19.7474  -43.5814 H         1 UNK         0.3000 
    150 H150       -0.8705  -21.5902  -41.3416 H         1 UNK         0.0600 
    151 H151        0.7037  -20.4630  -39.7923 H         1 UNK         0.0600 
    152 H152        1.8369  -20.1722  -41.1092 H         1 UNK         0.0600 
    153 H153        1.4845  -21.8168  -40.5957 H         1 UNK         0.0600 
    154 H154       -0.0846  -18.8006  -41.8696 H         1 UNK         0.3000 
    155 H155       -3.2163  -17.9381  -43.3002 H         1 UNK         0.0600 
    156 H156       -2.1034  -17.1603  -40.5507 H         1 UNK         0.0600 
    157 H157       -3.6955  -17.8596  -40.8301 H         1 UNK         0.0600 
    158 H158       -3.3108  -16.2742  -41.4806 H         1 UNK         0.0600 
    159 H159       -1.0565  -16.2752  -42.6196 H         1 UNK         0.3000 
    160 H160        1.0995  -16.9642  -45.3815 H         1 UNK         0.0600 
    161 H161       -0.6061  -15.3775  -46.2524 H         1 UNK         0.0600 
    162 H162        0.7963  -14.5057  -45.6556 H         1 UNK         0.0600 
    163 H163       -0.6789  -14.5657  -44.6920 H         1 UNK         0.0600 
    164 H164        1.4268  -15.0862  -43.3441 H         1 UNK         0.3000 
    165 H165        3.0082  -17.1583  -40.8963 H         1 UNK         0.0600 
    166 H166        4.7573  -15.4560  -41.2942 H         1 UNK         0.0600 
    167 H167        4.7037  -16.5877  -42.6374 H         1 UNK         0.0600 
    168 H168        4.0052  -14.9835  -42.8148 H         1 UNK         0.0600 
    169 H169        2.1608  -14.3608  -41.3195 H         1 UNK         0.3000 
    170 H170       -0.5901  -14.5840  -39.1096 H         1 UNK         0.0600 
    171 H171        0.5791  -12.8055  -37.8388 H         1 UNK         0.0600 
    172 H172        1.2938  -14.3693  -37.4810 H         1 UNK         0.0600 
    173 H173        2.1213  -13.2585  -38.5663 H         1 UNK         0.0600 
    174 H174        0.6787  -12.3550  -40.3686 H         1 UNK         0.3000 
    175 H175       -1.0818  -12.5676  -43.4688 H         1 UNK         0.0600 
    176 H176       -1.3096  -10.6409  -41.1036 H         1 UNK         0.0600 
    177 H177       -2.6431  -11.5650  -41.7850 H         1 UNK         0.0600 
    178 H178       -1.8425  -10.3433  -42.7584 H         1 UNK         0.0600 
    179 H179        0.5731  -10.5278  -42.8989 H         1 UNK         0.3000 
    180 H180        2.4493  -10.3801  -44.2062 H         1 UNK         0.0600 
    181 H181        3.3205  -10.3579  -41.8578 H         1 UNK         0.0600 
    182 H182        4.6466  -10.2963  -43.0077 H         1 UNK         0.0600 
    183 H183        4.2687  -11.8054  -42.1763 H         1 UNK         0.0600 
    184 H184        4.4728  -12.4343  -44.5265 H         1 UNK         0.3000 
    185 H185        4.6744  -12.9093  -47.3297 H         1 UNK         0.0600 
    186 H186        3.7016  -15.0160  -45.3126 H         1 UNK         0.0600 
    187 H187        4.9454  -15.3032  -46.5247 H         1 UNK         0.0600 
    188 H188        5.2298  -14.1387  -45.2486 H         1 UNK         0.0600 
    189 H189        2.4226  -14.8439  -47.4372 H         1 UNK         0.3000 
    190 H190       -2.0116  -21.8993  -44.8817 H         1 UNK         0.3000 
    191 H191       -4.1355  -23.8158  -45.4193 H         1 UNK         0.0600 
    192 H192       -2.4940  -23.2829  -42.8880 H         1 UNK         0.0600 
    193 H193       -3.8961  -24.3387  -42.9924 H         1 UNK         0.0600 
    194 H194       -4.0786  -22.6144  -43.2694 H         1 UNK         0.0600 
    195 H195       -0.6340  -23.9902  -44.6190 H         1 UNK         0.3000 
    196 H196       -0.4071  -26.8216  -44.6863 H         1 UNK         0.0600 
    197 H197        2.0451  -26.3361  -44.7843 H         1 UNK         0.0600 
    198 H198        1.2414  -25.3579  -43.5653 H         1 UNK         0.0600 
    199 H199        1.7042  -24.6393  -45.1054 H         1 UNK         0.0600 
    200 H200        0.1852  -24.3459  -47.2280 H         1 UNK         0.3000 
    201 H201        0.9475  -26.2366  -49.2630 H         1 UNK         0.0600 
    202 H202        1.6775  -23.8489  -49.2480 H         1 UNK         0.0600 
    203 H203        0.0096  -23.3234  -49.4718 H         1 UNK         0.0600 
    204 H204        0.8272  -24.2317  -50.7368 H         1 UNK         0.0600 
    205 H205       -2.1115  -25.2202  -48.0687 H         1 UNK         0.3000 
    206 H206       -4.2194  -25.5824  -48.4770 H         1 UNK         0.0600 
    207 H207       -5.0539  -27.3226  -50.0064 H         1 UNK         0.0600 
    208 H208       -3.4744  -27.4952  -50.7533 H         1 UNK         0.0600 
    209 H209       -3.7078  -27.9461  -49.0652 H         1 UNK         0.0600 
    210 H210       -2.4800  -25.2168  -51.5434 H         1 UNK         0.3000 
    211 H211       -2.6544  -23.8384  -53.3152 H         1 UNK         0.0600 
    212 H212       -1.6797  -22.3904  -51.5999 H         1 UNK         0.0600 
    213 H213       -3.2730  -21.9268  -51.0092 H         1 UNK         0.0600 
    214 H214       -2.7395  -21.4093  -52.5994 H         1 UNK         0.0600 
    215 H215       -4.9779  -25.2911  -53.2691 H         1 UNK         0.3000 
    216 H216       -7.0515  -25.4730  -54.0571 H         1 UNK         0.0600 
    217 H217       -7.7479  -24.0139  -55.9221 H         1 UNK         0.0600 
    218 H218       -6.0471  -24.4178  -56.0867 H         1 UNK         0.0600 
    219 H219       -6.5241  -22.8239  -55.5057 H         1 UNK         0.0600 
    220 H220       -6.9494  -24.6449  -51.5194 H         1 UNK         0.3000 
    221 H221       -8.1578  -24.0050  -49.7975 H         1 UNK         0.0600 
    222 H222      -10.3981  -23.1025  -51.6816 H         1 UNK         0.0600 
    223 H223      -10.2157  -24.7277  -51.0219 H         1 UNK         0.0600 
    224 H224      -10.5185  -23.3689  -49.9511 H         1 UNK         0.0600 
    225 H225       -6.1389  -22.5702  -50.3678 H         1 UNK         0.3000 
    226 H226       -5.0225  -20.6966  -50.0561 H         1 UNK         0.0600 
    227 H227       -6.1386  -20.8220  -47.8420 H         1 UNK         0.0600 
    228 H228       -5.8145  -19.1571  -48.2943 H         1 UNK         0.0600 
    229 H229       -7.4485  -19.7943  -48.4251 H         1 UNK         0.0600 
    230 H230       -5.9981  -20.7359  -52.5383 H         1 UNK         0.3000 
    231 H231       -6.8504  -17.9938  -53.2736 H         1 UNK         0.0600 
    232 H232       -6.1878  -20.4098  -55.0464 H         1 UNK         0.0600 
    233 H233       -7.8062  -20.0500  -54.4564 H         1 UNK         0.0600 
    234 H234       -6.9994  -18.9269  -55.5344 H         1 UNK         0.0600 
    235 H235       -5.3275  -17.6163  -55.5267 H         1 UNK         0.3000 
    236 H236       -2.7692  -16.7715  -54.4847 H         1 UNK         0.0600 
    237 H237       -3.9812  -16.6122  -57.2919 H         1 UNK         0.0600 
    238 H238       -4.0688  -15.3676  -56.0453 H         1 UNK         0.0600 
    239 H239       -2.5207  -15.7865  -56.7590 H         1 UNK         0.0600 
    240 H240       -2.3088  -19.1031  -53.9031 H         1 UNK         0.3000 
    241 H241       -0.9525  -20.7883  -53.9657 H         1 UNK         0.0600 
    242 H242       -3.3824  -22.4585  -56.4168 H         1 UNK         0.3800 
    243 H243       -3.5798  -20.9569  -55.5520 H         1 UNK         0.3800 
    244 H244        0.5700  -20.3659  -56.5004 H         1 UNK         0.0800 
    245 H245        0.5283  -18.9547  -55.5058 H         1 UNK         0.0800 
    246 H246        2.8924  -19.6349  -52.6312 H         1 UNK         0.0800 
    247 H247        2.7918  -18.6373  -54.0596 H         1 UNK         0.0800 
@<TRIPOS>BOND
     1    1    2 1    
     2    1  127 1    
     3    1  128 1    
     4    1  129 1    
     5    2    3 2    
     6    2    4 am   BACKBONE|DICT|INTERRES
     7    4    5 1    
     8    4  130 1    
     9    5    6 1    
    10    5   65 1    
    11    5  131 1    
    12    6    7 1    
    13    6  132 1    
    14    6  133 1    
    15    7    8 1    
    16    8    9 1    
    17    8  134 1    
    18    8  135 1    
    19    9   10 ar   
    20    9   14 ar   
    21   10   11 ar   
    22   10  136 1    
    23   11   12 ar   
    24   11  126 1    
    25   12   13 ar   
    26   12  137 1    
    27   13   14 ar   
    28   13   15 1    
    29   14  138 1    
    30   15   16 1    
    31   15  139 1    
    32   15  140 1    
    33   16   17 1    
    34   17   18 1    
    35   17  141 1    
    36   17  142 1    
    37   18   19 1    
    38   18   67 1    
    39   18  143 1    
    40   19   20 am   BACKBONE|DICT|INTERRES
    41   19  144 1    
    42   20   21 2    
    43   20   22 1    
    44   22   23 1    
    45   22   24 1    
    46   22  145 1    
    47   23  146 1    
    48   23  147 1    
    49   23  148 1    
    50   24   25 am   BACKBONE|DICT|INTERRES
    51   24  149 1    
    52   25   26 2    
    53   25   27 1    
    54   27   28 1    
    55   27   29 1    
    56   27  150 1    
    57   28  151 1    
    58   28  152 1    
    59   28  153 1    
    60   29   30 am   BACKBONE|DICT|INTERRES
    61   29  154 1    
    62   30   31 2    
    63   30   32 1    
    64   32   33 1    
    65   32   34 1    
    66   32  155 1    
    67   33  156 1    
    68   33  157 1    
    69   33  158 1    
    70   34   35 am   BACKBONE|DICT|INTERRES
    71   34  159 1    
    72   35   36 2    
    73   35   37 1    
    74   37   38 1    
    75   37   39 1    
    76   37  160 1    
    77   38  161 1    
    78   38  162 1    
    79   38  163 1    
    80   39   40 am   BACKBONE|DICT|INTERRES
    81   39  164 1    
    82   40   41 2    
    83   40   42 1    
    84   42   43 1    
    85   42   44 1    
    86   42  165 1    
    87   43  166 1    
    88   43  167 1    
    89   43  168 1    
    90   44   45 am   BACKBONE|DICT|INTERRES
    91   44  169 1    
    92   45   46 2    
    93   45   47 1    
    94   47   48 1    
    95   47   49 1    
    96   47  170 1    
    97   48  171 1    
    98   48  172 1    
    99   48  173 1    
   100   49   50 am   BACKBONE|DICT|INTERRES
   101   49  174 1    
   102   50   51 2    
   103   50   52 1    
   104   52   53 1    
   105   52   54 1    
   106   52  175 1    
   107   53  176 1    
   108   53  177 1    
   109   53  178 1    
   110   54   55 am   BACKBONE|DICT|INTERRES
   111   54  179 1    
   112   55   56 2    
   113   55   57 1    
   114   57   58 1    
   115   57   59 1    
   116   57  180 1    
   117   58  181 1    
   118   58  182 1    
   119   58  183 1    
   120   59   60 am   BACKBONE|DICT|INTERRES
   121   59  184 1    
   122   60   61 2    
   123   60   62 1    
   124   62   63 1    
   125   62   64 1    
   126   62  185 1    
   127   63  186 1    
   128   63  187 1    
   129   63  188 1    
   130   64   65 am   BACKBONE|DICT|INTERRES
   131   64  189 1    
   132   65   66 2    
   133   67   68 2    
   134   67   69 am   BACKBONE|DICT|INTERRES
   135   69   70 1    
   136   69  190 1    
   137   70   71 1    
   138   70   72 1    
   139   70  191 1    
   140   71  192 1    
   141   71  193 1    
   142   71  194 1    
   143   72   73 2    
   144   72   74 am   BACKBONE|DICT|INTERRES
   145   74   75 1    
   146   74  195 1    
   147   75   76 1    
   148   75   77 1    
   149   75  196 1    
   150   76  197 1    
   151   76  198 1    
   152   76  199 1    
   153   77   78 2    
   154   77   79 am   BACKBONE|DICT|INTERRES
   155   79   80 1    
   156   79  200 1    
   157   80   81 1    
   158   80   82 1    
   159   80  201 1    
   160   81  202 1    
   161   81  203 1    
   162   81  204 1    
   163   82   83 2    
   164   82   84 am   BACKBONE|DICT|INTERRES
   165   84   85 1    
   166   84  205 1    
   167   85   86 1    
   168   85   87 1    
   169   85  206 1    
   170   86  207 1    
   171   86  208 1    
   172   86  209 1    
   173   87   88 2    
   174   87   89 am   BACKBONE|DICT|INTERRES
   175   89   90 1    
   176   89  210 1    
   177   90   91 1    
   178   90   92 1    
   179   90  211 1    
   180   91  212 1    
   181   91  213 1    
   182   91  214 1    
   183   92   93 2    
   184   92   94 am   BACKBONE|DICT|INTERRES
   185   94   95 1    
   186   94  215 1    
   187   95   96 1    
   188   95   97 1    
   189   95  216 1    
   190   96  217 1    
   191   96  218 1    
   192   96  219 1    
   193   97   98 2    
   194   97   99 am   BACKBONE|DICT|INTERRES
   195   99  100 1    
   196   99  220 1    
   197  100  101 1    
   198  100  102 1    
   199  100  221 1    
   200  101  222 1    
   201  101  223 1    
   202  101  224 1    
   203  102  103 2    
   204  102  104 am   BACKBONE|DICT|INTERRES
   205  104  105 1    
   206  104  225 1    
   207  105  106 1    
   208  105  107 1    
   209  105  226 1    
   210  106  227 1    
   211  106  228 1    
   212  106  229 1    
   213  107  108 2    
   214  107  109 am   BACKBONE|DICT|INTERRES
   215  109  110 1    
   216  109  230 1    
   217  110  111 1    
   218  110  112 1    
   219  110  231 1    
   220  111  232 1    
   221  111  233 1    
   222  111  234 1    
   223  112  113 2    
   224  112  114 am   BACKBONE|DICT|INTERRES
   225  114  115 1    
   226  114  235 1    
   227  115  116 1    
   228  115  117 1    
   229  115  236 1    
   230  116  237 1    
   231  116  238 1    
   232  116  239 1    
   233  117  118 2    
   234  117  119 am   BACKBONE|DICT|INTERRES
   235  119  120 1    
   236  119  240 1    
   237  120  121 1    
   238  120  124 1    
   239  120  241 1    
   240  121  122 am   BACKBONE|DICT|INTERRES
   241  121  123 2    
   242  122  242 1    
   243  122  243 1    
   244  124  125 1    
   245  124  244 1    
   246  124  245 1    
   247  125  126 1    
   248  126  246 1    
   249  126  247 1    
@<TRIPOS>SUBSTRUCTURE
     1 UNK         1 GROUP             0       ****    0 ROOT    
