@<TRIPOS>MOLECULE
3R540
247   249    1
SMALL
USER_CHARGES


@<TRIPOS>ATOM
      1 CA         -1.9831  -18.0684  -49.9380 C.3       0 UNK        -0.1800 
      2 C          -1.3019  -17.6434  -48.6478 C.2       0 UNK         0.5000 
      3 O          -0.3840  -18.3231  -48.1923 O.2       0 UNK        -0.5000 
      4 N          -1.7505  -16.5294  -48.0553 N.am      1 UNK        -0.5000 
      5 CA         -1.1675  -15.9262  -46.8537 C.3       1 UNK         0.1400 
      6 C6         -1.9970  -14.7204  -46.3433 C.3       23 UNK        -0.0398 
      7 S7         -3.4843  -15.2171  -45.4189 S.3       23 UNK        -0.2404 
      8 C8         -4.8335  -14.7966  -46.5684 C.3       23 UNK        -0.0205 
      9 C9         -5.0734  -15.8805  -47.6097 C.ar      23 UNK        -0.0193 
     10 C10        -5.0647  -15.5723  -48.9748 C.ar      23 UNK        -0.1150 
     11 C11        -5.3329  -16.5610  -49.9285 C.ar      23 UNK        -0.0193 
     12 C12        -5.5969  -17.8661  -49.5017 C.ar      23 UNK        -0.1150 
     13 C13        -5.6094  -18.1860  -48.1428 C.ar      23 UNK        -0.0193 
     14 C14        -5.3497  -17.1892  -47.2016 C.ar      23 UNK        -0.1150 
     15 C15        -5.9323  -19.6023  -47.6975 C.3       23 UNK        -0.0205 
     16 S16        -4.6019  -20.7618  -48.1251 S.3       23 UNK        -0.2404 
     17 C17        -3.3428  -20.3667  -46.8679 C.3       23 UNK        -0.0398 
     18 CA         -2.1336  -21.3324  -46.9410 C.3       11 UNK         0.1400 
     19 N          -0.9737  -20.8305  -46.1997 N.am      11 UNK        -0.5000 
     20 C           0.2658  -21.3328  -46.2986 C.2       10 UNK         0.5000 
     21 O           0.5701  -22.2539  -47.0545 O.2       10 UNK        -0.5000 
     22 CA          1.3325  -20.7598  -45.3475 C.3       10 UNK         0.1400 
     23 CB          1.9869  -19.5071  -45.9409 C.3       10 UNK        -0.1800 
     24 N           0.7948  -20.4511  -44.0225 N.am      10 UNK        -0.5000 
     25 C           0.3708  -21.3811  -43.1531 C.2       9 UNK         0.5000 
     26 O           0.4673  -22.5914  -43.3525 O.2       9 UNK        -0.5000 
     27 CA         -0.3379  -20.8788  -41.8791 C.3       9 UNK         0.1400 
     28 CB          0.6705  -20.7123  -40.7355 C.3       9 UNK        -0.1800 
     29 N          -1.0647  -19.6224  -42.0880 N.am      9 UNK        -0.5000 
     30 C          -2.0755  -19.4812  -42.9593 C.2       8 UNK         0.5000 
     31 O          -2.5397  -20.4232  -43.6026 O.2       8 UNK        -0.5000 
     32 CA         -2.6428  -18.0707  -43.2073 C.3       8 UNK         0.1400 
     33 CB         -4.0786  -17.9634  -42.6728 C.3       8 UNK        -0.1800 
     34 N          -1.8473  -16.9740  -42.6535 N.am      8 UNK        -0.5000 
     35 C          -0.6143  -16.6141  -43.0341 C.2       7 UNK         0.5000 
     36 O           0.0437  -17.2169  -43.8852 O.2       7 UNK        -0.5000 
     37 CA         -0.0019  -15.3773  -42.3425 C.3       7 UNK         0.1400 
     38 CB         -1.0152  -14.5507  -41.5219 C.3       7 UNK        -0.1800 
     39 N           1.1551  -15.6997  -41.5047 N.am      7 UNK        -0.5000 
     40 C           1.2526  -16.6616  -40.5712 C.2       6 UNK         0.5000 
     41 O           0.3735  -17.4932  -40.3399 O.2       6 UNK        -0.5000 
     42 CA          2.5457  -16.6815  -39.7279 C.3       6 UNK         0.1400 
     43 CB          3.5988  -17.5914  -40.3789 C.3       6 UNK        -0.1800 
     44 N           3.1303  -15.3529  -39.5379 N.am      6 UNK        -0.5000 
     45 C           2.5442  -14.3270  -38.9037 C.2       5 UNK         0.5000 
     46 O           1.4906  -14.4285  -38.2741 O.2       5 UNK        -0.5000 
     47 CA          3.2321  -12.9474  -39.0045 C.3       5 UNK         0.1400 
     48 CB          3.8835  -12.5743  -37.6634 C.3       5 UNK        -0.1800 
     49 N           4.2392  -12.8204  -40.0673 N.am      5 UNK        -0.5000 
     50 C           4.0293  -12.9832  -41.3808 C.2       4 UNK         0.5000 
     51 O           2.9535  -13.3468  -41.8631 O.2       4 UNK        -0.5000 
     52 CA          5.2562  -12.7731  -42.2882 C.3       4 UNK         0.1400 
     53 CB          6.1969  -13.9863  -42.1989 C.3       4 UNK        -0.1800 
     54 N           4.8734  -12.5924  -43.6860 N.am      4 UNK        -0.5000 
     55 C           4.2909  -11.5019  -44.2030 C.2       3 UNK         0.5000 
     56 O           4.1148  -10.4557  -43.5770 O.2       3 UNK        -0.5000 
     57 CA          3.8266  -11.6032  -45.6713 C.3       3 UNK         0.1400 
     58 CB          4.8775  -10.9949  -46.6129 C.3       3 UNK        -0.1800 
     59 N           3.5650  -12.9885  -46.0761 N.am      3 UNK        -0.5000 
     60 C           2.4836  -13.6845  -45.7032 C.2       2 UNK         0.5000 
     61 O           1.5323  -13.1978  -45.0867 O.2       2 UNK        -0.5000 
     62 CA          2.5054  -15.1906  -46.0248 C.3       2 UNK         0.1400 
     63 CB          3.2787  -15.9422  -44.9287 C.3       2 UNK        -0.1800 
     64 N           1.1550  -15.7415  -46.1101 N.am      2 UNK        -0.5000 
     65 C           0.2884  -15.4759  -47.0940 C.2       1 UNK         0.5000 
     66 O           0.5797  -14.8582  -48.1217 O.2       1 UNK        -0.5000 
     67 C          -2.5139  -22.7540  -46.4782 C.2       11 UNK         0.5000 
     68 O          -2.8167  -23.6028  -47.3152 O.2       11 UNK        -0.5000 
     69 N          -2.4625  -22.9905  -45.1591 N.am      12 UNK        -0.5000 
     70 CA         -2.7093  -24.2945  -44.5436 C.3       12 UNK         0.1400 
     71 CB         -2.8050  -24.1273  -43.0195 C.3       12 UNK        -0.1800 
     72 C          -1.6460  -25.3469  -44.9162 C.2       12 UNK         0.5000 
     73 O          -1.9910  -26.5143  -45.1036 O.2       12 UNK        -0.5000 
     74 N          -0.3800  -24.9186  -45.0177 N.am      13 UNK        -0.5000 
     75 CA          0.7478  -25.7564  -45.4235 C.3       13 UNK         0.1400 
     76 CB          2.0618  -25.0574  -45.0416 C.3       13 UNK        -0.1800 
     77 C           0.7325  -26.0995  -46.9254 C.2       13 UNK         0.5000 
     78 O           1.0385  -27.2363  -47.2891 O.2       13 UNK        -0.5000 
     79 N           0.4002  -25.1138  -47.7689 N.am      14 UNK        -0.5000 
     80 CA          0.3443  -25.2434  -49.2242 C.3       14 UNK         0.1400 
     81 CB          0.2526  -23.8414  -49.8454 C.3       14 UNK        -0.1800 
     82 C          -0.8348  -26.1021  -49.7161 C.2       14 UNK         0.5000 
     83 O          -1.8783  -26.1696  -49.0639 O.2       14 UNK        -0.5000 
     84 N          -0.6663  -26.6878  -50.9065 N.am      15 UNK        -0.5000 
     85 CA         -1.7470  -27.2890  -51.6827 C.3       15 UNK         0.1400 
     86 CB         -1.1744  -28.4081  -52.5658 C.3       15 UNK        -0.1800 
     87 C          -2.3981  -26.1967  -52.5462 C.2       15 UNK         0.5000 
     88 O          -1.6766  -25.4145  -53.1707 O.2       15 UNK        -0.5000 
     89 N          -3.7382  -26.1525  -52.5575 N.am      16 UNK        -0.5000 
     90 CA         -4.5867  -25.2466  -53.3490 C.3       16 UNK         0.1400 
     91 CB         -4.5468  -25.6526  -54.8371 C.3       16 UNK        -0.1800 
     92 C          -4.2776  -23.7449  -53.1490 C.2       16 UNK         0.5000 
     93 O          -4.4273  -22.9573  -54.0845 O.2       16 UNK        -0.5000 
     94 N          -3.8191  -23.3772  -51.9431 N.am      17 UNK        -0.5000 
     95 CA         -3.3550  -22.0401  -51.5495 C.3       17 UNK         0.1400 
     96 CB         -4.5055  -21.0125  -51.6413 C.3       17 UNK        -0.1800 
     97 C          -2.0990  -21.5624  -52.3147 C.2       17 UNK         0.5000 
     98 O          -1.8546  -20.3572  -52.3705 O.2       17 UNK        -0.5000 
     99 N          -1.3412  -22.4944  -52.9177 N.am      18 UNK        -0.5000 
    100 CA        -0.1460  -22.3226  -53.7603 C.3       18 UNK         0.1400 
    101 CB         0.9988  -21.6297  -52.9948 C.3       18 UNK        -0.1800 
    102 C         -0.4080  -21.6136  -55.1051 C.2       18 UNK         0.5000 
    103 O          0.0728  -22.0715  -56.1417 O.2       18 UNK        -0.5000 
    104 N         -1.1699  -20.5170  -55.0652 N.am      19 UNK        -0.5000 
    105 CA        -1.5366  -19.6639  -56.1938 C.3       19 UNK         0.1400 
    106 CB        -1.8913  -18.2750  -55.6372 C.3       19 UNK        -0.1800 
    107 C         -2.6928  -20.2189  -57.0515 C.2       19 UNK         0.5000 
    108 O         -3.0458  -19.5806  -58.0427 O.2       19 UNK        -0.5000 
    109 N         -3.2636  -21.3680  -56.6564 N.am      20 UNK        -0.5000 
    110 CA        -4.4525  -22.0195  -57.2141 C.3       20 UNK         0.1400 
    111 CB        -4.3028  -22.3305  -58.7188 C.3       20 UNK        -0.1800 
    112 C         -5.7104  -21.2010  -56.8753 C.2       20 UNK         0.5000 
    113 O         -6.2382  -20.4785  -57.7229 O.2       20 UNK        -0.5000 
    114 N         -6.1262  -21.3023  -55.6049 N.am      21 UNK        -0.5000 
    115 CA        -7.2884  -20.6481  -54.9905 C.3       21 UNK         0.1400 
    116 CB        -8.5992  -21.2268  -55.5622 C.3       21 UNK        -0.1800 
    117 C         -7.2143  -19.1091  -55.0763 C.2       21 UNK         0.5000 
    118 O         -8.1874  -18.4544  -55.4543 O.2       21 UNK        -0.5000 
    119 N         -6.0315  -18.5765  -54.7444 N.am      22 UNK        -0.5000 
    120 CA        -5.6523  -17.1529  -54.8129 C.3       22 UNK         0.1400 
    121 C         -5.4397  -16.6037  -56.2576 C.2       22 UNK         0.5000 
    122 N         -5.5046  -17.4149  -57.3067 N.am      22 UNK        -0.7600 
    123 O         -5.1754  -15.4173  -56.4319 O.2       22 UNK        -0.5000 
    124 C124       -6.5487  -16.2022  -53.9636 C.3       23 UNK        -0.0398 
    125 S125       -6.8483  -16.7645  -52.2527 S.3       23 UNK        -0.2404 
    126 C126       -5.3209  -16.2273  -51.4165 C.3       23 UNK        -0.0205 
    127 H127       -1.2355  -18.3232  -50.6888 H         1 UNK         0.0600 
    128 H128       -2.6051  -18.9454  -49.7626 H         1 UNK         0.0600 
    129 H129       -2.6077  -17.2746  -50.3442 H         1 UNK         0.0600 
    130 H130       -2.5232  -16.0274  -48.4672 H         1 UNK         0.3000 
    131 H131       -1.1623  -16.7013  -46.0868 H         1 UNK         0.0600 
    132 H132       -1.4126  -14.1134  -45.6479 H         1 UNK         0.0800 
    133 H133       -2.2602  -14.0524  -47.1649 H         1 UNK         0.0800 
    134 H134       -5.7501  -14.6712  -45.9907 H         1 UNK         0.0800 
    135 H135       -4.6358  -13.8307  -47.0354 H         1 UNK         0.0800 
    136 H136       -4.8628  -14.5596  -49.2947 H         1 UNK         0.1150 
    137 H137       -5.8056  -18.6363  -50.2302 H         1 UNK         0.1150 
    138 H138       -5.3685  -17.4276  -46.1473 H         1 UNK         0.1150 
    139 H139       -6.1284  -19.6455  -46.6251 H         1 UNK         0.0800 
    140 H140       -6.8504  -19.9265  -48.1894 H         1 UNK         0.0800 
    141 H141       -3.8066  -20.3841  -45.8808 H         1 UNK         0.0800 
    142 H142       -3.0168  -19.3399  -47.0321 H         1 UNK         0.0800 
    143 H143       -1.8260  -21.4003  -47.9874 H         1 UNK         0.0600 
    144 H144       -1.1499  -20.1109  -45.5156 H         1 UNK         0.3000 
    145 H145        2.1084  -21.5194  -45.2312 H         1 UNK         0.0600 
    146 H146        2.8475  -19.2074  -45.3448 H         1 UNK         0.0600 
    147 H147        2.3421  -19.6911  -46.9557 H         1 UNK         0.0600 
    148 H148        1.2908  -18.6691  -45.9839 H         1 UNK         0.0600 
    149 H149        0.6638  -19.4729  -43.7969 H         1 UNK         0.3000 
    150 H150       -1.0655  -21.6370  -41.5833 H         1 UNK         0.0600 
    151 H151        1.1744  -21.6550  -40.5185 H         1 UNK         0.0600 
    152 H152        0.1805  -20.3848  -39.8184 H         1 UNK         0.0600 
    153 H153        1.4371  -19.9809  -40.9878 H         1 UNK         0.0600 
    154 H154       -0.7250  -18.8084  -41.5862 H         1 UNK         0.3000 
    155 H155       -2.6760  -17.9374  -44.2903 H         1 UNK         0.0600 
    156 H156       -4.1121  -18.0692  -41.5878 H         1 UNK         0.0600 
    157 H157       -4.7154  -18.7398  -43.0992 H         1 UNK         0.0600 
    158 H158       -4.5256  -17.0035  -42.9323 H         1 UNK         0.0600 
    159 H159       -2.2888  -16.4349  -41.9231 H         1 UNK         0.3000 
    160 H160        0.3691  -14.7375  -43.1439 H         1 UNK         0.0600 
    161 H161       -0.5529  -13.6356  -41.1509 H         1 UNK         0.0600 
    162 H162       -1.8696  -14.2510  -42.1307 H         1 UNK         0.0600 
    163 H163       -1.3894  -15.0998  -40.6569 H         1 UNK         0.0600 
    164 H164        1.9317  -15.0523  -41.5990 H         1 UNK         0.3000 
    165 H165        2.2970  -17.0850  -38.7443 H         1 UNK         0.0600 
    166 H166        4.5064  -17.6386  -39.7768 H         1 UNK         0.0600 
    167 H167        3.2286  -18.6111  -40.4798 H         1 UNK         0.0600 
    168 H168        3.8739  -17.2413  -41.3749 H         1 UNK         0.0600 
    169 H169        4.0012  -15.1719  -40.0134 H         1 UNK         0.3000 
    170 H170        2.4461  -12.2196  -39.2155 H         1 UNK         0.0600 
    171 H171        3.1592  -12.6188  -36.8488 H         1 UNK         0.0600 
    172 H172        4.7012  -13.2512  -37.4126 H         1 UNK         0.0600 
    173 H173        4.2806  -11.5593  -37.6852 H         1 UNK         0.0600 
    174 H174        5.1631  -12.5510  -39.7606 H         1 UNK         0.3000 
    175 H175        5.7902  -11.8812  -41.9536 H         1 UNK         0.0600 
    176 H176        5.6994  -14.9063  -42.5098 H         1 UNK         0.0600 
    177 H177        7.0752  -13.8510  -42.8305 H         1 UNK         0.0600 
    178 H178        6.5553  -14.1357  -41.1797 H         1 UNK         0.0600 
    179 H179        4.9496  -13.4058  -44.2755 H         1 UNK         0.3000 
    180 H180        2.9046  -11.0260  -45.7698 H         1 UNK         0.0600 
    181 H181        5.8251  -11.5326  -46.5619 H         1 UNK         0.0600 
    182 H182        5.0766   -9.9540  -46.3543 H         1 UNK         0.0600 
    183 H183        4.5362  -11.0115  -47.6481 H         1 UNK         0.0600 
    184 H184        4.2949  -13.4502  -46.6000 H         1 UNK         0.3000 
    185 H185        3.0066  -15.3430  -46.9830 H         1 UNK         0.0600 
    186 H186        4.2982  -15.5673  -44.8344 H         1 UNK         0.0600 
    187 H187        2.8002  -15.8399  -43.9539 H         1 UNK         0.0600 
    188 H188        3.3514  -17.0033  -45.1562 H         1 UNK         0.0600 
    189 H189        0.8323  -16.2650  -45.3010 H         1 UNK         0.3000 
    190 H190       -2.2551  -22.2173  -44.5359 H         1 UNK         0.3000 
    191 H191       -3.6741  -24.6555  -44.9058 H         1 UNK         0.0600 
    192 H192       -1.8623  -23.7876  -42.5908 H         1 UNK         0.0600 
    193 H193       -3.0597  -25.0732  -42.5401 H         1 UNK         0.0600 
    194 H194       -3.5760  -23.4058  -42.7481 H         1 UNK         0.0600 
    195 H195       -0.1690  -23.9590  -44.7678 H         1 UNK         0.3000 
    196 H196        0.6931  -26.6947  -44.8674 H         1 UNK         0.0600 
    197 H197        2.1673  -24.0956  -45.5445 H         1 UNK         0.0600 
    198 H198        2.9234  -25.6680  -45.3146 H         1 UNK         0.0600 
    199 H199        2.1158  -24.8801  -43.9673 H         1 UNK         0.0600 
    200 H200        0.1895  -24.1954  -47.3926 H         1 UNK         0.3000 
    201 H201        1.2739  -25.7096  -49.5577 H         1 UNK         0.0600 
    202 H202        0.1971  -23.9020  -50.9321 H         1 UNK         0.0600 
    203 H203        1.1268  -23.2394  -49.5970 H         1 UNK         0.0600 
    204 H204       -0.6334  -23.3063  -49.5008 H         1 UNK         0.0600 
    205 H205        0.2000  -26.5415  -51.4048 H         1 UNK         0.3000 
    206 H206       -2.4930  -27.7248  -51.0145 H         1 UNK         0.0600 
    207 H207       -0.7056  -29.1850  -51.9617 H         1 UNK         0.0600 
    208 H208       -1.9622  -28.8827  -53.1522 H         1 UNK         0.0600 
    209 H209       -0.4271  -28.0303  -53.2650 H         1 UNK         0.0600 
    210 H210       -4.2400  -26.8208  -51.9887 H         1 UNK         0.3000 
    211 H211       -5.6078  -25.3919  -52.9939 H         1 UNK         0.0600 
    212 H212       -3.5675  -25.4659  -55.2795 H         1 UNK         0.0600 
    213 H213       -5.2816  -25.0936  -55.4177 H         1 UNK         0.0600 
    214 H214       -4.7755  -26.7107  -54.9639 H         1 UNK         0.0600 
    215 H215       -3.7254  -24.0963  -51.2394 H         1 UNK         0.3000 
    216 H216       -3.0587  -22.1166  -50.5025 H         1 UNK         0.0600 
    217 H217       -4.7926  -20.8054  -52.6717 H         1 UNK         0.0600 
    218 H218       -4.2122  -20.0623  -51.1960 H         1 UNK         0.0600 
    219 H219       -5.3907  -21.3592  -51.1085 H         1 UNK         0.0600 
    220 H220       -1.6550  -23.4588  -52.8581 H         1 UNK         0.3000 
    221 H221        0.1872  -23.3335  -54.0009 H         1 UNK         0.0600 
    222 H222        0.7492  -20.6042  -52.7216 H         1 UNK         0.0600 
    223 H223        1.2525  -22.1650  -52.0816 H         1 UNK         0.0600 
    224 H224        1.9021  -21.5895  -53.6046 H         1 UNK         0.0600 
    225 H225       -1.5044  -20.2309  -54.1470 H         1 UNK         0.3000 
    226 H226       -0.6703  -19.5597  -56.8501 H         1 UNK         0.0600 
    227 H227       -1.0411  -17.8305  -55.1195 H         1 UNK         0.0600 
    228 H228       -2.1811  -17.5871  -56.4327 H         1 UNK         0.0600 
    229 H229       -2.7185  -18.3319  -54.9304 H         1 UNK         0.0600 
    230 H230       -2.9087  -21.7885  -55.8086 H         1 UNK         0.3000 
    231 H231       -4.5444  -22.9810  -56.7081 H         1 UNK         0.0600 
    232 H232       -3.3927  -22.8975  -58.9144 H         1 UNK         0.0600 
    233 H233       -4.2758  -21.4303  -59.3325 H         1 UNK         0.0600 
    234 H234       -5.1424  -22.9312  -59.0699 H         1 UNK         0.0600 
    235 H235       -5.5772  -21.8978  -54.9853 H         1 UNK         0.3000 
    236 H236       -7.2556  -20.8962  -53.9285 H         1 UNK         0.0600 
    237 H237       -9.4656  -20.8270  -55.0341 H         1 UNK         0.0600 
    238 H238       -8.7212  -20.9878  -56.6191 H         1 UNK         0.0600 
    239 H239       -8.6287  -22.3114  -55.4581 H         1 UNK         0.0600 
    240 H240       -5.2949  -19.2080  -54.4690 H         1 UNK         0.3000 
    241 H241       -4.6595  -17.1144  -54.3660 H         1 UNK         0.0600 
    242 H242       -5.7249  -18.3971  -57.2068 H         1 UNK         0.3800 
    243 H243       -5.3395  -17.0402  -58.2271 H         1 UNK         0.3800 
    244 H244       -6.1113  -15.2033  -53.9217 H         1 UNK         0.0800 
    245 H245       -7.5205  -16.0768  -54.4428 H         1 UNK         0.0800 
    246 H246       -4.4653  -16.7185  -51.8811 H         1 UNK         0.0800 
    247 H247       -5.1908  -15.1548  -51.5685 H         1 UNK         0.0800 
@<TRIPOS>BOND
     1    1    2 1    
     2    1  127 1    
     3    1  128 1    
     4    1  129 1    
     5    2    3 2    
     6    2    4 am   BACKBONE|DICT|INTERRES
     7    4    5 1    
     8    4  130 1    
     9    5    6 1    
    10    5   65 1    
    11    5  131 1    
    12    6    7 1    
    13    6  132 1    
    14    6  133 1    
    15    7    8 1    
    16    8    9 1    
    17    8  134 1    
    18    8  135 1    
    19    9   10 ar   
    20    9   14 ar   
    21   10   11 ar   
    22   10  136 1    
    23   11   12 ar   
    24   11  126 1    
    25   12   13 ar   
    26   12  137 1    
    27   13   14 ar   
    28   13   15 1    
    29   14  138 1    
    30   15   16 1    
    31   15  139 1    
    32   15  140 1    
    33   16   17 1    
    34   17   18 1    
    35   17  141 1    
    36   17  142 1    
    37   18   19 1    
    38   18   67 1    
    39   18  143 1    
    40   19   20 am   BACKBONE|DICT|INTERRES
    41   19  144 1    
    42   20   21 2    
    43   20   22 1    
    44   22   23 1    
    45   22   24 1    
    46   22  145 1    
    47   23  146 1    
    48   23  147 1    
    49   23  148 1    
    50   24   25 am   BACKBONE|DICT|INTERRES
    51   24  149 1    
    52   25   26 2    
    53   25   27 1    
    54   27   28 1    
    55   27   29 1    
    56   27  150 1    
    57   28  151 1    
    58   28  152 1    
    59   28  153 1    
    60   29   30 am   BACKBONE|DICT|INTERRES
    61   29  154 1    
    62   30   31 2    
    63   30   32 1    
    64   32   33 1    
    65   32   34 1    
    66   32  155 1    
    67   33  156 1    
    68   33  157 1    
    69   33  158 1    
    70   34   35 am   BACKBONE|DICT|INTERRES
    71   34  159 1    
    72   35   36 2    
    73   35   37 1    
    74   37   38 1    
    75   37   39 1    
    76   37  160 1    
    77   38  161 1    
    78   38  162 1    
    79   38  163 1    
    80   39   40 am   BACKBONE|DICT|INTERRES
    81   39  164 1    
    82   40   41 2    
    83   40   42 1    
    84   42   43 1    
    85   42   44 1    
    86   42  165 1    
    87   43  166 1    
    88   43  167 1    
    89   43  168 1    
    90   44   45 am   BACKBONE|DICT|INTERRES
    91   44  169 1    
    92   45   46 2    
    93   45   47 1    
    94   47   48 1    
    95   47   49 1    
    96   47  170 1    
    97   48  171 1    
    98   48  172 1    
    99   48  173 1    
   100   49   50 am   BACKBONE|DICT|INTERRES
   101   49  174 1    
   102   50   51 2    
   103   50   52 1    
   104   52   53 1    
   105   52   54 1    
   106   52  175 1    
   107   53  176 1    
   108   53  177 1    
   109   53  178 1    
   110   54   55 am   BACKBONE|DICT|INTERRES
   111   54  179 1    
   112   55   56 2    
   113   55   57 1    
   114   57   58 1    
   115   57   59 1    
   116   57  180 1    
   117   58  181 1    
   118   58  182 1    
   119   58  183 1    
   120   59   60 am   BACKBONE|DICT|INTERRES
   121   59  184 1    
   122   60   61 2    
   123   60   62 1    
   124   62   63 1    
   125   62   64 1    
   126   62  185 1    
   127   63  186 1    
   128   63  187 1    
   129   63  188 1    
   130   64   65 am   BACKBONE|DICT|INTERRES
   131   64  189 1    
   132   65   66 2    
   133   67   68 2    
   134   67   69 am   BACKBONE|DICT|INTERRES
   135   69   70 1    
   136   69  190 1    
   137   70   71 1    
   138   70   72 1    
   139   70  191 1    
   140   71  192 1    
   141   71  193 1    
   142   71  194 1    
   143   72   73 2    
   144   72   74 am   BACKBONE|DICT|INTERRES
   145   74   75 1    
   146   74  195 1    
   147   75   76 1    
   148   75   77 1    
   149   75  196 1    
   150   76  197 1    
   151   76  198 1    
   152   76  199 1    
   153   77   78 2    
   154   77   79 am   BACKBONE|DICT|INTERRES
   155   79   80 1    
   156   79  200 1    
   157   80   81 1    
   158   80   82 1    
   159   80  201 1    
   160   81  202 1    
   161   81  203 1    
   162   81  204 1    
   163   82   83 2    
   164   82   84 am   BACKBONE|DICT|INTERRES
   165   84   85 1    
   166   84  205 1    
   167   85   86 1    
   168   85   87 1    
   169   85  206 1    
   170   86  207 1    
   171   86  208 1    
   172   86  209 1    
   173   87   88 2    
   174   87   89 am   BACKBONE|DICT|INTERRES
   175   89   90 1    
   176   89  210 1    
   177   90   91 1    
   178   90   92 1    
   179   90  211 1    
   180   91  212 1    
   181   91  213 1    
   182   91  214 1    
   183   92   93 2    
   184   92   94 am   BACKBONE|DICT|INTERRES
   185   94   95 1    
   186   94  215 1    
   187   95   96 1    
   188   95   97 1    
   189   95  216 1    
   190   96  217 1    
   191   96  218 1    
   192   96  219 1    
   193   97   98 2    
   194   97   99 am   BACKBONE|DICT|INTERRES
   195   99  100 1    
   196   99  220 1    
   197  100  101 1    
   198  100  102 1    
   199  100  221 1    
   200  101  222 1    
   201  101  223 1    
   202  101  224 1    
   203  102  103 2    
   204  102  104 am   BACKBONE|DICT|INTERRES
   205  104  105 1    
   206  104  225 1    
   207  105  106 1    
   208  105  107 1    
   209  105  226 1    
   210  106  227 1    
   211  106  228 1    
   212  106  229 1    
   213  107  108 2    
   214  107  109 am   BACKBONE|DICT|INTERRES
   215  109  110 1    
   216  109  230 1    
   217  110  111 1    
   218  110  112 1    
   219  110  231 1    
   220  111  232 1    
   221  111  233 1    
   222  111  234 1    
   223  112  113 2    
   224  112  114 am   BACKBONE|DICT|INTERRES
   225  114  115 1    
   226  114  235 1    
   227  115  116 1    
   228  115  117 1    
   229  115  236 1    
   230  116  237 1    
   231  116  238 1    
   232  116  239 1    
   233  117  118 2    
   234  117  119 am   BACKBONE|DICT|INTERRES
   235  119  120 1    
   236  119  240 1    
   237  120  121 1    
   238  120  124 1    
   239  120  241 1    
   240  121  122 am   BACKBONE|DICT|INTERRES
   241  121  123 2    
   242  122  242 1    
   243  122  243 1    
   244  124  125 1    
   245  124  244 1    
   246  124  245 1    
   247  125  126 1    
   248  126  246 1    
   249  126  247 1    
@<TRIPOS>SUBSTRUCTURE
     1 UNK         1 GROUP             0       ****    0 ROOT    
