@<TRIPOS>MOLECULE
3R540
247   249    1
SMALL
USER_CHARGES


@<TRIPOS>ATOM
      1 CA          1.1081  -10.0099  -49.7276 C.3       0 UNK        -0.1800 
      2 C           1.7884  -10.9836  -48.7753 C.2       0 UNK         0.5000 
      3 O           1.2037  -11.3308  -47.7509 O.2       0 UNK        -0.5000 
      4 N           3.0048  -11.4212  -49.1305 N.am      1 UNK        -0.5000 
      5 CA          3.9051  -12.3231  -48.3947 C.3       1 UNK         0.1400 
      6 C6          3.2595  -13.6449  -47.9020 C.3       23 UNK        -0.0398 
      7 S7          2.4692  -14.6049  -49.2368 S.3       23 UNK        -0.2404 
      8 C8          0.8407  -14.9292  -48.4866 C.3       23 UNK        -0.0205 
      9 C9         -0.0351  -15.8433  -49.3352 C.ar      23 UNK        -0.0193 
     10 C10        -1.3604  -15.4915  -49.6059 C.ar      23 UNK        -0.1150 
     11 C11        -2.1943  -16.3321  -50.3512 C.ar      23 UNK        -0.0193 
     12 C12        -1.6736  -17.5379  -50.8418 C.ar      23 UNK        -0.1150 
     13 C13        -0.3494  -17.9035  -50.5814 C.ar      23 UNK        -0.0193 
     14 C14         0.4578  -17.0598  -49.8151 C.ar      23 UNK        -0.1150 
     15 C15         0.2224  -19.2007  -51.1389 C.3       23 UNK        -0.0205 
     16 S16        -0.5391  -20.6876  -50.4174 S.3       23 UNK        -0.2404 
     17 C17        -0.3285  -20.4016  -48.6290 C.3       23 UNK        -0.0398 
     18 CA         -0.4808  -21.6864  -47.7801 C.3       11 UNK         0.1400 
     19 N          -0.0994  -21.4561  -46.3866 N.am      11 UNK        -0.5000 
     20 C          -0.0167  -22.3990  -45.4376 C.2       10 UNK         0.5000 
     21 O          -0.2096  -23.5980  -45.6399 O.2       10 UNK        -0.5000 
     22 CA          0.2663  -21.9079  -44.0074 C.3       10 UNK         0.1400 
     23 CB          1.7511  -21.5595  -43.8271 C.3       10 UNK        -0.1800 
     24 N          -0.5638  -20.7573  -43.6469 N.am      10 UNK        -0.5000 
     25 C          -1.9024  -20.7932  -43.5623 C.2       9 UNK         0.5000 
     26 O          -2.5709  -21.8157  -43.7195 O.2       9 UNK        -0.5000 
     27 CA         -2.6184  -19.4581  -43.2927 C.3       9 UNK         0.1400 
     28 CB         -2.5772  -19.1151  -41.7963 C.3       9 UNK        -0.1800 
     29 N          -2.0641  -18.3481  -44.0697 N.am      9 UNK        -0.5000 
     30 C          -2.0936  -18.2635  -45.4078 C.2       8 UNK         0.5000 
     31 O          -2.6225  -19.1030  -46.1328 O.2       8 UNK        -0.5000 
     32 CA         -1.3600  -17.0746  -46.0525 C.3       8 UNK         0.1400 
     33 CB         -2.2066  -15.7960  -45.9891 C.3       8 UNK        -0.1800 
     34 N          -0.0497  -16.8364  -45.4487 N.am      8 UNK        -0.5000 
     35 C           0.9648  -17.7119  -45.4930 C.2       7 UNK         0.5000 
     36 O           0.9091  -18.7992  -46.0655 O.2       7 UNK        -0.5000 
     37 CA          2.2436  -17.3268  -44.7350 C.3       7 UNK         0.1400 
     38 CB          3.1263  -16.4039  -45.5877 C.3       7 UNK        -0.1800 
     39 N           1.9450  -16.6982  -43.4481 N.am      7 UNK        -0.5000 
     40 C           1.4068  -17.3488  -42.4063 C.2       6 UNK         0.5000 
     41 O           1.1684  -18.5570  -42.4016 O.2       6 UNK        -0.5000 
     42 CA          1.0167  -16.4931  -41.1887 C.3       6 UNK         0.1400 
     43 CB          2.2308  -16.2336  -40.2860 C.3       6 UNK        -0.1800 
     44 N           0.4058  -15.2214  -41.5815 N.am      6 UNK        -0.5000 
     45 C          -0.8058  -15.1285  -42.1498 C.2       5 UNK         0.5000 
     46 O          -1.5216  -16.1011  -42.3810 O.2       5 UNK        -0.5000 
     47 CA         -1.3021  -13.7307  -42.5599 C.3       5 UNK         0.1400 
     48 CB         -2.1241  -13.1015  -41.4255 C.3       5 UNK        -0.1800 
     49 N          -0.2402  -12.8060  -42.9502 N.am      5 UNK        -0.5000 
     50 C           0.6292  -12.9843  -43.9536 C.2       4 UNK         0.5000 
     51 O           0.6635  -13.9956  -44.6593 O.2       4 UNK        -0.5000 
     52 CA          1.6489  -11.8512  -44.1945 C.3       4 UNK         0.1400 
     53 CB          1.3949  -10.5776  -43.3568 C.3       4 UNK        -0.1800 
     54 N           3.0332  -12.2896  -44.0137 N.am      4 UNK        -0.5000 
     55 C           3.5674  -12.9041  -42.9466 C.2       3 UNK         0.5000 
     56 O           2.9154  -13.2477  -41.9592 O.2       3 UNK        -0.5000 
     57 CA          5.0839  -13.1894  -42.9845 C.3       3 UNK         0.1400 
     58 CB          5.3830  -14.6684  -42.6916 C.3       3 UNK        -0.1800 
     59 N           5.6923  -12.8212  -44.2679 N.am      3 UNK        -0.5000 
     60 C           6.2740  -11.6410  -44.5235 C.2       2 UNK         0.5000 
     61 O           6.4087  -10.7464  -43.6882 O.2       2 UNK        -0.5000 
     62 CA          6.7620  -11.4102  -45.9669 C.3       2 UNK         0.1400 
     63 CB          8.1869  -11.9559  -46.1468 C.3       2 UNK        -0.1800 
     64 N           5.8870  -11.9964  -46.9894 N.am      2 UNK        -0.5000 
     65 C           4.6276  -11.6056  -47.2340 C.2       1 UNK         0.5000 
     66 O           4.0494  -10.7452  -46.5680 O.2       1 UNK        -0.5000 
     67 C          -1.8948  -22.2947  -47.8858 C.2       11 UNK         0.5000 
     68 O          -2.0603  -23.3154  -48.5517 O.2       11 UNK        -0.5000 
     69 N          -2.8756  -21.6977  -47.1936 N.am      12 UNK        -0.5000 
     70 CA         -4.2690  -22.1473  -47.1587 C.3       12 UNK         0.1400 
     71 CB         -5.1160  -21.1555  -46.3490 C.3       12 UNK        -0.1800 
     72 C          -4.4598  -23.5808  -46.6380 C.2       12 UNK         0.5000 
     73 O          -5.3930  -24.2505  -47.0763 O.2       12 UNK        -0.5000 
     74 N          -3.5725  -24.0340  -45.7452 N.am      13 UNK        -0.5000 
     75 CA         -3.5100  -25.4189  -45.2936 C.3       13 UNK         0.1400 
     76 CB         -2.8159  -25.4767  -43.9231 C.3       13 UNK        -0.1800 
     77 C          -2.7959  -26.3197  -46.3187 C.2       13 UNK         0.5000 
     78 O          -3.3527  -27.3414  -46.7225 O.2       13 UNK        -0.5000 
     79 N          -1.5664  -25.9435  -46.6954 N.am      14 UNK        -0.5000 
     80 CA         -0.6441  -26.7875  -47.4548 C.3       14 UNK         0.1400 
     81 CB          0.7843  -26.2467  -47.2864 C.3       14 UNK        -0.1800 
     82 C          -0.9806  -26.9309  -48.9487 C.2       14 UNK         0.5000 
     83 O          -0.8534  -28.0300  -49.4918 O.2       14 UNK        -0.5000 
     84 N          -1.3639  -25.8292  -49.6044 N.am      15 UNK        -0.5000 
     85 CA         -1.5349  -25.7554  -51.0540 C.3       15 UNK         0.1400 
     86 CB         -1.1901  -24.3395  -51.5356 C.3       15 UNK        -0.1800 
     87 C          -2.9486  -26.1995  -51.4606 C.2       15 UNK         0.5000 
     88 O          -3.8268  -25.3647  -51.7002 O.2       15 UNK        -0.5000 
     89 N          -3.1407  -27.5263  -51.4859 N.am      16 UNK        -0.5000 
     90 CA         -4.3447  -28.2551  -51.9107 C.3       16 UNK         0.1400 
     91 CB         -4.5865  -28.0431  -53.4202 C.3       16 UNK        -0.1800 
     92 C          -5.6038  -27.9431  -51.0731 C.2       16 UNK         0.5000 
     93 O          -6.7202  -28.1605  -51.5462 O.2       16 UNK        -0.5000 
     94 N          -5.3985  -27.4141  -49.8570 N.am      17 UNK        -0.5000 
     95 CA         -6.4058  -26.8725  -48.9388 C.3       17 UNK         0.1400 
     96 CB         -7.3298  -27.9918  -48.4148 C.3       17 UNK        -0.1800 
     97 C          -7.1909  -25.6723  -49.5249 C.2       17 UNK         0.5000 
     98 O          -8.3157  -25.4128  -49.0923 O.2       17 UNK        -0.5000 
     99 N          -6.6038  -24.9771  -50.5115 N.am      18 UNK        -0.5000 
    100 CA        -7.2574  -23.9295  -51.3005 C.3       18 UNK         0.1400 
    101 CB        -7.7327  -24.5465  -52.6286 C.3       18 UNK        -0.1800 
    102 C         -6.3479  -22.7125  -51.5488 C.2       18 UNK         0.5000 
    103 O         -6.7192  -21.8349  -52.3307 O.2       18 UNK        -0.5000 
    104 N         -5.1582  -22.6884  -50.9274 N.am      19 UNK        -0.5000 
    105 CA        -4.1116  -21.6636  -51.0638 C.3       19 UNK         0.1400 
    106 CB        -4.6049  -20.3097  -50.5094 C.3       19 UNK        -0.1800 
    107 C         -3.5625  -21.5263  -52.5027 C.2       19 UNK         0.5000 
    108 O         -3.0346  -20.4716  -52.8548 O.2       19 UNK        -0.5000 
    109 N         -3.7650  -22.5617  -53.3356 N.am      20 UNK        -0.5000 
    110 CA        -3.5737  -22.5786  -54.7942 C.3       20 UNK         0.1400 
    111 CB        -2.0704  -22.5884  -55.1419 C.3       20 UNK        -0.1800 
    112 C         -4.3413  -21.4570  -55.5406 C.2       20 UNK         0.5000 
    113 O         -3.9339  -21.0655  -56.6350 O.2       20 UNK        -0.5000 
    114 N         -5.4172  -20.9417  -54.9213 N.am      21 UNK        -0.5000 
    115 CA        -6.1821  -19.7453  -55.2949 C.3       21 UNK         0.1400 
    116 CB        -6.8822  -19.9324  -56.6573 C.3       21 UNK        -0.1800 
    117 C         -5.3773  -18.4240  -55.2099 C.2       21 UNK         0.5000 
    118 O         -5.8177  -17.4143  -55.7632 O.2       21 UNK        -0.5000 
    119 N         -4.2432  -18.4396  -54.4938 N.am      22 UNK        -0.5000 
    120 CA        -3.3179  -17.3182  -54.2560 C.3       22 UNK         0.1400 
    121 C         -2.6263  -16.7762  -55.5473 C.2       22 UNK         0.5000 
    122 N         -1.9137  -15.6588  -55.4725 N.am      22 UNK        -0.7600 
    123 O         -2.6779  -17.3777  -56.6179 O.2       22 UNK        -0.5000 
    124 C124       -3.9453  -16.1990  -53.3728 C.3       23 UNK        -0.0398 
    125 S125       -4.6194  -16.8274  -51.7940 S.3       23 UNK        -0.2404 
    126 C126       -3.6503  -15.9018  -50.5512 C.3       23 UNK        -0.0205 
    127 H127        1.7268   -9.7919  -50.5985 H         1 UNK         0.0600 
    128 H128        0.8983   -9.0706  -49.2159 H         1 UNK         0.0600 
    129 H129        0.1638  -10.4271  -50.0776 H         1 UNK         0.0600 
    130 H130        3.3963  -11.0656  -49.9911 H         1 UNK         0.3000 
    131 H131        4.6737  -12.5930  -49.1209 H         1 UNK         0.0600 
    132 H132        2.5370  -13.4482  -47.1081 H         1 UNK         0.0800 
    133 H133        4.0211  -14.2876  -47.4584 H         1 UNK         0.0800 
    134 H134        0.9842  -15.3909  -47.5114 H         1 UNK         0.0800 
    135 H135        0.3421  -13.9754  -48.3068 H         1 UNK         0.0800 
    136 H136       -1.7539  -14.5626  -49.2168 H         1 UNK         0.1150 
    137 H137       -2.2906  -18.2122  -51.4161 H         1 UNK         0.1150 
    138 H138        1.4778  -17.3442  -49.5980 H         1 UNK         0.1150 
    139 H139        0.0677  -19.2206  -52.2186 H         1 UNK         0.0800 
    140 H140        1.3014  -19.2474  -50.9836 H         1 UNK         0.0800 
    141 H141        0.6657  -19.9798  -48.4755 H         1 UNK         0.0800 
    142 H142       -1.0365  -19.6357  -48.3087 H         1 UNK         0.0800 
    143 H143        0.2177  -22.4281  -48.1736 H         1 UNK         0.0600 
    144 H144        0.1101  -20.4927  -46.1356 H         1 UNK         0.3000 
    145 H145        0.0240  -22.7232  -43.3225 H         1 UNK         0.0600 
    146 H146        1.9679  -21.2857  -42.7944 H         1 UNK         0.0600 
    147 H147        2.3850  -22.4108  -44.0782 H         1 UNK         0.0600 
    148 H148        2.0520  -20.7266  -44.4627 H         1 UNK         0.0600 
    149 H149       -0.0809  -19.8848  -43.4635 H         1 UNK         0.3000 
    150 H150       -3.6638  -19.5781  -43.5838 H         1 UNK         0.0600 
    151 H151       -2.9831  -19.9303  -41.1959 H         1 UNK         0.0600 
    152 H152       -3.1704  -18.2264  -41.5803 H         1 UNK         0.0600 
    153 H153       -1.5586  -18.9282  -41.4541 H         1 UNK         0.0600 
    154 H154       -1.6547  -17.5854  -43.5363 H         1 UNK         0.3000 
    155 H155       -1.1981  -17.3187  -47.1042 H         1 UNK         0.0600 
    156 H156       -3.1373  -15.9221  -46.5435 H         1 UNK         0.0600 
    157 H157       -1.6787  -14.9483  -46.4265 H         1 UNK         0.0600 
    158 H158       -2.4692  -15.5378  -44.9641 H         1 UNK         0.0600 
    159 H159        0.0935  -15.9445  -44.9868 H         1 UNK         0.3000 
    160 H160        2.8010  -18.2474  -44.5494 H         1 UNK         0.0600 
    161 H161        2.7454  -15.3837  -45.6011 H         1 UNK         0.0600 
    162 H162        3.1791  -16.7505  -46.6211 H         1 UNK         0.0600 
    163 H163        4.1479  -16.3806  -45.2133 H         1 UNK         0.0600 
    164 H164        2.0412  -15.6943  -43.3927 H         1 UNK         0.3000 
    165 H165        0.2830  -17.0574  -40.6088 H         1 UNK         0.0600 
    166 H166        1.9484  -15.6686  -39.3975 H         1 UNK         0.0600 
    167 H167        2.6729  -17.1719  -39.9488 H         1 UNK         0.0600 
    168 H168        3.0075  -15.6742  -40.8056 H         1 UNK         0.0600 
    169 H169        0.9653  -14.3849  -41.4671 H         1 UNK         0.3000 
    170 H170       -1.9573  -13.8543  -43.4232 H         1 UNK         0.0600 
    171 H171       -2.9442  -13.7565  -41.1276 H         1 UNK         0.0600 
    172 H172       -1.5134  -12.9168  -40.5408 H         1 UNK         0.0600 
    173 H173       -2.5644  -12.1534  -41.7349 H         1 UNK         0.0600 
    174 H174       -0.1679  -11.9566  -42.4096 H         1 UNK         0.3000 
    175 H175        1.5496  -11.5764  -45.2428 H         1 UNK         0.0600 
    176 H176        1.5114  -10.7568  -42.2872 H         1 UNK         0.0600 
    177 H177        2.0956   -9.7897  -43.6339 H         1 UNK         0.0600 
    178 H178        0.3925  -10.1829  -43.5278 H         1 UNK         0.0600 
    179 H179        3.6570  -12.0286  -44.7652 H         1 UNK         0.3000 
    180 H180        5.5358  -12.6010  -42.1833 H         1 UNK         0.0600 
    181 H181        4.8457  -15.3327  -43.3648 H         1 UNK         0.0600 
    182 H182        5.0912  -14.9291  -41.6742 H         1 UNK         0.0600 
    183 H183        6.4478  -14.8833  -42.7831 H         1 UNK         0.0600 
    184 H184        5.6339  -13.5019  -45.0110 H         1 UNK         0.3000 
    185 H185        6.7902  -10.3311  -46.1331 H         1 UNK         0.0600 
    186 H186        8.8672  -11.5212  -45.4131 H         1 UNK         0.0600 
    187 H187        8.2228  -13.0393  -46.0257 H         1 UNK         0.0600 
    188 H188        8.5804  -11.7145  -47.1344 H         1 UNK         0.0600 
    189 H189        6.3030  -12.7090  -47.5722 H         1 UNK         0.3000 
    190 H190       -2.6724  -20.8362  -46.6898 H         1 UNK         0.3000 
    191 H191       -4.6358  -22.1457  -48.1836 H         1 UNK         0.0600 
    192 H192       -5.0863  -20.1596  -46.7910 H         1 UNK         0.0600 
    193 H193       -6.1614  -21.4653  -46.3191 H         1 UNK         0.0600 
    194 H194       -4.7658  -21.0776  -45.3196 H         1 UNK         0.0600 
    195 H195       -2.8551  -23.4037  -45.4091 H         1 UNK         0.3000 
    196 H196       -4.5264  -25.7975  -45.1651 H         1 UNK         0.0600 
    197 H197       -2.7560  -26.5028  -43.5586 H         1 UNK         0.0600 
    198 H198       -3.3669  -24.8986  -43.1809 H         1 UNK         0.0600 
    199 H199       -1.8005  -25.0812  -43.9622 H         1 UNK         0.0600 
    200 H200       -1.1832  -25.0732  -46.3344 H         1 UNK         0.3000 
    201 H201       -0.6712  -27.7884  -47.0186 H         1 UNK         0.0600 
    202 H202        1.0760  -26.2241  -46.2362 H         1 UNK         0.0600 
    203 H203        0.8788  -25.2340  -47.6808 H         1 UNK         0.0600 
    204 H204        1.5063  -26.8735  -47.8114 H         1 UNK         0.0600 
    205 H205       -1.5283  -24.9657  -49.0887 H         1 UNK         0.3000 
    206 H206       -0.8240  -26.4299  -51.5365 H         1 UNK         0.0600 
    207 H207       -0.1746  -24.0608  -51.2541 H         1 UNK         0.0600 
    208 H208       -1.2573  -24.2753  -52.6198 H         1 UNK         0.0600 
    209 H209       -1.8640  -23.5955  -51.1209 H         1 UNK         0.0600 
    210 H210       -2.3680  -28.1065  -51.1802 H         1 UNK         0.3000 
    211 H211       -4.1326  -29.3134  -51.7531 H         1 UNK         0.0600 
    212 H212       -4.8769  -27.0156  -53.6424 H         1 UNK         0.0600 
    213 H213       -5.3815  -28.6935  -53.7869 H         1 UNK         0.0600 
    214 H214       -3.6918  -28.2717  -53.9993 H         1 UNK         0.0600 
    215 H215       -4.4392  -27.2895  -49.5653 H         1 UNK         0.3000 
    216 H216       -5.8484  -26.4957  -48.0833 H         1 UNK         0.0600 
    217 H217       -7.9660  -27.6265  -47.6079 H         1 UNK         0.0600 
    218 H218       -6.7517  -28.8256  -48.0165 H         1 UNK         0.0600 
    219 H219       -7.9845  -28.3784  -49.1962 H         1 UNK         0.0600 
    220 H220       -5.6859  -25.2683  -50.8327 H         1 UNK         0.3000 
    221 H221       -8.1286  -23.5445  -50.7673 H         1 UNK         0.0600 
    222 H222       -6.8940  -24.9212  -53.2169 H         1 UNK         0.0600 
    223 H223       -8.4143  -25.3792  -52.4535 H         1 UNK         0.0600 
    224 H224       -8.2657  -23.8164  -53.2389 H         1 UNK         0.0600 
    225 H225       -4.9208  -23.4763  -50.3415 H         1 UNK         0.3000 
    226 H226       -3.2818  -21.9875  -50.4422 H         1 UNK         0.0600 
    227 H227       -5.1203  -20.4176  -49.5568 H         1 UNK         0.0600 
    228 H228       -3.7675  -19.6329  -50.3435 H         1 UNK         0.0600 
    229 H229       -5.2915  -19.8180  -51.1993 H         1 UNK         0.0600 
    230 H230       -4.1672  -23.4011  -52.9368 H         1 UNK         0.3000 
    231 H231       -4.0010  -23.5180  -55.1473 H         1 UNK         0.0600 
    232 H232       -1.5697  -21.6816  -54.8014 H         1 UNK         0.0600 
    233 H233       -1.9129  -22.6642  -56.2183 H         1 UNK         0.0600 
    234 H234       -1.5660  -23.4414  -54.6925 H         1 UNK         0.0600 
    235 H235       -5.6838  -21.3426  -54.0271 H         1 UNK         0.3000 
    236 H236       -6.9644  -19.6578  -54.5396 H         1 UNK         0.0600 
    237 H237       -7.4396  -20.8685  -56.6897 H         1 UNK         0.0600 
    238 H238       -7.5931  -19.1270  -56.8446 H         1 UNK         0.0600 
    239 H239       -6.1707  -19.9346  -57.4831 H         1 UNK         0.0600 
    240 H240       -3.9544  -19.3115  -54.0603 H         1 UNK         0.3000 
    241 H241       -2.4996  -17.7611  -53.6891 H         1 UNK         0.0600 
    242 H242       -1.4536  -15.3225  -56.3044 H         1 UNK         0.3800 
    243 H243       -1.8045  -15.1481  -54.6109 H         1 UNK         0.3800 
    244 H244       -3.2078  -15.4295  -53.1446 H         1 UNK         0.0800 
    245 H245       -4.7488  -15.6953  -53.9117 H         1 UNK         0.0800 
    246 H246       -3.6881  -14.8404  -50.8013 H         1 UNK         0.0800 
    247 H247       -4.1596  -16.0056  -49.5923 H         1 UNK         0.0800 
@<TRIPOS>BOND
     1    1    2 1    
     2    1  127 1    
     3    1  128 1    
     4    1  129 1    
     5    2    3 2    
     6    2    4 am   BACKBONE|DICT|INTERRES
     7    4    5 1    
     8    4  130 1    
     9    5    6 1    
    10    5   65 1    
    11    5  131 1    
    12    6    7 1    
    13    6  132 1    
    14    6  133 1    
    15    7    8 1    
    16    8    9 1    
    17    8  134 1    
    18    8  135 1    
    19    9   10 ar   
    20    9   14 ar   
    21   10   11 ar   
    22   10  136 1    
    23   11   12 ar   
    24   11  126 1    
    25   12   13 ar   
    26   12  137 1    
    27   13   14 ar   
    28   13   15 1    
    29   14  138 1    
    30   15   16 1    
    31   15  139 1    
    32   15  140 1    
    33   16   17 1    
    34   17   18 1    
    35   17  141 1    
    36   17  142 1    
    37   18   19 1    
    38   18   67 1    
    39   18  143 1    
    40   19   20 am   BACKBONE|DICT|INTERRES
    41   19  144 1    
    42   20   21 2    
    43   20   22 1    
    44   22   23 1    
    45   22   24 1    
    46   22  145 1    
    47   23  146 1    
    48   23  147 1    
    49   23  148 1    
    50   24   25 am   BACKBONE|DICT|INTERRES
    51   24  149 1    
    52   25   26 2    
    53   25   27 1    
    54   27   28 1    
    55   27   29 1    
    56   27  150 1    
    57   28  151 1    
    58   28  152 1    
    59   28  153 1    
    60   29   30 am   BACKBONE|DICT|INTERRES
    61   29  154 1    
    62   30   31 2    
    63   30   32 1    
    64   32   33 1    
    65   32   34 1    
    66   32  155 1    
    67   33  156 1    
    68   33  157 1    
    69   33  158 1    
    70   34   35 am   BACKBONE|DICT|INTERRES
    71   34  159 1    
    72   35   36 2    
    73   35   37 1    
    74   37   38 1    
    75   37   39 1    
    76   37  160 1    
    77   38  161 1    
    78   38  162 1    
    79   38  163 1    
    80   39   40 am   BACKBONE|DICT|INTERRES
    81   39  164 1    
    82   40   41 2    
    83   40   42 1    
    84   42   43 1    
    85   42   44 1    
    86   42  165 1    
    87   43  166 1    
    88   43  167 1    
    89   43  168 1    
    90   44   45 am   BACKBONE|DICT|INTERRES
    91   44  169 1    
    92   45   46 2    
    93   45   47 1    
    94   47   48 1    
    95   47   49 1    
    96   47  170 1    
    97   48  171 1    
    98   48  172 1    
    99   48  173 1    
   100   49   50 am   BACKBONE|DICT|INTERRES
   101   49  174 1    
   102   50   51 2    
   103   50   52 1    
   104   52   53 1    
   105   52   54 1    
   106   52  175 1    
   107   53  176 1    
   108   53  177 1    
   109   53  178 1    
   110   54   55 am   BACKBONE|DICT|INTERRES
   111   54  179 1    
   112   55   56 2    
   113   55   57 1    
   114   57   58 1    
   115   57   59 1    
   116   57  180 1    
   117   58  181 1    
   118   58  182 1    
   119   58  183 1    
   120   59   60 am   BACKBONE|DICT|INTERRES
   121   59  184 1    
   122   60   61 2    
   123   60   62 1    
   124   62   63 1    
   125   62   64 1    
   126   62  185 1    
   127   63  186 1    
   128   63  187 1    
   129   63  188 1    
   130   64   65 am   BACKBONE|DICT|INTERRES
   131   64  189 1    
   132   65   66 2    
   133   67   68 2    
   134   67   69 am   BACKBONE|DICT|INTERRES
   135   69   70 1    
   136   69  190 1    
   137   70   71 1    
   138   70   72 1    
   139   70  191 1    
   140   71  192 1    
   141   71  193 1    
   142   71  194 1    
   143   72   73 2    
   144   72   74 am   BACKBONE|DICT|INTERRES
   145   74   75 1    
   146   74  195 1    
   147   75   76 1    
   148   75   77 1    
   149   75  196 1    
   150   76  197 1    
   151   76  198 1    
   152   76  199 1    
   153   77   78 2    
   154   77   79 am   BACKBONE|DICT|INTERRES
   155   79   80 1    
   156   79  200 1    
   157   80   81 1    
   158   80   82 1    
   159   80  201 1    
   160   81  202 1    
   161   81  203 1    
   162   81  204 1    
   163   82   83 2    
   164   82   84 am   BACKBONE|DICT|INTERRES
   165   84   85 1    
   166   84  205 1    
   167   85   86 1    
   168   85   87 1    
   169   85  206 1    
   170   86  207 1    
   171   86  208 1    
   172   86  209 1    
   173   87   88 2    
   174   87   89 am   BACKBONE|DICT|INTERRES
   175   89   90 1    
   176   89  210 1    
   177   90   91 1    
   178   90   92 1    
   179   90  211 1    
   180   91  212 1    
   181   91  213 1    
   182   91  214 1    
   183   92   93 2    
   184   92   94 am   BACKBONE|DICT|INTERRES
   185   94   95 1    
   186   94  215 1    
   187   95   96 1    
   188   95   97 1    
   189   95  216 1    
   190   96  217 1    
   191   96  218 1    
   192   96  219 1    
   193   97   98 2    
   194   97   99 am   BACKBONE|DICT|INTERRES
   195   99  100 1    
   196   99  220 1    
   197  100  101 1    
   198  100  102 1    
   199  100  221 1    
   200  101  222 1    
   201  101  223 1    
   202  101  224 1    
   203  102  103 2    
   204  102  104 am   BACKBONE|DICT|INTERRES
   205  104  105 1    
   206  104  225 1    
   207  105  106 1    
   208  105  107 1    
   209  105  226 1    
   210  106  227 1    
   211  106  228 1    
   212  106  229 1    
   213  107  108 2    
   214  107  109 am   BACKBONE|DICT|INTERRES
   215  109  110 1    
   216  109  230 1    
   217  110  111 1    
   218  110  112 1    
   219  110  231 1    
   220  111  232 1    
   221  111  233 1    
   222  111  234 1    
   223  112  113 2    
   224  112  114 am   BACKBONE|DICT|INTERRES
   225  114  115 1    
   226  114  235 1    
   227  115  116 1    
   228  115  117 1    
   229  115  236 1    
   230  116  237 1    
   231  116  238 1    
   232  116  239 1    
   233  117  118 2    
   234  117  119 am   BACKBONE|DICT|INTERRES
   235  119  120 1    
   236  119  240 1    
   237  120  121 1    
   238  120  124 1    
   239  120  241 1    
   240  121  122 am   BACKBONE|DICT|INTERRES
   241  121  123 2    
   242  122  242 1    
   243  122  243 1    
   244  124  125 1    
   245  124  244 1    
   246  124  245 1    
   247  125  126 1    
   248  126  246 1    
   249  126  247 1    
@<TRIPOS>SUBSTRUCTURE
     1 UNK         1 GROUP             0       ****    0 ROOT    
