@<TRIPOS>MOLECULE
3R540
247   249    1
SMALL
USER_CHARGES


@<TRIPOS>ATOM
      1 CA         -5.0100  -12.1106  -42.5041 C.3       0 UNK        -0.1800 
      2 C          -4.4409  -11.7975  -43.8807 C.2       0 UNK         0.5000 
      3 O          -3.8689  -10.7259  -44.0786 O.2       0 UNK        -0.5000 
      4 N          -4.5994  -12.7262  -44.8317 N.am      1 UNK        -0.5000 
      5 CA         -4.0872  -12.6217  -46.2041 C.3       1 UNK         0.1400 
      6 C6         -4.8946  -13.5058  -47.1884 C.3       23 UNK        -0.0398 
      7 S7         -5.0078  -15.2682  -46.7073 S.3       23 UNK        -0.2404 
      8 C8         -5.2155  -16.0689  -48.3361 C.3       23 UNK        -0.0205 
      9 C9         -3.9198  -16.5469  -48.9929 C.ar      23 UNK        -0.0193 
     10 C10        -3.9596  -17.6703  -49.8228 C.ar      23 UNK        -0.1150 
     11 C11        -2.8075  -18.1270  -50.4686 C.ar      23 UNK        -0.0193 
     12 C12        -1.5971  -17.4525  -50.2805 C.ar      23 UNK        -0.1150 
     13 C13        -1.5348  -16.3373  -49.4397 C.ar      23 UNK        -0.0193 
     14 C14        -2.7001  -15.8850  -48.8140 C.ar      23 UNK        -0.1150 
     15 C15        -0.2157  -15.6120  -49.1933 C.3       23 UNK        -0.0205 
     16 S16         0.9756  -16.5730  -48.1926 S.3       23 UNK        -0.2404 
     17 C17        -0.0668  -17.2851  -46.8757 C.3       23 UNK        -0.0398 
     18 CA         -0.3218  -18.7898  -47.1375 C.3       11 UNK         0.1400 
     19 N           0.8133  -19.6205  -46.7343 N.am      11 UNK        -0.5000 
     20 C           0.9467  -20.9254  -47.0048 C.2       10 UNK         0.5000 
     21 O           0.1293  -21.5635  -47.6670 O.2       10 UNK        -0.5000 
     22 CA          2.1724  -21.6431  -46.4156 C.3       10 UNK         0.1400 
     23 CB          3.4542  -21.2596  -47.1710 C.3       10 UNK        -0.1800 
     24 N           2.3427  -21.3051  -45.0044 N.am      10 UNK        -0.5000 
     25 C           2.2311  -22.1602  -43.9784 C.2       9 UNK         0.5000 
     26 O           1.9759  -23.3578  -44.1090 O.2       9 UNK        -0.5000 
     27 CA          2.4492  -21.5902  -42.5594 C.3       9 UNK         0.1400 
     28 CB          3.8866  -21.8573  -42.0882 C.3       9 UNK        -0.1800 
     29 N           2.1868  -20.1536  -42.4795 N.am      9 UNK        -0.5000 
     30 C           0.9693  -19.6011  -42.5653 C.2       8 UNK         0.5000 
     31 O          -0.0697  -20.2599  -42.5351 O.2       8 UNK        -0.5000 
     32 CA          0.8894  -18.0680  -42.7325 C.3       8 UNK         0.1400 
     33 CB          0.2914  -17.4186  -41.4746 C.3       8 UNK        -0.1800 
     34 N           2.1627  -17.4077  -43.0483 N.am      8 UNK        -0.5000 
     35 C           2.9175  -17.6126  -44.1377 C.2       7 UNK         0.5000 
     36 O           2.6347  -18.4208  -45.0196 O.2       7 UNK        -0.5000 
     37 CA          4.2314  -16.8217  -44.2373 C.3       7 UNK         0.1400 
     38 CB          4.0021  -15.4788  -44.9476 C.3       7 UNK        -0.1800 
     39 N           4.8353  -16.5976  -42.9228 N.am      7 UNK        -0.5000 
     40 C           5.4503  -17.5484  -42.2030 C.2       6 UNK         0.5000 
     41 O           5.6063  -18.7053  -42.5935 O.2       6 UNK        -0.5000 
     42 CA          5.9513  -17.1454  -40.8029 C.3       6 UNK         0.1400 
     43 CB          7.3478  -16.5117  -40.8911 C.3       6 UNK        -0.1800 
     44 N           5.0418  -16.2154  -40.1328 N.am      6 UNK        -0.5000 
     45 C           3.8320  -16.5455  -39.6579 C.2       5 UNK         0.5000 
     46 O           3.3926  -17.6950  -39.6512 O.2       5 UNK        -0.5000 
     47 CA          2.9506  -15.3898  -39.1389 C.3       5 UNK         0.1400 
     48 CB          3.1300  -15.2141  -37.6237 C.3       5 UNK        -0.1800 
     49 N           3.2123  -14.1100  -39.8084 N.am      5 UNK        -0.5000 
     50 C           3.0234  -13.8866  -41.1150 C.2       4 UNK         0.5000 
     51 O           2.5770  -14.7350  -41.8931 O.2       4 UNK        -0.5000 
     52 CA          3.4732  -12.5216  -41.6537 C.3       4 UNK         0.1400 
     53 CB          5.0122  -12.4178  -41.6370 C.3       4 UNK        -0.1800 
     54 N           2.9771  -12.3886  -43.0182 N.am      4 UNK        -0.5000 
     55 C           2.9523  -11.2764  -43.7597 C.2       3 UNK         0.5000 
     56 O           3.3402  -10.1778  -43.3600 O.2       3 UNK        -0.5000 
     57 CA          2.4101  -11.4112  -45.1975 C.3       3 UNK         0.1400 
     58 CB          3.5719  -11.5657  -46.1915 C.3       3 UNK        -0.1800 
     59 N           1.4836  -12.5329  -45.3801 N.am      3 UNK        -0.5000 
     60 C           0.2427  -12.5775  -44.8798 C.2       2 UNK         0.5000 
     61 O          -0.2476  -11.6871  -44.1818 O.2       2 UNK        -0.5000 
     62 CA         -0.5679  -13.8503  -45.1854 C.3       2 UNK         0.1400 
     63 CB         -0.3563  -14.8936  -44.0801 C.3       2 UNK        -0.1800 
     64 N          -1.9974  -13.5700  -45.2981 N.am      2 UNK        -0.5000 
     65 C          -2.5684  -12.8907  -46.3024 C.2       1 UNK         0.5000 
     66 O          -1.9483  -12.4896  -47.2885 O.2       1 UNK        -0.5000 
     67 C          -1.6093  -19.2736  -46.4495 C.2       11 UNK         0.5000 
     68 O          -1.6790  -19.2720  -45.2203 O.2       11 UNK        -0.5000 
     69 N          -2.5812  -19.6908  -47.2712 N.am      12 UNK        -0.5000 
     70 CA         -3.8648  -20.2865  -46.8985 C.3       12 UNK         0.1400 
     71 CB         -4.7185  -19.3081  -46.0655 C.3       12 UNK        -0.1800 
     72 C          -3.7308  -21.6792  -46.2456 C.2       12 UNK         0.5000 
     73 O          -4.6074  -22.0713  -45.4735 O.2       12 UNK        -0.5000 
     74 N          -2.6643  -22.4246  -46.5835 N.am      13 UNK        -0.5000 
     75 CA         -2.4534  -23.8083  -46.1380 C.3       13 UNK         0.1400 
     76 CB         -1.0398  -24.2716  -46.5189 C.3       13 UNK        -0.1800 
     77 C          -3.5059  -24.7902  -46.6902 C.2       13 UNK         0.5000 
     78 O          -3.8528  -25.7556  -46.0081 O.2       13 UNK        -0.5000 
     79 N          -4.0132  -24.5058  -47.8945 N.am      14 UNK        -0.5000 
     80 CA         -5.1366  -25.1979  -48.5177 C.3       14 UNK         0.1400 
     81 CB         -4.6714  -26.4895  -49.2131 C.3       14 UNK        -0.1800 
     82 C          -5.8521  -24.2553  -49.4925 C.2       14 UNK         0.5000 
     83 O          -7.0785  -24.1618  -49.4506 O.2       14 UNK        -0.5000 
     84 N          -5.0706  -23.5685  -50.3421 N.am      15 UNK        -0.5000 
     85 CA         -5.5020  -22.6004  -51.3623 C.3       15 UNK         0.1400 
     86 CB         -6.1563  -21.3605  -50.7182 C.3       15 UNK        -0.1800 
     87 C          -6.3592  -23.2034  -52.4971 C.2       15 UNK         0.5000 
     88 O          -7.0026  -22.4640  -53.2455 O.2       15 UNK        -0.5000 
     89 N          -6.3177  -24.5337  -52.6345 N.am      16 UNK        -0.5000 
     90 CA         -6.9266  -25.3012  -53.7160 C.3       16 UNK         0.1400 
     91 CB         -6.7939  -26.7973  -53.3897 C.3       16 UNK        -0.1800 
     92 C          -6.2938  -24.9854  -55.0846 C.2       16 UNK         0.5000 
     93 O          -5.1623  -24.4908  -55.1496 O.2       16 UNK        -0.5000 
     94 N          -7.0531  -25.2902  -56.1465 N.am      17 UNK        -0.5000 
     95 CA         -6.7229  -25.0713  -57.5589 C.3       17 UNK         0.1400 
     96 CB         -5.5970  -26.0241  -58.0111 C.3       17 UNK        -0.1800 
     97 C          -6.4548  -23.5852  -57.8788 C.2       17 UNK         0.5000 
     98 O          -5.4870  -23.2599  -58.5666 O.2       17 UNK        -0.5000 
     99 N          -7.3343  -22.7189  -57.3517 N.am      18 UNK        -0.5000 
    100 CA        -7.3315  -21.2580  -57.4734 C.3       18 UNK         0.1400 
    101 CB        -7.5783  -20.8269  -58.9352 C.3       18 UNK        -0.1800 
    102 C         -6.0710  -20.6220  -56.8542 C.2       18 UNK         0.5000 
    103 O         -5.3230  -19.9263  -57.5437 O.2       18 UNK        -0.5000 
    104 N         -5.8670  -20.8849  -55.5539 N.am      19 UNK        -0.5000 
    105 CA        -4.7817  -20.3685  -54.7103 C.3       19 UNK         0.1400 
    106 CB        -4.8383  -18.8276  -54.6128 C.3       19 UNK        -0.1800 
    107 C         -3.3818  -20.8978  -55.0864 C.2       19 UNK         0.5000 
    108 O         -2.3815  -20.2709  -54.7351 O.2       19 UNK        -0.5000 
    109 N         -3.3216  -22.0462  -55.7738 N.am      20 UNK        -0.5000 
    110 CA        -2.0707  -22.7002  -56.1536 C.3       20 UNK         0.1400 
    111 CB        -2.3106  -23.6127  -57.3628 C.3       20 UNK        -0.1800 
    112 C         -1.4657  -23.4940  -54.9851 C.2       20 UNK         0.5000 
    113 O         -0.2469  -23.4715  -54.8040 O.2       20 UNK        -0.5000 
    114 N         -2.3182  -24.1663  -54.1979 N.am      21 UNK        -0.5000 
    115 CA        -1.9261  -24.9756  -53.0416 C.3       21 UNK         0.1400 
    116 CB        -2.9960  -26.0489  -52.7891 C.3       21 UNK        -0.1800 
    117 C         -1.6355  -24.1100  -51.7965 C.2       21 UNK         0.5000 
    118 O         -2.3152  -24.2349  -50.7749 O.2       21 UNK        -0.5000 
    119 N         -0.6294  -23.2416  -51.9230 N.am      22 UNK        -0.5000 
    120 CA        -0.0555  -22.3914  -50.8684 C.3       22 UNK         0.1400 
    121 C          1.5019  -22.4223  -50.9127 C.2       22 UNK         0.5000 
    122 N          2.1244  -23.4926  -51.3940 N.am      22 UNK        -0.7600 
    123 O          2.1675  -21.4677  -50.5238 O.2       22 UNK        -0.5000 
    124 C124       -0.6184  -20.9429  -50.8882 C.3       23 UNK        -0.0398 
    125 S125       -2.3957  -20.8586  -50.4942 S.3       23 UNK        -0.2404 
    126 C126       -2.8863  -19.3457  -51.3715 C.3       23 UNK        -0.0205 
    127 H127       -5.7475  -11.3589  -42.2229 H         1 UNK         0.0600 
    128 H128       -4.2141  -12.1045  -41.7593 H         1 UNK         0.0600 
    129 H129       -5.4933  -13.0876  -42.4774 H         1 UNK         0.0600 
    130 H130       -5.0883  -13.5852  -44.6193 H         1 UNK         0.3000 
    131 H131       -4.2264  -11.5881  -46.5286 H         1 UNK         0.0600 
    132 H132       -4.4842  -13.4225  -48.1965 H         1 UNK         0.0800 
    133 H133       -5.9130  -13.1215  -47.2596 H         1 UNK         0.0800 
    134 H134       -5.8834  -16.9198  -48.1945 H         1 UNK         0.0800 
    135 H135       -5.7325  -15.3934  -49.0187 H         1 UNK         0.0800 
    136 H136       -4.8955  -18.1905  -49.9726 H         1 UNK         0.1150 
    137 H137       -0.7012  -17.8032  -50.7732 H         1 UNK         0.1150 
    138 H138       -2.6461  -15.0155  -48.1796 H         1 UNK         0.1150 
    139 H139        0.2448  -15.3714  -50.1523 H         1 UNK         0.0800 
    140 H140       -0.3939  -14.6562  -48.6978 H         1 UNK         0.0800 
    141 H141       -0.9969  -16.7199  -46.8067 H         1 UNK         0.0800 
    142 H142        0.4293  -17.1388  -45.9169 H         1 UNK         0.0800 
    143 H143       -0.4516  -18.9336  -48.2112 H         1 UNK         0.0600 
    144 H144        1.5209  -19.1599  -46.1664 H         1 UNK         0.3000 
    145 H145        2.0173  -22.7168  -46.5388 H         1 UNK         0.0600 
    146 H146        4.3214  -21.7759  -46.7592 H         1 UNK         0.0600 
    147 H147        3.3850  -21.5351  -48.2224 H         1 UNK         0.0600 
    148 H148        3.6498  -20.1876  -47.1224 H         1 UNK         0.0600 
    149 H149        2.5222  -20.3264  -44.8044 H         1 UNK         0.3000 
    150 H150        1.7648  -22.1065  -41.8831 H         1 UNK         0.0600 
    151 H151        4.0427  -21.4968  -41.0712 H         1 UNK         0.0600 
    152 H152        4.1069  -22.9255  -42.0924 H         1 UNK         0.0600 
    153 H153        4.6181  -21.3684  -42.7331 H         1 UNK         0.0600 
    154 H154        2.9918  -19.5431  -42.4789 H         1 UNK         0.3000 
    155 H155        0.2113  -17.8804  -43.5663 H         1 UNK         0.0600 
    156 H156        0.8875  -17.6383  -40.5895 H         1 UNK         0.0600 
    157 H157       -0.7174  -17.7888  -41.2881 H         1 UNK         0.0600 
    158 H158        0.2259  -16.3355  -41.5740 H         1 UNK         0.0600 
    159 H159        2.4537  -16.6771  -42.4075 H         1 UNK         0.3000 
    160 H160        4.9279  -17.4074  -44.8412 H         1 UNK         0.0600 
    161 H161        3.2701  -14.8641  -44.4271 H         1 UNK         0.0600 
    162 H162        3.6309  -15.6363  -45.9613 H         1 UNK         0.0600 
    163 H163        4.9277  -14.9082  -45.0250 H         1 UNK         0.0600 
    164 H164        4.6985  -15.6871  -42.5109 H         1 UNK         0.3000 
    165 H165        6.0248  -18.0528  -40.1995 H         1 UNK         0.0600 
    166 H166        7.7408  -16.2848  -39.8998 H         1 UNK         0.0600 
    167 H167        8.0540  -17.1900  -41.3719 H         1 UNK         0.0600 
    168 H168        7.3366  -15.5861  -41.4681 H         1 UNK         0.0600 
    169 H169        5.3337  -15.2514  -40.0752 H         1 UNK         0.3000 
    170 H170        1.9101  -15.6598  -39.3307 H         1 UNK         0.0600 
    171 H171        2.9175  -16.1443  -37.0949 H         1 UNK         0.0600 
    172 H172        4.1485  -14.9174  -37.3702 H         1 UNK         0.0600 
    173 H173        2.4510  -14.4569  -37.2311 H         1 UNK         0.0600 
    174 H174        3.5852  -13.3694  -39.2317 H         1 UNK         0.3000 
    175 H175        3.0344  -11.7384  -41.0327 H         1 UNK         0.0600 
    176 H176        5.4727  -13.1830  -42.2633 H         1 UNK         0.0600 
    177 H177        5.3515  -11.4469  -41.9977 H         1 UNK         0.0600 
    178 H178        5.4087  -12.5347  -40.6280 H         1 UNK         0.0600 
    179 H179        2.5864  -13.2442  -43.3904 H         1 UNK         0.3000 
    180 H180        1.8785  -10.4874  -45.4354 H         1 UNK         0.0600 
    181 H181        4.1348  -12.4829  -46.0141 H         1 UNK         0.0600 
    182 H182        4.2702  -10.7317  -46.1091 H         1 UNK         0.0600 
    183 H183        3.2121  -11.5850  -47.2204 H         1 UNK         0.0600 
    184 H184        1.8143  -13.2974  -45.9503 H         1 UNK         0.3000 
    185 H185       -0.2262  -14.2695  -46.1339 H         1 UNK         0.0600 
    186 H186        0.6920  -15.1850  -44.0174 H         1 UNK         0.0600 
    187 H187       -0.6465  -14.5074  -43.1020 H         1 UNK         0.0600 
    188 H188       -0.9375  -15.7961  -44.2684 H         1 UNK         0.0600 
    189 H189       -2.5745  -13.8284  -44.5122 H         1 UNK         0.3000 
    190 H190       -2.4061  -19.6616  -48.2675 H         1 UNK         0.3000 
    191 H191       -4.3919  -20.4514  -47.8386 H         1 UNK         0.0600 
    192 H192       -4.7558  -18.3247  -46.5303 H         1 UNK         0.0600 
    193 H193       -5.7453  -19.6639  -45.9756 H         1 UNK         0.0600 
    194 H194       -4.3273  -19.1846  -45.0555 H         1 UNK         0.0600 
    195 H195       -1.9484  -22.0270  -47.1814 H         1 UNK         0.3000 
    196 H196       -2.5312  -23.8250  -45.0489 H         1 UNK         0.0600 
    197 H197       -0.8771  -25.3121  -46.2349 H         1 UNK         0.0600 
    198 H198       -0.2831  -23.6790  -46.0057 H         1 UNK         0.0600 
    199 H199       -0.8651  -24.1922  -47.5928 H         1 UNK         0.0600 
    200 H200       -3.6694  -23.6875  -48.3770 H         1 UNK         0.3000 
    201 H201       -5.8593  -25.4638  -47.7430 H         1 UNK         0.0600 
    202 H202       -5.4937  -26.9673  -49.7471 H         1 UNK         0.0600 
    203 H203       -4.2923  -27.2108  -48.4891 H         1 UNK         0.0600 
    204 H204       -3.8768  -26.2954  -49.9322 H         1 UNK         0.0600 
    205 H205       -4.0723  -23.7741  -50.3504 H         1 UNK         0.3000 
    206 H206       -4.5848  -22.2697  -51.8495 H         1 UNK         0.0600 
    207 H207       -6.3347  -20.5803  -51.4589 H         1 UNK         0.0600 
    208 H208       -7.1164  -21.5995  -50.2608 H         1 UNK         0.0600 
    209 H209       -5.5152  -20.9317  -49.9491 H         1 UNK         0.0600 
    210 H210       -5.7562  -25.0527  -51.9785 H         1 UNK         0.3000 
    211 H211       -7.9862  -25.0405  -53.7553 H         1 UNK         0.0600 
    212 H212       -5.7509  -27.1132  -53.3541 H         1 UNK         0.0600 
    213 H213       -7.2937  -27.4096  -54.1412 H         1 UNK         0.0600 
    214 H214       -7.2489  -27.0336  -52.4275 H         1 UNK         0.0600 
    215 H215       -7.9629  -25.6969  -55.9780 H         1 UNK         0.3000 
    216 H216       -7.6143  -25.3368  -58.1291 H         1 UNK         0.0600 
    217 H217       -5.8956  -27.0648  -57.8859 H         1 UNK         0.0600 
    218 H218       -4.6815  -25.8757  -57.4418 H         1 UNK         0.0600 
    219 H219       -5.3577  -25.8824  -59.0656 H         1 UNK         0.0600 
    220 H220       -8.0759  -23.1023  -56.7828 H         1 UNK         0.3000 
    221 H221       -8.1762  -20.8977  -56.8843 H         1 UNK         0.0600 
    222 H222       -6.7617  -21.1243  -59.5937 H         1 UNK         0.0600 
    223 H223       -8.4981  -21.2632  -59.3245 H         1 UNK         0.0600 
    224 H224       -7.6770  -19.7433  -59.0090 H         1 UNK         0.0600 
    225 H225       -6.5201  -21.4930  -55.0708 H         1 UNK         0.3000 
    226 H226       -4.9727  -20.7516  -53.7096 H         1 UNK         0.0600 
    227 H227       -5.8256  -18.4897  -54.2979 H         1 UNK         0.0600 
    228 H228       -4.1220  -18.4467  -53.8855 H         1 UNK         0.0600 
    229 H229       -4.6071  -18.3495  -55.5646 H         1 UNK         0.0600 
    230 H230       -4.1800  -22.5312  -56.0014 H         1 UNK         0.3000 
    231 H231       -1.3478  -21.9377  -56.4518 H         1 UNK         0.0600 
    232 H232       -3.0222  -24.4024  -57.1286 H         1 UNK         0.0600 
    233 H233       -1.3836  -24.0892  -57.6841 H         1 UNK         0.0600 
    234 H234       -2.7000  -23.0498  -58.2112 H         1 UNK         0.0600 
    235 H235       -3.3065  -24.1518  -54.4311 H         1 UNK         0.3000 
    236 H236       -1.0014  -25.5023  -53.2865 H         1 UNK         0.0600 
    237 H237       -3.1975  -26.6282  -53.6904 H         1 UNK         0.0600 
    238 H238       -2.6693  -26.7486  -52.0192 H         1 UNK         0.0600 
    239 H239       -3.9318  -25.6089  -52.4559 H         1 UNK         0.0600 
    240 H240       -0.1657  -23.1907  -52.8250 H         1 UNK         0.3000 
    241 H241       -0.3073  -22.8307  -49.9023 H         1 UNK         0.0600 
    242 H242        1.6080  -24.2985  -51.7078 H         1 UNK         0.3800 
    243 H243        3.1318  -23.5014  -51.4269 H         1 UNK         0.3800 
    244 H244       -0.1035  -20.3172  -50.1585 H         1 UNK         0.0800 
    245 H245       -0.4320  -20.4927  -51.8640 H         1 UNK         0.0800 
    246 H246       -3.9088  -19.4768  -51.7256 H         1 UNK         0.0800 
    247 H247       -2.2761  -19.1951  -52.2624 H         1 UNK         0.0800 
@<TRIPOS>BOND
     1    1    2 1    
     2    1  127 1    
     3    1  128 1    
     4    1  129 1    
     5    2    3 2    
     6    2    4 am   BACKBONE|DICT|INTERRES
     7    4    5 1    
     8    4  130 1    
     9    5    6 1    
    10    5   65 1    
    11    5  131 1    
    12    6    7 1    
    13    6  132 1    
    14    6  133 1    
    15    7    8 1    
    16    8    9 1    
    17    8  134 1    
    18    8  135 1    
    19    9   10 ar   
    20    9   14 ar   
    21   10   11 ar   
    22   10  136 1    
    23   11   12 ar   
    24   11  126 1    
    25   12   13 ar   
    26   12  137 1    
    27   13   14 ar   
    28   13   15 1    
    29   14  138 1    
    30   15   16 1    
    31   15  139 1    
    32   15  140 1    
    33   16   17 1    
    34   17   18 1    
    35   17  141 1    
    36   17  142 1    
    37   18   19 1    
    38   18   67 1    
    39   18  143 1    
    40   19   20 am   BACKBONE|DICT|INTERRES
    41   19  144 1    
    42   20   21 2    
    43   20   22 1    
    44   22   23 1    
    45   22   24 1    
    46   22  145 1    
    47   23  146 1    
    48   23  147 1    
    49   23  148 1    
    50   24   25 am   BACKBONE|DICT|INTERRES
    51   24  149 1    
    52   25   26 2    
    53   25   27 1    
    54   27   28 1    
    55   27   29 1    
    56   27  150 1    
    57   28  151 1    
    58   28  152 1    
    59   28  153 1    
    60   29   30 am   BACKBONE|DICT|INTERRES
    61   29  154 1    
    62   30   31 2    
    63   30   32 1    
    64   32   33 1    
    65   32   34 1    
    66   32  155 1    
    67   33  156 1    
    68   33  157 1    
    69   33  158 1    
    70   34   35 am   BACKBONE|DICT|INTERRES
    71   34  159 1    
    72   35   36 2    
    73   35   37 1    
    74   37   38 1    
    75   37   39 1    
    76   37  160 1    
    77   38  161 1    
    78   38  162 1    
    79   38  163 1    
    80   39   40 am   BACKBONE|DICT|INTERRES
    81   39  164 1    
    82   40   41 2    
    83   40   42 1    
    84   42   43 1    
    85   42   44 1    
    86   42  165 1    
    87   43  166 1    
    88   43  167 1    
    89   43  168 1    
    90   44   45 am   BACKBONE|DICT|INTERRES
    91   44  169 1    
    92   45   46 2    
    93   45   47 1    
    94   47   48 1    
    95   47   49 1    
    96   47  170 1    
    97   48  171 1    
    98   48  172 1    
    99   48  173 1    
   100   49   50 am   BACKBONE|DICT|INTERRES
   101   49  174 1    
   102   50   51 2    
   103   50   52 1    
   104   52   53 1    
   105   52   54 1    
   106   52  175 1    
   107   53  176 1    
   108   53  177 1    
   109   53  178 1    
   110   54   55 am   BACKBONE|DICT|INTERRES
   111   54  179 1    
   112   55   56 2    
   113   55   57 1    
   114   57   58 1    
   115   57   59 1    
   116   57  180 1    
   117   58  181 1    
   118   58  182 1    
   119   58  183 1    
   120   59   60 am   BACKBONE|DICT|INTERRES
   121   59  184 1    
   122   60   61 2    
   123   60   62 1    
   124   62   63 1    
   125   62   64 1    
   126   62  185 1    
   127   63  186 1    
   128   63  187 1    
   129   63  188 1    
   130   64   65 am   BACKBONE|DICT|INTERRES
   131   64  189 1    
   132   65   66 2    
   133   67   68 2    
   134   67   69 am   BACKBONE|DICT|INTERRES
   135   69   70 1    
   136   69  190 1    
   137   70   71 1    
   138   70   72 1    
   139   70  191 1    
   140   71  192 1    
   141   71  193 1    
   142   71  194 1    
   143   72   73 2    
   144   72   74 am   BACKBONE|DICT|INTERRES
   145   74   75 1    
   146   74  195 1    
   147   75   76 1    
   148   75   77 1    
   149   75  196 1    
   150   76  197 1    
   151   76  198 1    
   152   76  199 1    
   153   77   78 2    
   154   77   79 am   BACKBONE|DICT|INTERRES
   155   79   80 1    
   156   79  200 1    
   157   80   81 1    
   158   80   82 1    
   159   80  201 1    
   160   81  202 1    
   161   81  203 1    
   162   81  204 1    
   163   82   83 2    
   164   82   84 am   BACKBONE|DICT|INTERRES
   165   84   85 1    
   166   84  205 1    
   167   85   86 1    
   168   85   87 1    
   169   85  206 1    
   170   86  207 1    
   171   86  208 1    
   172   86  209 1    
   173   87   88 2    
   174   87   89 am   BACKBONE|DICT|INTERRES
   175   89   90 1    
   176   89  210 1    
   177   90   91 1    
   178   90   92 1    
   179   90  211 1    
   180   91  212 1    
   181   91  213 1    
   182   91  214 1    
   183   92   93 2    
   184   92   94 am   BACKBONE|DICT|INTERRES
   185   94   95 1    
   186   94  215 1    
   187   95   96 1    
   188   95   97 1    
   189   95  216 1    
   190   96  217 1    
   191   96  218 1    
   192   96  219 1    
   193   97   98 2    
   194   97   99 am   BACKBONE|DICT|INTERRES
   195   99  100 1    
   196   99  220 1    
   197  100  101 1    
   198  100  102 1    
   199  100  221 1    
   200  101  222 1    
   201  101  223 1    
   202  101  224 1    
   203  102  103 2    
   204  102  104 am   BACKBONE|DICT|INTERRES
   205  104  105 1    
   206  104  225 1    
   207  105  106 1    
   208  105  107 1    
   209  105  226 1    
   210  106  227 1    
   211  106  228 1    
   212  106  229 1    
   213  107  108 2    
   214  107  109 am   BACKBONE|DICT|INTERRES
   215  109  110 1    
   216  109  230 1    
   217  110  111 1    
   218  110  112 1    
   219  110  231 1    
   220  111  232 1    
   221  111  233 1    
   222  111  234 1    
   223  112  113 2    
   224  112  114 am   BACKBONE|DICT|INTERRES
   225  114  115 1    
   226  114  235 1    
   227  115  116 1    
   228  115  117 1    
   229  115  236 1    
   230  116  237 1    
   231  116  238 1    
   232  116  239 1    
   233  117  118 2    
   234  117  119 am   BACKBONE|DICT|INTERRES
   235  119  120 1    
   236  119  240 1    
   237  120  121 1    
   238  120  124 1    
   239  120  241 1    
   240  121  122 am   BACKBONE|DICT|INTERRES
   241  121  123 2    
   242  122  242 1    
   243  122  243 1    
   244  124  125 1    
   245  124  244 1    
   246  124  245 1    
   247  125  126 1    
   248  126  246 1    
   249  126  247 1    
@<TRIPOS>SUBSTRUCTURE
     1 UNK         1 GROUP             0       ****    0 ROOT    
