@<TRIPOS>MOLECULE
3R540
247   249    1
SMALL
USER_CHARGES


@<TRIPOS>ATOM
      1 CA         -1.9996  -15.4989  -52.6836 C.3       0 UNK        -0.1800 
      2 C          -1.5638  -14.5333  -51.5941 C.2       0 UNK         0.5000 
      3 O          -2.0268  -13.3924  -51.5661 O.2       0 UNK        -0.5000 
      4 N          -0.6856  -14.9792  -50.6879 N.am      1 UNK        -0.5000 
      5 CA         -0.1150  -14.1784  -49.5956 C.3       1 UNK         0.1400 
      6 C6          1.3109  -14.6481  -49.2151 C.3       23 UNK        -0.0398 
      7 S7          2.4923  -14.3468  -50.5700 S.3       23 UNK        -0.2404 
      8 C8          3.9202  -15.3360  -50.0303 C.3       23 UNK        -0.0205 
      9 C9          3.7416  -16.8145  -50.3398 C.ar      23 UNK        -0.0193 
     10 C10         3.7760  -17.2576  -51.6656 C.ar      23 UNK        -0.1150 
     11 C11         3.6323  -18.6148  -51.9650 C.ar      23 UNK        -0.0193 
     12 C12         3.4727  -19.5347  -50.9265 C.ar      23 UNK        -0.1150 
     13 C13         3.4512  -19.1061  -49.5975 C.ar      23 UNK        -0.0193 
     14 C14         3.5745  -17.7434  -49.3080 C.ar      23 UNK        -0.1150 
     15 C15         3.3218  -20.1228  -48.4785 C.3       23 UNK        -0.0205 
     16 S16         1.5800  -20.5465  -48.1748 S.3       23 UNK        -0.2404 
     17 C17         1.5844  -22.3637  -48.3369 C.3       23 UNK        -0.0398 
     18 CA          0.5910  -23.0873  -47.3979 C.3       11 UNK         0.1400 
     19 N           0.8513  -22.8359  -45.9781 N.am      11 UNK        -0.5000 
     20 C           0.3770  -23.5975  -44.9831 C.2       10 UNK         0.5000 
     21 O          -0.2974  -24.6084  -45.1842 O.2       10 UNK        -0.5000 
     22 CA          0.6269  -23.1353  -43.5334 C.3       10 UNK         0.1400 
     23 CB          0.9731  -24.3083  -42.5945 C.3       10 UNK        -0.1800 
     24 N           1.5938  -22.0413  -43.4018 N.am      10 UNK        -0.5000 
     25 C           2.9150  -22.0592  -43.6295 C.2       9 UNK         0.5000 
     26 O           3.5364  -23.0530  -44.0054 O.2       9 UNK        -0.5000 
     27 CA          3.6702  -20.7291  -43.4290 C.3       9 UNK         0.1400 
     28 CB          4.0205  -20.1170  -44.7914 C.3       9 UNK        -0.1800 
     29 N           2.9111  -19.7409  -42.6588 N.am      9 UNK        -0.5000 
     30 C           2.7117  -19.7894  -41.3346 C.2       8 UNK         0.5000 
     31 O           3.2159  -20.6362  -40.5964 O.2       8 UNK        -0.5000 
     32 CA          1.7510  -18.7393  -40.7465 C.3       8 UNK         0.1400 
     33 CB          2.4735  -17.4023  -40.5211 C.3       8 UNK        -0.1800 
     34 N           0.5743  -18.5175  -41.5893 N.am      8 UNK        -0.5000 
     35 C          -0.3745  -19.4285  -41.8484 C.2       7 UNK         0.5000 
     36 O          -0.3806  -20.5646  -41.3768 O.2       7 UNK        -0.5000 
     37 CA         -1.4747  -19.0197  -42.8414 C.3       7 UNK         0.1400 
     38 CB         -2.5650  -18.1840  -42.1540 C.3       7 UNK        -0.1800 
     39 N          -0.9207  -18.2780  -43.9729 N.am      7 UNK        -0.5000 
     40 C          -0.2865  -18.8466  -45.0069 C.2       6 UNK         0.5000 
     41 O          -0.1741  -20.0654  -45.1497 O.2       6 UNK        -0.5000 
     42 CA          0.3253  -17.9006  -46.0579 C.3       6 UNK         0.1400 
     43 CB         -0.6413  -17.7181  -47.2352 C.3       6 UNK        -0.1800 
     44 N           0.7110  -16.5928  -45.5213 N.am      6 UNK        -0.5000 
     45 C           1.7305  -16.4256  -44.6657 C.2       5 UNK         0.5000 
     46 O           2.4177  -17.3522  -44.2366 O.2       5 UNK        -0.5000 
     47 CA          1.9997  -14.9981  -44.1604 C.3       5 UNK         0.1400 
     48 CB          2.7064  -14.1616  -45.2368 C.3       5 UNK        -0.1800 
     49 N           0.8021  -14.2884  -43.7108 N.am      5 UNK        -0.5000 
     50 C          -0.0775  -14.7102  -42.7940 C.2       4 UNK         0.5000 
     51 O          -0.0086  -15.8097  -42.2470 O.2       4 UNK        -0.5000 
     52 CA         -1.2526  -13.7769  -42.4373 C.3       4 UNK         0.1400 
     53 CB         -0.9809  -13.0281  -41.1191 C.3       4 UNK        -0.1800 
     54 N          -1.6617  -12.8553  -43.5081 N.am      4 UNK        -0.5000 
     55 C          -1.0007  -11.8117  -44.0314 C.2       3 UNK         0.5000 
     56 O           0.1182  -11.4523  -43.6640 O.2       3 UNK        -0.5000 
     57 CA         -1.6838  -11.1303  -45.2266 C.3       3 UNK         0.1400 
     58 CB         -0.7841  -10.1047  -45.9407 C.3       3 UNK        -0.1800 
     59 N          -2.0809  -12.1668  -46.1744 N.am      3 UNK        -0.5000 
     60 C          -3.2548  -12.2612  -46.8011 C.2       2 UNK         0.5000 
     61 O          -4.1627  -11.4385  -46.6683 O.2       2 UNK        -0.5000 
     62 CA         -3.4305  -13.4821  -47.7324 C.3       2 UNK         0.1400 
     63 CB         -4.7337  -13.4067  -48.5499 C.3       2 UNK        -0.1800 
     64 N          -2.3117  -13.6541  -48.6618 N.am      2 UNK        -0.5000 
     65 C          -1.0819  -14.1118  -48.3916 C.2       1 UNK         0.5000 
     66 O          -0.7154  -14.4547  -47.2630 O.2       1 UNK        -0.5000 
     67 C          -0.8861  -22.8258  -47.7639 C.2       11 UNK         0.5000 
     68 O          -1.4267  -23.5301  -48.6166 O.2       11 UNK        -0.5000 
     69 N          -1.5353  -21.8813  -47.0624 N.am      12 UNK        -0.5000 
     70 CA         -2.9757  -21.6342  -47.1503 C.3       12 UNK         0.1400 
     71 CB         -3.3425  -20.3821  -46.3397 C.3       12 UNK        -0.1800 
     72 C          -3.8071  -22.8308  -46.6579 C.2       12 UNK         0.5000 
     73 O          -4.8377  -23.1362  -47.2542 O.2       12 UNK        -0.5000 
     74 N          -3.3330  -23.4963  -45.5955 N.am      13 UNK        -0.5000 
     75 CA         -3.9502  -24.6954  -45.0304 C.3       13 UNK         0.1400 
     76 CB         -3.4252  -24.9242  -43.6045 C.3       13 UNK        -0.1800 
     77 C          -3.7162  -25.9335  -45.9132 C.2       13 UNK         0.5000 
     78 O          -4.6315  -26.7409  -46.0710 O.2       13 UNK        -0.5000 
     79 N          -2.5115  -26.0443  -46.4927 N.am      14 UNK        -0.5000 
     80 CA         -2.1287  -27.1068  -47.4244 C.3       14 UNK         0.1400 
     81 CB         -0.6165  -27.0444  -47.6861 C.3       14 UNK        -0.1800 
     82 C          -2.9156  -27.0466  -48.7468 C.2       14 UNK         0.5000 
     83 O          -3.3918  -28.0809  -49.2164 O.2       14 UNK        -0.5000 
     84 N          -3.0608  -25.8372  -49.3080 N.am      15 UNK        -0.5000 
     85 CA         -3.8829  -25.5706  -50.4912 C.3       15 UNK         0.1400 
     86 CB         -3.5161  -24.1906  -51.0548 C.3       15 UNK        -0.1800 
     87 C          -5.3927  -25.6418  -50.1934 C.2       15 UNK         0.5000 
     88 O          -6.1723  -25.9792  -51.0842 O.2       15 UNK        -0.5000 
     89 N          -5.7625  -25.3113  -48.9481 N.am      16 UNK        -0.5000 
     90 CA         -7.1064  -25.2695  -48.3632 C.3       16 UNK         0.1400 
     91 CB         -7.7907  -26.6500  -48.4361 C.3       16 UNK        -0.1800 
     92 C          -8.0020  -24.1361  -48.9071 C.2       16 UNK         0.5000 
     93 O          -9.1861  -24.0926  -48.5683 O.2       16 UNK        -0.5000 
     94 N          -7.4367  -23.2283  -49.7118 N.am      17 UNK        -0.5000 
     95 CA         -8.1082  -22.0985  -50.3420 C.3       17 UNK         0.1400 
     96 CB         -9.0807  -22.5939  -51.4328 C.3       17 UNK        -0.1800 
     97 C          -7.0605  -21.1609  -50.9591 C.2       17 UNK         0.5000 
     98 O          -5.9130  -21.5654  -51.1718 O.2       17 UNK        -0.5000 
     99 N          -7.5012  -19.9313  -51.2619 N.am      18 UNK        -0.5000 
    100 CA        -6.8477  -18.9169  -52.1020 C.3       18 UNK         0.1400 
    101 CB        -6.7837  -19.4171  -53.5604 C.3       18 UNK        -0.1800 
    102 C         -5.4708  -18.4135  -51.6192 C.2       18 UNK         0.5000 
    103 O         -4.7667  -17.7704  -52.3979 O.2       18 UNK        -0.5000 
    104 N         -5.0919  -18.7196  -50.3686 N.am      19 UNK        -0.5000 
    105 CA        -3.7966  -18.4111  -49.7458 C.3       19 UNK         0.1400 
    106 CB        -3.7086  -16.9118  -49.4033 C.3       19 UNK        -0.1800 
    107 C         -2.5939  -18.9237  -50.5707 C.2       19 UNK         0.5000 
    108 O         -1.6028  -18.2116  -50.7350 O.2       19 UNK        -0.5000 
    109 N         -2.7510  -20.1435  -51.1080 N.am      20 UNK        -0.5000 
    110 CA        -1.8462  -20.8663  -52.0111 C.3       20 UNK         0.1400 
    111 CB        -0.4114  -20.9522  -51.4512 C.3       20 UNK        -0.1800 
    112 C         -1.8798  -20.3872  -53.4786 C.2       20 UNK         0.5000 
    113 O         -1.2043  -20.9919  -54.3114 O.2       20 UNK        -0.5000 
    114 N         -2.6886  -19.3602  -53.7891 N.am      21 UNK        -0.5000 
    115 CA        -2.9624  -18.8109  -55.1255 C.3       21 UNK         0.1400 
    116 CB        -3.6982  -19.8475  -56.0008 C.3       21 UNK        -0.1800 
    117 C         -1.7289  -18.2087  -55.8357 C.2       21 UNK         0.5000 
    118 O         -1.7040  -18.1268  -57.0647 O.2       21 UNK        -0.5000 
    119 N         -0.7349  -17.7806  -55.0506 N.am      22 UNK        -0.5000 
    120 CA         0.5480  -17.2196  -55.5091 C.3       22 UNK         0.1400 
    121 C          0.4890  -15.7490  -56.0262 C.2       22 UNK         0.5000 
    122 N         -0.6697  -15.1081  -56.1085 N.am      22 UNK        -0.7600 
    123 O          1.5174  -15.1782  -56.3788 O.2       22 UNK        -0.5000 
    124 C124        1.6472  -17.4060  -54.4322 C.3       23 UNK        -0.0398 
    125 S125        1.9804  -19.1706  -54.1045 S.3       23 UNK        -0.2404 
    126 C126        3.6568  -19.0947  -53.4063 C.3       23 UNK        -0.0205 
    127 H127       -1.4072  -16.4124  -52.6711 H         1 UNK         0.0600 
    128 H128       -3.0476  -15.7642  -52.5539 H         1 UNK         0.0600 
    129 H129       -1.8876  -15.0305  -53.6594 H         1 UNK         0.0600 
    130 H130       -0.3952  -15.9477  -50.7229 H         1 UNK         0.3000 
    131 H131       -0.0190  -13.1466  -49.9415 H         1 UNK         0.0600 
    132 H132        1.3201  -15.7058  -48.9523 H         1 UNK         0.0800 
    133 H133        1.6776  -14.1043  -48.3446 H         1 UNK         0.0800 
    134 H134        4.0979  -15.1743  -48.9659 H         1 UNK         0.0800 
    135 H135        4.8109  -14.9738  -50.5457 H         1 UNK         0.0800 
    136 H136        3.9079  -16.5414  -52.4644 H         1 UNK         0.1150 
    137 H137        3.3653  -20.5866  -51.1521 H         1 UNK         0.1150 
    138 H138        3.5550  -17.4099  -48.2798 H         1 UNK         0.1150 
    139 H139        3.9052  -21.0094  -48.7292 H         1 UNK         0.0800 
    140 H140        3.7604  -19.7223  -47.5660 H         1 UNK         0.0800 
    141 H141        2.5864  -22.7396  -48.1281 H         1 UNK         0.0800 
    142 H142        1.3850  -22.6214  -49.3783 H         1 UNK         0.0800 
    143 H143        0.7539  -24.1546  -47.5581 H         1 UNK         0.0600 
    144 H144        1.3231  -21.9731  -45.7470 H         1 UNK         0.3000 
    145 H145       -0.3242  -22.7223  -43.1951 H         1 UNK         0.0600 
    146 H146        1.1256  -23.9617  -41.5723 H         1 UNK         0.0600 
    147 H147        0.1659  -25.0412  -42.5697 H         1 UNK         0.0600 
    148 H148        1.8755  -24.8310  -42.9117 H         1 UNK         0.0600 
    149 H149        1.1940  -21.1613  -43.1065 H         1 UNK         0.3000 
    150 H150        4.5989  -20.9503  -42.8991 H         1 UNK         0.0600 
    151 H151        4.5951  -20.8140  -45.4029 H         1 UNK         0.0600 
    152 H152        4.6188  -19.2129  -44.6772 H         1 UNK         0.0600 
    153 H153        3.1182  -19.8535  -45.3440 H         1 UNK         0.0600 
    154 H154        2.5236  -18.9605  -43.1836 H         1 UNK         0.3000 
    155 H155        1.4051  -19.1081  -39.7788 H         1 UNK         0.0600 
    156 H156        2.8212  -16.9692  -41.4595 H         1 UNK         0.0600 
    157 H157        3.3429  -17.5314  -39.8753 H         1 UNK         0.0600 
    158 H158        1.8165  -16.6758  -40.0426 H         1 UNK         0.0600 
    159 H159        0.4692  -17.5841  -41.9802 H         1 UNK         0.3000 
    160 H160       -1.9417  -19.9336  -43.2141 H         1 UNK         0.0600 
    161 H161       -3.3610  -17.9258  -42.8525 H         1 UNK         0.0600 
    162 H162       -2.1698  -17.2572  -41.7385 H         1 UNK         0.0600 
    163 H163       -3.0203  -18.7406  -41.3340 H         1 UNK         0.0600 
    164 H164       -0.9244  -17.2706  -43.9034 H         1 UNK         0.3000 
    165 H165        1.2332  -18.3735  -46.4321 H         1 UNK         0.0600 
    166 H166       -0.1978  -17.1165  -48.0253 H         1 UNK         0.0600 
    167 H167       -0.8952  -18.6785  -47.6847 H         1 UNK         0.0600 
    168 H168       -1.5679  -17.2365  -46.9216 H         1 UNK         0.0600 
    169 H169        0.1933  -15.7858  -45.8518 H         1 UNK         0.3000 
    170 H170        2.6686  -15.0798  -43.3015 H         1 UNK         0.0600 
    171 H171        3.5796  -14.6819  -45.6330 H         1 UNK         0.0600 
    172 H172        3.0508  -13.2103  -44.8309 H         1 UNK         0.0600 
    173 H173        2.0413  -13.9446  -46.0719 H         1 UNK         0.0600 
    174 H174        0.6881  -13.3385  -44.0439 H         1 UNK         0.3000 
    175 H175       -2.1123  -14.4274  -42.2689 H         1 UNK         0.0600 
    176 H176       -1.8324  -12.4109  -40.8330 H         1 UNK         0.0600 
    177 H177       -0.8010  -13.7310  -40.3046 H         1 UNK         0.0600 
    178 H178       -0.1049  -12.3827  -41.1878 H         1 UNK         0.0600 
    179 H179       -2.5531  -13.0764  -43.9297 H         1 UNK         0.3000 
    180 H180       -2.5614  -10.6116  -44.8355 H         1 UNK         0.0600 
    181 H181        0.1204  -10.5695  -46.3353 H         1 UNK         0.0600 
    182 H182       -0.4785   -9.3095  -45.2597 H         1 UNK         0.0600 
    183 H183       -1.3087   -9.6352  -46.7730 H         1 UNK         0.0600 
    184 H184       -1.4054  -12.9079  -46.3412 H         1 UNK         0.3000 
    185 H185       -3.4828  -14.3678  -47.0961 H         1 UNK         0.0600 
    186 H186       -4.7585  -12.5180  -49.1818 H         1 UNK         0.0600 
    187 H187       -4.8524  -14.2738  -49.1978 H         1 UNK         0.0600 
    188 H188       -5.6061  -13.3715  -47.8962 H         1 UNK         0.0600 
    189 H189       -2.4901  -13.3844  -49.6242 H         1 UNK         0.3000 
    190 H190       -1.0121  -21.3319  -46.3859 H         1 UNK         0.3000 
    191 H191       -3.2263  -21.4584  -48.1986 H         1 UNK         0.0600 
    192 H192       -2.8141  -19.5024  -46.6985 H         1 UNK         0.0600 
    193 H193       -3.1056  -20.5038  -45.2826 H         1 UNK         0.0600 
    194 H194       -4.4097  -20.1685  -46.4127 H         1 UNK         0.0600 
    195 H195       -2.4586  -23.2004  -45.1897 H         1 UNK         0.3000 
    196 H196       -5.0280  -24.5296  -44.9683 H         1 UNK         0.0600 
    197 H197       -3.9129  -25.7853  -43.1459 H         1 UNK         0.0600 
    198 H198       -3.6238  -24.0619  -42.9678 H         1 UNK         0.0600 
    199 H199       -2.3519  -25.1124  -43.5892 H         1 UNK         0.0600 
    200 H200       -1.7899  -25.3761  -46.2420 H         1 UNK         0.3000 
    201 H201       -2.3498  -28.0632  -46.9459 H         1 UNK         0.0600 
    202 H202       -0.0505  -27.0900  -46.7554 H         1 UNK         0.0600 
    203 H203       -0.3359  -26.1291  -48.2064 H         1 UNK         0.0600 
    204 H204       -0.2951  -27.8827  -48.3052 H         1 UNK         0.0600 
    205 H205       -2.5798  -25.0398  -48.8997 H         1 UNK         0.3000 
    206 H206       -3.6550  -26.3223  -51.2498 H         1 UNK         0.0600 
    207 H207       -2.4619  -24.1520  -51.3294 H         1 UNK         0.0600 
    208 H208       -4.0972  -23.9626  -51.9495 H         1 UNK         0.0600 
    209 H209       -3.7033  -23.3964  -50.3304 H         1 UNK         0.0600 
    210 H210       -5.0379  -24.9730  -48.3272 H         1 UNK         0.3000 
    211 H211       -6.9537  -25.0413  -47.3075 H         1 UNK         0.0600 
    212 H212       -8.0553  -26.9201  -49.4585 H         1 UNK         0.0600 
    213 H213       -8.7097  -26.6622  -47.8492 H         1 UNK         0.0600 
    214 H214       -7.1426  -27.4308  -48.0374 H         1 UNK         0.0600 
    215 H215       -6.4491  -23.2972  -49.9218 H         1 UNK         0.3000 
    216 H216       -8.6591  -21.5470  -49.5775 H         1 UNK         0.0600 
    217 H217       -9.5593  -21.7600  -51.9475 H         1 UNK         0.0600 
    218 H218       -9.8789  -23.2064  -51.0144 H         1 UNK         0.0600 
    219 H219       -8.5633  -23.1900  -52.1857 H         1 UNK         0.0600 
    220 H220       -8.4481  -19.6999  -50.9941 H         1 UNK         0.3000 
    221 H221       -7.5007  -18.0434  -52.0830 H         1 UNK         0.0600 
    222 H222       -6.1187  -20.2754  -53.6591 H         1 UNK         0.0600 
    223 H223       -7.7690  -19.7154  -53.9183 H         1 UNK         0.0600 
    224 H224       -6.4198  -18.6405  -54.2343 H         1 UNK         0.0600 
    225 H225       -5.7331  -19.2688  -49.8147 H         1 UNK         0.3000 
    226 H226       -3.7681  -18.9613  -48.8066 H         1 UNK         0.0600 
    227 H227       -4.5031  -16.6242  -48.7154 H         1 UNK         0.0600 
    228 H228       -2.7624  -16.6677  -48.9224 H         1 UNK         0.0600 
    229 H229       -3.7917  -16.2876  -50.2920 H         1 UNK         0.0600 
    230 H230       -3.6392  -20.6035  -50.9497 H         1 UNK         0.3000 
    231 H231       -2.2340  -21.8834  -52.0393 H         1 UNK         0.0600 
    232 H232       -0.4178  -21.2872  -50.4152 H         1 UNK         0.0600 
    233 H233        0.1064  -19.9935  -51.4923 H         1 UNK         0.0600 
    234 H234        0.1881  -21.6633  -52.0201 H         1 UNK         0.0600 
    235 H235       -3.2083  -18.9160  -53.0394 H         1 UNK         0.3000 
    236 H236       -3.6472  -17.9769  -54.9661 H         1 UNK         0.0600 
    237 H237       -4.0613  -19.3941  -56.9237 H         1 UNK         0.0600 
    238 H238       -3.0471  -20.6766  -56.2793 H         1 UNK         0.0600 
    239 H239       -4.5632  -20.2614  -55.4847 H         1 UNK         0.0600 
    240 H240       -0.8301  -17.9144  -54.0552 H         1 UNK         0.3000 
    241 H241        0.8559  -17.8000  -56.3810 H         1 UNK         0.0600 
    242 H242       -0.6878  -14.1621  -56.4558 H         1 UNK         0.3800 
    243 H243       -1.5300  -15.5745  -55.8745 H         1 UNK         0.3800 
    244 H244        2.5811  -16.9412  -54.7525 H         1 UNK         0.0800 
    245 H245        1.3623  -16.9161  -53.4994 H         1 UNK         0.0800 
    246 H246        4.2924  -18.4520  -54.0172 H         1 UNK         0.0800 
    247 H247        4.1005  -20.0903  -53.4539 H         1 UNK         0.0800 
@<TRIPOS>BOND
     1    1    2 1    
     2    1  127 1    
     3    1  128 1    
     4    1  129 1    
     5    2    3 2    
     6    2    4 am   BACKBONE|DICT|INTERRES
     7    4    5 1    
     8    4  130 1    
     9    5    6 1    
    10    5   65 1    
    11    5  131 1    
    12    6    7 1    
    13    6  132 1    
    14    6  133 1    
    15    7    8 1    
    16    8    9 1    
    17    8  134 1    
    18    8  135 1    
    19    9   10 ar   
    20    9   14 ar   
    21   10   11 ar   
    22   10  136 1    
    23   11   12 ar   
    24   11  126 1    
    25   12   13 ar   
    26   12  137 1    
    27   13   14 ar   
    28   13   15 1    
    29   14  138 1    
    30   15   16 1    
    31   15  139 1    
    32   15  140 1    
    33   16   17 1    
    34   17   18 1    
    35   17  141 1    
    36   17  142 1    
    37   18   19 1    
    38   18   67 1    
    39   18  143 1    
    40   19   20 am   BACKBONE|DICT|INTERRES
    41   19  144 1    
    42   20   21 2    
    43   20   22 1    
    44   22   23 1    
    45   22   24 1    
    46   22  145 1    
    47   23  146 1    
    48   23  147 1    
    49   23  148 1    
    50   24   25 am   BACKBONE|DICT|INTERRES
    51   24  149 1    
    52   25   26 2    
    53   25   27 1    
    54   27   28 1    
    55   27   29 1    
    56   27  150 1    
    57   28  151 1    
    58   28  152 1    
    59   28  153 1    
    60   29   30 am   BACKBONE|DICT|INTERRES
    61   29  154 1    
    62   30   31 2    
    63   30   32 1    
    64   32   33 1    
    65   32   34 1    
    66   32  155 1    
    67   33  156 1    
    68   33  157 1    
    69   33  158 1    
    70   34   35 am   BACKBONE|DICT|INTERRES
    71   34  159 1    
    72   35   36 2    
    73   35   37 1    
    74   37   38 1    
    75   37   39 1    
    76   37  160 1    
    77   38  161 1    
    78   38  162 1    
    79   38  163 1    
    80   39   40 am   BACKBONE|DICT|INTERRES
    81   39  164 1    
    82   40   41 2    
    83   40   42 1    
    84   42   43 1    
    85   42   44 1    
    86   42  165 1    
    87   43  166 1    
    88   43  167 1    
    89   43  168 1    
    90   44   45 am   BACKBONE|DICT|INTERRES
    91   44  169 1    
    92   45   46 2    
    93   45   47 1    
    94   47   48 1    
    95   47   49 1    
    96   47  170 1    
    97   48  171 1    
    98   48  172 1    
    99   48  173 1    
   100   49   50 am   BACKBONE|DICT|INTERRES
   101   49  174 1    
   102   50   51 2    
   103   50   52 1    
   104   52   53 1    
   105   52   54 1    
   106   52  175 1    
   107   53  176 1    
   108   53  177 1    
   109   53  178 1    
   110   54   55 am   BACKBONE|DICT|INTERRES
   111   54  179 1    
   112   55   56 2    
   113   55   57 1    
   114   57   58 1    
   115   57   59 1    
   116   57  180 1    
   117   58  181 1    
   118   58  182 1    
   119   58  183 1    
   120   59   60 am   BACKBONE|DICT|INTERRES
   121   59  184 1    
   122   60   61 2    
   123   60   62 1    
   124   62   63 1    
   125   62   64 1    
   126   62  185 1    
   127   63  186 1    
   128   63  187 1    
   129   63  188 1    
   130   64   65 am   BACKBONE|DICT|INTERRES
   131   64  189 1    
   132   65   66 2    
   133   67   68 2    
   134   67   69 am   BACKBONE|DICT|INTERRES
   135   69   70 1    
   136   69  190 1    
   137   70   71 1    
   138   70   72 1    
   139   70  191 1    
   140   71  192 1    
   141   71  193 1    
   142   71  194 1    
   143   72   73 2    
   144   72   74 am   BACKBONE|DICT|INTERRES
   145   74   75 1    
   146   74  195 1    
   147   75   76 1    
   148   75   77 1    
   149   75  196 1    
   150   76  197 1    
   151   76  198 1    
   152   76  199 1    
   153   77   78 2    
   154   77   79 am   BACKBONE|DICT|INTERRES
   155   79   80 1    
   156   79  200 1    
   157   80   81 1    
   158   80   82 1    
   159   80  201 1    
   160   81  202 1    
   161   81  203 1    
   162   81  204 1    
   163   82   83 2    
   164   82   84 am   BACKBONE|DICT|INTERRES
   165   84   85 1    
   166   84  205 1    
   167   85   86 1    
   168   85   87 1    
   169   85  206 1    
   170   86  207 1    
   171   86  208 1    
   172   86  209 1    
   173   87   88 2    
   174   87   89 am   BACKBONE|DICT|INTERRES
   175   89   90 1    
   176   89  210 1    
   177   90   91 1    
   178   90   92 1    
   179   90  211 1    
   180   91  212 1    
   181   91  213 1    
   182   91  214 1    
   183   92   93 2    
   184   92   94 am   BACKBONE|DICT|INTERRES
   185   94   95 1    
   186   94  215 1    
   187   95   96 1    
   188   95   97 1    
   189   95  216 1    
   190   96  217 1    
   191   96  218 1    
   192   96  219 1    
   193   97   98 2    
   194   97   99 am   BACKBONE|DICT|INTERRES
   195   99  100 1    
   196   99  220 1    
   197  100  101 1    
   198  100  102 1    
   199  100  221 1    
   200  101  222 1    
   201  101  223 1    
   202  101  224 1    
   203  102  103 2    
   204  102  104 am   BACKBONE|DICT|INTERRES
   205  104  105 1    
   206  104  225 1    
   207  105  106 1    
   208  105  107 1    
   209  105  226 1    
   210  106  227 1    
   211  106  228 1    
   212  106  229 1    
   213  107  108 2    
   214  107  109 am   BACKBONE|DICT|INTERRES
   215  109  110 1    
   216  109  230 1    
   217  110  111 1    
   218  110  112 1    
   219  110  231 1    
   220  111  232 1    
   221  111  233 1    
   222  111  234 1    
   223  112  113 2    
   224  112  114 am   BACKBONE|DICT|INTERRES
   225  114  115 1    
   226  114  235 1    
   227  115  116 1    
   228  115  117 1    
   229  115  236 1    
   230  116  237 1    
   231  116  238 1    
   232  116  239 1    
   233  117  118 2    
   234  117  119 am   BACKBONE|DICT|INTERRES
   235  119  120 1    
   236  119  240 1    
   237  120  121 1    
   238  120  124 1    
   239  120  241 1    
   240  121  122 am   BACKBONE|DICT|INTERRES
   241  121  123 2    
   242  122  242 1    
   243  122  243 1    
   244  124  125 1    
   245  124  244 1    
   246  124  245 1    
   247  125  126 1    
   248  126  246 1    
   249  126  247 1    
@<TRIPOS>SUBSTRUCTURE
     1 UNK         1 GROUP             0       ****    0 ROOT    
