@<TRIPOS>MOLECULE
3R540
247   249    1
SMALL
USER_CHARGES


@<TRIPOS>ATOM
      1 CA          0.6068  -10.4365  -52.5432 C.3       0 UNK        -0.1800 
      2 C           0.4762  -11.2304  -51.2502 C.2       0 UNK         0.5000 
      3 O           0.1515  -10.6482  -50.2153 O.2       0 UNK        -0.5000 
      4 N           0.7200  -12.5468  -51.3268 N.am      1 UNK        -0.5000 
      5 CA          0.7085  -13.5418  -50.2421 C.3       1 UNK         0.1400 
      6 C6         -0.5935  -13.5655  -49.3919 C.3       23 UNK        -0.0398 
      7 S7         -2.0847  -13.8597  -50.4041 S.3       23 UNK        -0.2404 
      8 C8         -2.4921  -15.5855  -49.9882 C.3       23 UNK        -0.0205 
      9 C9         -1.3667  -16.5499  -50.3377 C.ar      23 UNK        -0.0193 
     10 C10        -1.0025  -16.7541  -51.6709 C.ar      23 UNK        -0.1150 
     11 C11         0.0467  -17.6163  -51.9978 C.ar      23 UNK        -0.0193 
     12 C12         0.7184  -18.2911  -50.9732 C.ar      23 UNK        -0.1150 
     13 C13         0.3452  -18.1298  -49.6337 C.ar      23 UNK        -0.0193 
     14 C14        -0.6925  -17.2394  -49.3263 C.ar      23 UNK        -0.1150 
     15 C15         1.1035  -18.9299  -48.5693 C.3       23 UNK        -0.0205 
     16 S16         0.4653  -18.8314  -46.8590 S.3       23 UNK        -0.2404 
     17 C17        -1.0559  -19.8345  -46.9440 C.3       23 UNK        -0.0398 
     18 CA         -0.8115  -21.3135  -46.5573 C.3       11 UNK         0.1400 
     19 N          -0.2826  -21.4627  -45.1941 N.am      11 UNK        -0.5000 
     20 C           0.1602  -22.6059  -44.6476 C.2       10 UNK         0.5000 
     21 O           0.1444  -23.6916  -45.2293 O.2       10 UNK        -0.5000 
     22 CA          0.6479  -22.5346  -43.1918 C.3       10 UNK         0.1400 
     23 CB          2.1504  -22.2248  -43.1362 C.3       10 UNK        -0.1800 
     24 N          -0.0828  -21.5324  -42.4175 N.am      10 UNK        -0.5000 
     25 C          -1.3418  -21.6724  -41.9809 C.2       9 UNK         0.5000 
     26 O          -2.0189  -22.6792  -42.1919 O.2       9 UNK        -0.5000 
     27 CA         -1.9511  -20.4801  -41.2124 C.3       9 UNK         0.1400 
     28 CB         -3.0581  -20.9020  -40.2244 C.3       9 UNK        -0.1800 
     29 N          -0.9464  -19.6369  -40.5564 N.am      9 UNK        -0.5000 
     30 C          -0.1092  -19.9676  -39.5607 C.2       8 UNK         0.5000 
     31 O          -0.1174  -21.0600  -38.9922 O.2       8 UNK        -0.5000 
     32 CA          0.9372  -18.9129  -39.1390 C.3       8 UNK         0.1400 
     33 CB          2.3509  -19.3803  -39.5212 C.3       8 UNK        -0.1800 
     34 N           0.7049  -17.5911  -39.7268 N.am      8 UNK        -0.5000 
     35 C          -0.2416  -16.7302  -39.3281 C.2       7 UNK         0.5000 
     36 O          -0.9776  -16.9239  -38.3601 O.2       7 UNK        -0.5000 
     37 CA         -0.4237  -15.4591  -40.1795 C.3       7 UNK         0.1400 
     38 CB          0.5222  -14.3485  -39.6989 C.3       7 UNK        -0.1800 
     39 N          -0.2180  -15.6942  -41.6119 N.am      7 UNK        -0.5000 
     40 C          -0.9910  -16.4790  -42.3779 C.2       6 UNK         0.5000 
     41 O          -1.9922  -17.0626  -41.9641 O.2       6 UNK        -0.5000 
     42 CA         -0.5358  -16.7072  -43.8303 C.3       6 UNK         0.1400 
     43 CB         -0.9301  -15.5303  -44.7344 C.3       6 UNK        -0.1800 
     44 N           0.9031  -16.9395  -43.9253 N.am      6 UNK        -0.5000 
     45 C           1.5389  -18.0060  -43.4231 C.2       5 UNK         0.5000 
     46 O           0.9684  -18.9385  -42.8579 O.2       5 UNK        -0.5000 
     47 CA          3.0718  -18.0154  -43.5375 C.3       5 UNK         0.1400 
     48 CB          3.5218  -18.5671  -44.8975 C.3       5 UNK        -0.1800 
     49 N           3.6406  -16.6834  -43.3361 N.am      5 UNK        -0.5000 
     50 C           3.6772  -16.0499  -42.1561 C.2       4 UNK         0.5000 
     51 O           3.2618  -16.5375  -41.1048 O.2       4 UNK        -0.5000 
     52 CA          4.2384  -14.6161  -42.1630 C.3       4 UNK         0.1400 
     53 CB          5.7742  -14.6331  -42.1434 C.3       4 UNK        -0.1800 
     54 N           3.7743  -13.8335  -43.3107 N.am      4 UNK        -0.5000 
     55 C           2.5022  -13.4546  -43.4952 C.2       3 UNK         0.5000 
     56 O           1.5913  -13.7178  -42.7116 O.2       3 UNK        -0.5000 
     57 CA          2.1818  -12.6863  -44.7905 C.3       3 UNK         0.1400 
     58 CB          2.4704  -11.1882  -44.6136 C.3       3 UNK        -0.1800 
     59 N           2.8787  -13.1761  -45.9840 N.am      3 UNK        -0.5000 
     60 C           2.8444  -14.4341  -46.4416 C.2       2 UNK         0.5000 
     61 O           2.2995  -15.3656  -45.8495 O.2       2 UNK        -0.5000 
     62 CA          3.4681  -14.6762  -47.8248 C.3       2 UNK         0.1400 
     63 CB          4.1387  -16.0557  -47.9224 C.3       2 UNK        -0.1800 
     64 N           2.4126  -14.5835  -48.8303 N.am      2 UNK        -0.5000 
     65 C           1.9546  -13.4323  -49.3372 C.2       1 UNK         0.5000 
     66 O           2.4708  -12.3390  -49.0932 O.2       1 UNK        -0.5000 
     67 C          -2.0783  -22.1583  -46.8168 C.2       11 UNK         0.5000 
     68 O          -2.3472  -22.4943  -47.9700 O.2       11 UNK        -0.5000 
     69 N          -2.8037  -22.5431  -45.7560 N.am      12 UNK        -0.5000 
     70 CA         -3.9315  -23.4765  -45.8121 C.3       12 UNK         0.1400 
     71 CB         -4.5741  -23.5792  -44.4218 C.3       12 UNK        -0.1800 
     72 C          -3.5406  -24.8751  -46.3325 C.2       12 UNK         0.5000 
     73 O          -4.3620  -25.5281  -46.9758 O.2       12 UNK        -0.5000 
     74 N          -2.2936  -25.2892  -46.0706 N.am      13 UNK        -0.5000 
     75 CA         -1.7128  -26.5394  -46.5503 C.3       13 UNK         0.1400 
     76 CB         -0.9902  -27.2384  -45.3873 C.3       13 UNK        -0.1800 
     77 C          -0.7434  -26.2798  -47.7136 C.2       13 UNK         0.5000 
     78 O          -0.8546  -26.9315  -48.7517 O.2       13 UNK        -0.5000 
     79 N           0.1864  -25.3319  -47.5261 N.am      14 UNK        -0.5000 
     80 CA          1.3014  -25.0607  -48.4383 C.3       14 UNK         0.1400 
     81 CB          2.3208  -24.1594  -47.7235 C.3       14 UNK        -0.1800 
     82 C           0.8856  -24.4327  -49.7809 C.2       14 UNK         0.5000 
     83 O           1.5754  -24.6353  -50.7807 O.2       14 UNK        -0.5000 
     84 N          -0.2212  -23.6832  -49.7760 N.am      15 UNK        -0.5000 
     85 CA         -0.7675  -22.9687  -50.9301 C.3       15 UNK         0.1400 
     86 CB         -0.6135  -21.4605  -50.6728 C.3       15 UNK        -0.1800 
     87 C          -2.2290  -23.3618  -51.2104 C.2       15 UNK         0.5000 
     88 O          -2.8838  -22.7067  -52.0235 O.2       15 UNK        -0.5000 
     89 N          -2.7219  -24.4013  -50.5167 N.am      16 UNK        -0.5000 
     90 CA         -4.0872  -24.9392  -50.5567 C.3       16 UNK         0.1400 
     91 CB         -4.3222  -25.6942  -51.8797 C.3       16 UNK        -0.1800 
     92 C          -5.1759  -23.8823  -50.2605 C.2       16 UNK         0.5000 
     93 O          -6.2581  -23.9297  -50.8464 O.2       16 UNK        -0.5000 
     94 N          -4.8475  -22.9371  -49.3665 N.am      17 UNK        -0.5000 
     95 CA         -5.6376  -21.7710  -48.9572 C.3       17 UNK         0.1400 
     96 CB         -6.9993  -22.1838  -48.3589 C.3       17 UNK        -0.1800 
     97 C          -5.7611  -20.6814  -50.0439 C.2       17 UNK         0.5000 
     98 O          -6.6028  -19.7917  -49.9079 O.2       17 UNK        -0.5000 
     99 N          -4.8905  -20.7335  -51.0641 N.am      18 UNK        -0.5000 
    100 CA        -4.7470  -19.7667  -52.1535 C.3       18 UNK         0.1400 
    101 CB        -4.2041  -18.4300  -51.6035 C.3       18 UNK        -0.1800 
    102 C         -6.0261  -19.6421  -53.0098 C.2       18 UNK         0.5000 
    103 O         -6.6429  -20.6654  -53.3152 O.2       18 UNK        -0.5000 
    104 N         -6.3861  -18.4115  -53.4033 N.am      19 UNK        -0.5000 
    105 CA        -7.5470  -18.0333  -54.2145 C.3       19 UNK         0.1400 
    106 CB        -8.8573  -18.2524  -53.4257 C.3       19 UNK        -0.1800 
    107 C         -7.5365  -18.7167  -55.5969 C.2       19 UNK         0.5000 
    108 O         -6.8798  -18.2195  -56.5121 O.2       19 UNK        -0.5000 
    109 N         -8.2523  -19.8417  -55.7226 N.am      20 UNK        -0.5000 
    110 CA        -8.2906  -20.6819  -56.9198 C.3       20 UNK         0.1400 
    111 CB        -9.4923  -21.6341  -56.8185 C.3       20 UNK        -0.1800 
    112 C         -6.9886  -21.4770  -57.1472 C.2       20 UNK         0.5000 
    113 O         -6.7150  -21.8608  -58.2853 O.2       20 UNK        -0.5000 
    114 N         -6.2221  -21.7181  -56.0740 N.am      21 UNK        -0.5000 
    115 CA        -4.9156  -22.3689  -56.1049 C.3       21 UNK         0.1400 
    116 CB        -4.7417  -23.1983  -54.8182 C.3       21 UNK        -0.1800 
    117 C         -3.8164  -21.3105  -56.3275 C.2       21 UNK         0.5000 
    118 O         -3.6923  -20.7968  -57.4402 O.2       21 UNK        -0.5000 
    119 N         -3.0308  -21.0139  -55.2841 N.am      22 UNK        -0.5000 
    120 CA        -1.9744  -19.9884  -55.2719 C.3       22 UNK         0.1400 
    121 C         -2.5087  -18.5597  -55.5763 C.2       22 UNK         0.5000 
    122 N         -1.8413  -17.8057  -56.4390 N.am      22 UNK        -0.7600 
    123 O         -3.5008  -18.1191  -55.0027 O.2       22 UNK        -0.5000 
    124 C124       -1.2132  -20.0187  -53.9231 C.3       23 UNK        -0.0398 
    125 S125        0.5302  -19.4988  -54.0393 S.3       23 UNK        -0.2404 
    126 C126        0.4759  -17.7705  -53.4540 C.3       23 UNK        -0.0205 
    127 H127        0.8895  -11.0705  -53.3840 H         1 UNK         0.0600 
    128 H128        1.3653   -9.6615  -52.4322 H         1 UNK         0.0600 
    129 H129       -0.3409   -9.9552  -52.7850 H         1 UNK         0.0600 
    130 H130        0.9878  -12.9224  -52.2253 H         1 UNK         0.3000 
    131 H131        0.7817  -14.5046  -50.7504 H         1 UNK         0.0600 
    132 H132       -0.5338  -14.3360  -48.6214 H         1 UNK         0.0800 
    133 H133       -0.7261  -12.6285  -48.8504 H         1 UNK         0.0800 
    134 H134       -3.3913  -15.8713  -50.5340 H         1 UNK         0.0800 
    135 H135       -2.7458  -15.6475  -48.9288 H         1 UNK         0.0800 
    136 H136       -1.5260  -16.2196  -52.4514 H         1 UNK         0.1150 
    137 H137        1.5337  -18.9551  -51.2243 H         1 UNK         0.1150 
    138 H138       -0.9874  -17.0749  -48.3009 H         1 UNK         0.1150 
    139 H139        1.1420  -19.9796  -48.8596 H         1 UNK         0.0800 
    140 H140        2.1375  -18.5879  -48.5616 H         1 UNK         0.0800 
    141 H141       -1.4758  -19.7507  -47.9474 H         1 UNK         0.0800 
    142 H142       -1.7914  -19.3851  -46.2748 H         1 UNK         0.0800 
    143 H143       -0.0485  -21.7056  -47.2322 H         1 UNK         0.0600 
    144 H144       -0.2139  -20.6167  -44.6459 H         1 UNK         0.3000 
    145 H145        0.4841  -23.5137  -42.7367 H         1 UNK         0.0600 
    146 H146        2.5145  -22.2270  -42.1086 H         1 UNK         0.0600 
    147 H147        2.7240  -22.9711  -43.6875 H         1 UNK         0.0600 
    148 H148        2.3772  -21.2507  -43.5681 H         1 UNK         0.0600 
    149 H149        0.3774  -20.6354  -42.2829 H         1 UNK         0.3000 
    150 H150       -2.4166  -19.8493  -41.9706 H         1 UNK         0.0600 
    151 H151       -3.8845  -21.3853  -40.7468 H         1 UNK         0.0600 
    152 H152       -3.4680  -20.0385  -39.7006 H         1 UNK         0.0600 
    153 H153       -2.6901  -21.6056  -39.4774 H         1 UNK         0.0600 
    154 H154       -0.8448  -18.7133  -40.9573 H         1 UNK         0.3000 
    155 H155        0.8907  -18.8230  -38.0518 H         1 UNK         0.0600 
    156 H156        2.4563  -19.5025  -40.5993 H         1 UNK         0.0600 
    157 H157        2.5862  -20.3397  -39.0588 H         1 UNK         0.0600 
    158 H158        3.1058  -18.6672  -39.1896 H         1 UNK         0.0600 
    159 H159        1.3088  -17.3269  -40.4965 H         1 UNK         0.3000 
    160 H160       -1.4505  -15.1141  -40.0421 H         1 UNK         0.0600 
    161 H161        1.5680  -14.6155  -39.8552 H         1 UNK         0.0600 
    162 H162        0.3875  -14.1517  -38.6346 H         1 UNK         0.0600 
    163 H163        0.3330  -13.4143  -40.2279 H         1 UNK         0.0600 
    164 H164        0.5607  -15.2025  -42.0422 H         1 UNK         0.3000 
    165 H165       -1.0415  -17.6009  -44.2017 H         1 UNK         0.0600 
    166 H166       -0.6431  -15.7175  -45.7697 H         1 UNK         0.0600 
    167 H167       -2.0086  -15.3698  -44.7179 H         1 UNK         0.0600 
    168 H168       -0.4540  -14.6027  -44.4180 H         1 UNK         0.0600 
    169 H169        1.4434  -16.2582  -44.4531 H         1 UNK         0.3000 
    170 H170        3.4591  -18.6770  -42.7600 H         1 UNK         0.0600 
    171 H171        3.1158  -19.5635  -45.0734 H         1 UNK         0.0600 
    172 H172        3.1854  -17.9330  -45.7163 H         1 UNK         0.0600 
    173 H173        4.6076  -18.6420  -44.9547 H         1 UNK         0.0600 
    174 H174        3.9312  -16.1850  -44.1644 H         1 UNK         0.3000 
    175 H175        3.8925  -14.1210  -41.2530 H         1 UNK         0.0600 
    176 H176        6.1855  -15.0907  -43.0439 H         1 UNK         0.0600 
    177 H177        6.1783  -13.6236  -42.0648 H         1 UNK         0.0600 
    178 H178        6.1467  -15.1985  -41.2881 H         1 UNK         0.0600 
    179 H179        4.4602  -13.5824  -44.0072 H         1 UNK         0.3000 
    180 H180        1.1125  -12.8013  -44.9770 H         1 UNK         0.0600 
    181 H181        3.5350  -10.9968  -44.4733 H         1 UNK         0.0600 
    182 H182        1.9471  -10.7890  -43.7435 H         1 UNK         0.0600 
    183 H183        2.1376  -10.6172  -45.4806 H         1 UNK         0.0600 
    184 H184        3.3106  -12.4714  -46.5656 H         1 UNK         0.3000 
    185 H185        4.2327  -13.9186  -48.0100 H         1 UNK         0.0600 
    186 H186        4.9079  -16.1718  -47.1580 H         1 UNK         0.0600 
    187 H187        3.4201  -16.8627  -47.7904 H         1 UNK         0.0600 
    188 H188        4.6181  -16.1921  -48.8918 H         1 UNK         0.0600 
    189 H189        1.9304  -15.4451  -49.0435 H         1 UNK         0.3000 
    190 H190       -2.5074  -22.2517  -44.8356 H         1 UNK         0.3000 
    191 H191       -4.6735  -23.0645  -46.4958 H         1 UNK         0.0600 
    192 H192       -4.8919  -22.6018  -44.0583 H         1 UNK         0.0600 
    193 H193       -5.4569  -24.2193  -44.4471 H         1 UNK         0.0600 
    194 H194       -3.8843  -24.0019  -43.6904 H         1 UNK         0.0600 
    195 H195       -1.6708  -24.6696  -45.5659 H         1 UNK         0.3000 
    196 H196       -2.4938  -27.2127  -46.9100 H         1 UNK         0.0600 
    197 H197       -0.5289  -28.1702  -45.7169 H         1 UNK         0.0600 
    198 H198       -1.6873  -27.4865  -44.5868 H         1 UNK         0.0600 
    199 H199       -0.2038  -26.6136  -44.9616 H         1 UNK         0.0600 
    200 H200        0.1999  -24.8218  -46.6453 H         1 UNK         0.3000 
    201 H201        1.7886  -26.0123  -48.6608 H         1 UNK         0.0600 
    202 H202        2.6749  -24.6186  -46.8003 H         1 UNK         0.0600 
    203 H203        1.8942  -23.1884  -47.4710 H         1 UNK         0.0600 
    204 H204        3.1937  -23.9802  -48.3526 H         1 UNK         0.0600 
    205 H205       -0.7347  -23.5695  -48.9111 H         1 UNK         0.3000 
    206 H206       -0.2189  -23.2164  -51.8408 H         1 UNK         0.0600 
    207 H207        0.4179  -21.1542  -50.8414 H         1 UNK         0.0600 
    208 H208       -1.2434  -20.8524  -51.3167 H         1 UNK         0.0600 
    209 H209       -0.8771  -21.1949  -49.6529 H         1 UNK         0.0600 
    210 H210       -2.0870  -24.8816  -49.8954 H         1 UNK         0.3000 
    211 H211       -4.1511  -25.6687  -49.7484 H         1 UNK         0.0600 
    212 H212       -4.2952  -25.0212  -52.7349 H         1 UNK         0.0600 
    213 H213       -5.2923  -26.1924  -51.8832 H         1 UNK         0.0600 
    214 H214       -3.5642  -26.4620  -52.0343 H         1 UNK         0.0600 
    215 H215       -3.9109  -22.9695  -48.9717 H         1 UNK         0.3000 
    216 H216       -5.0644  -21.3056  -48.1545 H         1 UNK         0.0600 
    217 H217       -7.4797  -21.3386  -47.8651 H         1 UNK         0.0600 
    218 H218       -6.8852  -22.9713  -47.6141 H         1 UNK         0.0600 
    219 H219       -7.6870  -22.5429  -49.1247 H         1 UNK         0.0600 
    220 H220       -4.2780  -21.5393  -51.1288 H         1 UNK         0.3000 
    221 H221       -3.9886  -20.1811  -52.8144 H         1 UNK         0.0600 
    222 H222       -4.9375  -17.9144  -50.9828 H         1 UNK         0.0600 
    223 H223       -3.3168  -18.5996  -50.9936 H         1 UNK         0.0600 
    224 H224       -3.9107  -17.7532  -52.4056 H         1 UNK         0.0600 
    225 H225       -5.7694  -17.6498  -53.1588 H         1 UNK         0.3000 
    226 H226       -7.4564  -16.9623  -54.4020 H         1 UNK         0.0600 
    227 H227       -8.8745  -17.6360  -52.5268 H         1 UNK         0.0600 
    228 H228       -9.7258  -17.9731  -54.0237 H         1 UNK         0.0600 
    229 H229       -8.9899  -19.2881  -53.1121 H         1 UNK         0.0600 
    230 H230       -8.7263  -20.1970  -54.9045 H         1 UNK         0.3000 
    231 H231       -8.4387  -20.0366  -57.7883 H         1 UNK         0.0600 
    232 H232       -9.4071  -22.2988  -55.9578 H         1 UNK         0.0600 
    233 H233       -9.5719  -22.2589  -57.7092 H         1 UNK         0.0600 
    234 H234      -10.4275  -21.0815  -56.7261 H         1 UNK         0.0600 
    235 H235       -6.5154  -21.3463  -55.1752 H         1 UNK         0.3000 
    236 H236       -4.8674  -23.0618  -56.9475 H         1 UNK         0.0600 
    237 H237       -5.4900  -23.9892  -54.7653 H         1 UNK         0.0600 
    238 H238       -3.7639  -23.6808  -54.7876 H         1 UNK         0.0600 
    239 H239       -4.8463  -22.5943  -53.9166 H         1 UNK         0.0600 
    240 H240       -3.1873  -21.5054  -54.4156 H         1 UNK         0.3000 
    241 H241       -1.2793  -20.2700  -56.0654 H         1 UNK         0.0600 
    242 H242       -1.0207  -18.1463  -56.9152 H         1 UNK         0.3800 
    243 H243       -2.1779  -16.8763  -56.6352 H         1 UNK         0.3800 
    244 H244       -1.1771  -21.0459  -53.5602 H         1 UNK         0.0800 
    245 H245       -1.7308  -19.4461  -53.1523 H         1 UNK         0.0800 
    246 H246       -0.1771  -17.1965  -54.1124 H         1 UNK         0.0800 
    247 H247        1.4710  -17.3381  -53.5647 H         1 UNK         0.0800 
@<TRIPOS>BOND
     1    1    2 1    
     2    1  127 1    
     3    1  128 1    
     4    1  129 1    
     5    2    3 2    
     6    2    4 am   BACKBONE|DICT|INTERRES
     7    4    5 1    
     8    4  130 1    
     9    5    6 1    
    10    5   65 1    
    11    5  131 1    
    12    6    7 1    
    13    6  132 1    
    14    6  133 1    
    15    7    8 1    
    16    8    9 1    
    17    8  134 1    
    18    8  135 1    
    19    9   10 ar   
    20    9   14 ar   
    21   10   11 ar   
    22   10  136 1    
    23   11   12 ar   
    24   11  126 1    
    25   12   13 ar   
    26   12  137 1    
    27   13   14 ar   
    28   13   15 1    
    29   14  138 1    
    30   15   16 1    
    31   15  139 1    
    32   15  140 1    
    33   16   17 1    
    34   17   18 1    
    35   17  141 1    
    36   17  142 1    
    37   18   19 1    
    38   18   67 1    
    39   18  143 1    
    40   19   20 am   BACKBONE|DICT|INTERRES
    41   19  144 1    
    42   20   21 2    
    43   20   22 1    
    44   22   23 1    
    45   22   24 1    
    46   22  145 1    
    47   23  146 1    
    48   23  147 1    
    49   23  148 1    
    50   24   25 am   BACKBONE|DICT|INTERRES
    51   24  149 1    
    52   25   26 2    
    53   25   27 1    
    54   27   28 1    
    55   27   29 1    
    56   27  150 1    
    57   28  151 1    
    58   28  152 1    
    59   28  153 1    
    60   29   30 am   BACKBONE|DICT|INTERRES
    61   29  154 1    
    62   30   31 2    
    63   30   32 1    
    64   32   33 1    
    65   32   34 1    
    66   32  155 1    
    67   33  156 1    
    68   33  157 1    
    69   33  158 1    
    70   34   35 am   BACKBONE|DICT|INTERRES
    71   34  159 1    
    72   35   36 2    
    73   35   37 1    
    74   37   38 1    
    75   37   39 1    
    76   37  160 1    
    77   38  161 1    
    78   38  162 1    
    79   38  163 1    
    80   39   40 am   BACKBONE|DICT|INTERRES
    81   39  164 1    
    82   40   41 2    
    83   40   42 1    
    84   42   43 1    
    85   42   44 1    
    86   42  165 1    
    87   43  166 1    
    88   43  167 1    
    89   43  168 1    
    90   44   45 am   BACKBONE|DICT|INTERRES
    91   44  169 1    
    92   45   46 2    
    93   45   47 1    
    94   47   48 1    
    95   47   49 1    
    96   47  170 1    
    97   48  171 1    
    98   48  172 1    
    99   48  173 1    
   100   49   50 am   BACKBONE|DICT|INTERRES
   101   49  174 1    
   102   50   51 2    
   103   50   52 1    
   104   52   53 1    
   105   52   54 1    
   106   52  175 1    
   107   53  176 1    
   108   53  177 1    
   109   53  178 1    
   110   54   55 am   BACKBONE|DICT|INTERRES
   111   54  179 1    
   112   55   56 2    
   113   55   57 1    
   114   57   58 1    
   115   57   59 1    
   116   57  180 1    
   117   58  181 1    
   118   58  182 1    
   119   58  183 1    
   120   59   60 am   BACKBONE|DICT|INTERRES
   121   59  184 1    
   122   60   61 2    
   123   60   62 1    
   124   62   63 1    
   125   62   64 1    
   126   62  185 1    
   127   63  186 1    
   128   63  187 1    
   129   63  188 1    
   130   64   65 am   BACKBONE|DICT|INTERRES
   131   64  189 1    
   132   65   66 2    
   133   67   68 2    
   134   67   69 am   BACKBONE|DICT|INTERRES
   135   69   70 1    
   136   69  190 1    
   137   70   71 1    
   138   70   72 1    
   139   70  191 1    
   140   71  192 1    
   141   71  193 1    
   142   71  194 1    
   143   72   73 2    
   144   72   74 am   BACKBONE|DICT|INTERRES
   145   74   75 1    
   146   74  195 1    
   147   75   76 1    
   148   75   77 1    
   149   75  196 1    
   150   76  197 1    
   151   76  198 1    
   152   76  199 1    
   153   77   78 2    
   154   77   79 am   BACKBONE|DICT|INTERRES
   155   79   80 1    
   156   79  200 1    
   157   80   81 1    
   158   80   82 1    
   159   80  201 1    
   160   81  202 1    
   161   81  203 1    
   162   81  204 1    
   163   82   83 2    
   164   82   84 am   BACKBONE|DICT|INTERRES
   165   84   85 1    
   166   84  205 1    
   167   85   86 1    
   168   85   87 1    
   169   85  206 1    
   170   86  207 1    
   171   86  208 1    
   172   86  209 1    
   173   87   88 2    
   174   87   89 am   BACKBONE|DICT|INTERRES
   175   89   90 1    
   176   89  210 1    
   177   90   91 1    
   178   90   92 1    
   179   90  211 1    
   180   91  212 1    
   181   91  213 1    
   182   91  214 1    
   183   92   93 2    
   184   92   94 am   BACKBONE|DICT|INTERRES
   185   94   95 1    
   186   94  215 1    
   187   95   96 1    
   188   95   97 1    
   189   95  216 1    
   190   96  217 1    
   191   96  218 1    
   192   96  219 1    
   193   97   98 2    
   194   97   99 am   BACKBONE|DICT|INTERRES
   195   99  100 1    
   196   99  220 1    
   197  100  101 1    
   198  100  102 1    
   199  100  221 1    
   200  101  222 1    
   201  101  223 1    
   202  101  224 1    
   203  102  103 2    
   204  102  104 am   BACKBONE|DICT|INTERRES
   205  104  105 1    
   206  104  225 1    
   207  105  106 1    
   208  105  107 1    
   209  105  226 1    
   210  106  227 1    
   211  106  228 1    
   212  106  229 1    
   213  107  108 2    
   214  107  109 am   BACKBONE|DICT|INTERRES
   215  109  110 1    
   216  109  230 1    
   217  110  111 1    
   218  110  112 1    
   219  110  231 1    
   220  111  232 1    
   221  111  233 1    
   222  111  234 1    
   223  112  113 2    
   224  112  114 am   BACKBONE|DICT|INTERRES
   225  114  115 1    
   226  114  235 1    
   227  115  116 1    
   228  115  117 1    
   229  115  236 1    
   230  116  237 1    
   231  116  238 1    
   232  116  239 1    
   233  117  118 2    
   234  117  119 am   BACKBONE|DICT|INTERRES
   235  119  120 1    
   236  119  240 1    
   237  120  121 1    
   238  120  124 1    
   239  120  241 1    
   240  121  122 am   BACKBONE|DICT|INTERRES
   241  121  123 2    
   242  122  242 1    
   243  122  243 1    
   244  124  125 1    
   245  124  244 1    
   246  124  245 1    
   247  125  126 1    
   248  126  246 1    
   249  126  247 1    
@<TRIPOS>SUBSTRUCTURE
     1 UNK         1 GROUP             0       ****    0 ROOT    
