@<TRIPOS>MOLECULE
3R540
247   249    1
SMALL
USER_CHARGES


@<TRIPOS>ATOM
      1 CA         -1.1004  -14.0588  -51.6039 C.3       0 UNK        -0.1800 
      2 C          -0.5300  -13.8131  -50.2145 C.2       0 UNK         0.5000 
      3 O          -0.8861  -12.8281  -49.5679 O.2       0 UNK        -0.5000 
      4 N           0.3419  -14.7139  -49.7433 N.am      1 UNK        -0.5000 
      5 CA          0.9950  -14.6498  -48.4277 C.3       1 UNK         0.1400 
      6 C6          2.3313  -15.4342  -48.4177 C.3       23 UNK        -0.0398 
      7 S7          2.1319  -17.2371  -48.6254 S.3       23 UNK        -0.2404 
      8 C8          3.0028  -17.5614  -50.1863 C.3       23 UNK        -0.0205 
      9 C9          2.8025  -19.0144  -50.5789 C.ar      23 UNK        -0.0193 
     10 C10         1.7497  -19.3732  -51.4230 C.ar      23 UNK        -0.1150 
     11 C11         1.5082  -20.7163  -51.7197 C.ar      23 UNK        -0.0193 
     12 C12         2.3168  -21.7024  -51.1505 C.ar      23 UNK        -0.1150 
     13 C13         3.3688  -21.3610  -50.2942 C.ar      23 UNK        -0.0193 
     14 C14         3.6291  -20.0074  -50.0463 C.ar      23 UNK        -0.1150 
     15 C15         4.1799  -22.4885  -49.6539 C.3       23 UNK        -0.0205 
     16 S16         4.9786  -22.1173  -48.0481 S.3       23 UNK        -0.2404 
     17 C17         3.6636  -21.3871  -47.0089 C.3       23 UNK        -0.0398 
     18 CA          2.5062  -22.3452  -46.6197 C.3       11 UNK         0.1400 
     19 N           2.0201  -22.0708  -45.2670 N.am      11 UNK        -0.5000 
     20 C           1.3781  -22.9425  -44.4782 C.2       10 UNK         0.5000 
     21 O           1.2346  -24.1331  -44.7536 O.2       10 UNK        -0.5000 
     22 CA          0.7771  -22.3887  -43.1684 C.3       10 UNK         0.1400 
     23 CB          1.7315  -22.6388  -41.9917 C.3       10 UNK        -0.1800 
     24 N           0.4666  -20.9578  -43.2389 N.am      10 UNK        -0.5000 
     25 C          -0.5065  -20.4329  -44.0003 C.2       9 UNK         0.5000 
     26 O          -1.2995  -21.1144  -44.6482 O.2       9 UNK        -0.5000 
     27 CA         -0.5697  -18.8953  -44.1181 C.3       9 UNK         0.1400 
     28 CB         -1.5937  -18.3214  -43.1362 C.3       9 UNK        -0.1800 
     29 N           0.7209  -18.2286  -43.9297 N.am      9 UNK        -0.5000 
     30 C           1.8064  -18.4708  -44.6772 C.2       8 UNK         0.5000 
     31 O           1.7784  -19.1857  -45.6789 O.2       8 UNK        -0.5000 
     32 CA          3.1647  -17.9221  -44.1990 C.3       8 UNK         0.1400 
     33 CB          3.6791  -16.8231  -45.1372 C.3       8 UNK        -0.1800 
     34 N           3.2115  -17.4481  -42.8114 N.am      8 UNK        -0.5000 
     35 C           2.9878  -18.1925  -41.7180 C.2       7 UNK         0.5000 
     36 O           2.5553  -19.3459  -41.7543 O.2       7 UNK        -0.5000 
     37 CA          3.3247  -17.5605  -40.3586 C.3       7 UNK         0.1400 
     38 CB          4.3102  -16.3757  -40.4382 C.3       7 UNK        -0.1800 
     39 N           2.1041  -17.1314  -39.6820 N.am      7 UNK        -0.5000 
     40 C           1.8977  -17.2362  -38.3615 C.2       6 UNK         0.5000 
     41 O           2.6896  -17.7918  -37.5979 O.2       6 UNK        -0.5000 
     42 CA          0.6288  -16.5931  -37.7632 C.3       6 UNK         0.1400 
     43 CB          1.0059  -15.4916  -36.7579 C.3       6 UNK        -0.1800 
     44 N          -0.2577  -16.0069  -38.7672 N.am      6 UNK        -0.5000 
     45 C          -1.2496  -16.6551  -39.3884 C.2       5 UNK         0.5000 
     46 O          -1.5346  -17.8347  -39.1813 O.2       5 UNK        -0.5000 
     47 CA         -2.0563  -15.8469  -40.4241 C.3       5 UNK         0.1400 
     48 CB         -3.2816  -15.2024  -39.7588 C.3       5 UNK        -0.1800 
     49 N          -1.2978  -14.8039  -41.1238 N.am      5 UNK        -0.5000 
     50 C          -0.1625  -14.9662  -41.8162 C.2       4 UNK         0.5000 
     51 O           0.4485  -16.0349  -41.8937 O.2       4 UNK        -0.5000 
     52 CA          0.3509  -13.7175  -42.5578 C.3       4 UNK         0.1400 
     53 CB          1.7820  -13.8941  -43.0877 C.3       4 UNK        -0.1800 
     54 N          -0.5345  -13.3970  -43.6760 N.am      4 UNK        -0.5000 
     55 C          -1.6868  -12.7180  -43.5719 C.2       3 UNK         0.5000 
     56 O          -2.0894  -12.2307  -42.5141 O.2       3 UNK        -0.5000 
     57 CA         -2.5505  -12.5779  -44.8432 C.3       3 UNK         0.1400 
     58 CB         -2.2681  -11.2380  -45.5389 C.3       3 UNK        -0.1800 
     59 N          -2.3515  -13.6623  -45.8054 N.am      3 UNK        -0.5000 
     60 C          -2.6474  -14.9511  -45.5864 C.2       2 UNK         0.5000 
     61 O          -3.2302  -15.3524  -44.5793 O.2       2 UNK        -0.5000 
     62 CA         -2.2064  -15.9705  -46.6570 C.3       2 UNK         0.1400 
     63 CB         -3.4184  -16.4264  -47.4841 C.3       2 UNK        -0.1800 
     64 N          -1.1612  -15.5080  -47.5765 N.am      2 UNK        -0.5000 
     65 C           0.0614  -15.0532  -47.2575 C.2       1 UNK         0.5000 
     66 O           0.4535  -14.9236  -46.0973 O.2       1 UNK        -0.5000 
     67 C           1.3231  -22.2397  -47.6019 C.2       11 UNK         0.5000 
     68 O           1.0724  -23.1755  -48.3629 O.2       11 UNK        -0.5000 
     69 N           0.5803  -21.1215  -47.5203 N.am      12 UNK        -0.5000 
     70 CA         -0.5745  -20.7981  -48.3668 C.3       12 UNK         0.1400 
     71 CB         -1.0992  -19.3977  -48.0243 C.3       12 UNK        -0.1800 
     72 C          -1.7249  -21.8183  -48.2903 C.2       12 UNK         0.5000 
     73 O          -2.5215  -21.8975  -49.2257 O.2       12 UNK        -0.5000 
     74 N          -1.7729  -22.6120  -47.2118 N.am      13 UNK        -0.5000 
     75 CA         -2.6444  -23.7727  -47.0195 C.3       13 UNK         0.1400 
     76 CB         -2.3368  -24.4061  -45.6556 C.3       13 UNK        -0.1800 
     77 C          -2.5468  -24.8312  -48.1399 C.2       13 UNK         0.5000 
     78 O          -3.5207  -25.5493  -48.3660 O.2       13 UNK        -0.5000 
     79 N          -1.4215  -24.8665  -48.8725 N.am      14 UNK        -0.5000 
     80 CA         -1.2451  -25.6413  -50.1063 C.3       14 UNK         0.1400 
     81 CB          0.2160  -25.5223  -50.5646 C.3       14 UNK        -0.1800 
     82 C          -2.1976  -25.2126  -51.2457 C.2       14 UNK         0.5000 
     83 O          -2.5203  -26.0321  -52.1056 O.2       14 UNK        -0.5000 
     84 N          -2.6506  -23.9529  -51.2094 N.am      15 UNK        -0.5000 
     85 CA         -3.6678  -23.3674  -52.0802 C.3       15 UNK         0.1400 
     86 CB         -3.0794  -22.1057  -52.7333 C.3       15 UNK        -0.1800 
     87 C          -4.9459  -23.0479  -51.2782 C.2       15 UNK         0.5000 
     88 O          -5.6625  -22.1057  -51.6211 O.2       15 UNK        -0.5000 
     89 N          -5.1836  -23.7971  -50.1885 N.am      16 UNK        -0.5000 
     90 CA         -6.3115  -23.6934  -49.2515 C.3       16 UNK         0.1400 
     91 CB         -7.6225  -24.0996  -49.9561 C.3       16 UNK        -0.1800 
     92 C          -6.4316  -22.3229  -48.5464 C.2       16 UNK         0.5000 
     93 O          -7.5104  -21.9843  -48.0583 O.2       16 UNK        -0.5000 
     94 N          -5.3357  -21.5466  -48.5379 N.am      17 UNK        -0.5000 
     95 CA         -5.2328  -20.1424  -48.1252 C.3       17 UNK         0.1400 
     96 CB         -5.5093  -19.9802  -46.6169 C.3       17 UNK        -0.1800 
     97 C          -6.0581  -19.1733  -49.0041 C.2       17 UNK         0.5000 
     98 O          -6.2531  -18.0208  -48.6173 O.2       17 UNK        -0.5000 
     99 N          -6.5031  -19.6372  -50.1817 N.am      18 UNK        -0.5000 
    100 CA        -7.2363  -18.8471  -51.1706 C.3       18 UNK         0.1400 
    101 CB        -8.2010  -19.7725  -51.9292 C.3       18 UNK        -0.1800 
    102 C         -6.2903  -18.1411  -52.1576 C.2       18 UNK         0.5000 
    103 O         -6.7121  -17.1944  -52.8216 O.2       18 UNK        -0.5000 
    104 N         -5.0446  -18.6314  -52.2597 N.am      19 UNK        -0.5000 
    105 CA        -3.9208  -18.1638  -53.0849 C.3       19 UNK         0.1400 
    106 CB        -3.5221  -16.7215  -52.7229 C.3       19 UNK        -0.1800 
    107 C         -4.1075  -18.3269  -54.6079 C.2       19 UNK         0.5000 
    108 O         -3.1254  -18.5788  -55.3037 O.2       19 UNK        -0.5000 
    109 N         -5.3456  -18.2365  -55.1084 N.am      20 UNK        -0.5000 
    110 CA        -5.7094  -18.4241  -56.5169 C.3       20 UNK         0.1400 
    111 CB        -7.1995  -18.0972  -56.6950 C.3       20 UNK        -0.1800 
    112 C         -5.3990  -19.8384  -57.0483 C.2       20 UNK         0.5000 
    113 O         -5.0696  -19.9927  -58.2246 O.2       20 UNK        -0.5000 
    114 N         -5.4731  -20.8382  -56.1595 N.am      21 UNK        -0.5000 
    115 CA        -5.1494  -22.2391  -56.4348 C.3       21 UNK         0.1400 
    116 CB        -5.8704  -23.1182  -55.3992 C.3       21 UNK        -0.1800 
    117 C         -3.6330  -22.5360  -56.4634 C.2       21 UNK         0.5000 
    118 O         -3.2532  -23.6595  -56.7949 O.2       21 UNK        -0.5000 
    119 N         -2.7931  -21.5497  -56.1153 N.am      22 UNK        -0.5000 
    120 CA        -1.3229  -21.6528  -56.1196 C.3       22 UNK         0.1400 
    121 C         -0.6843  -21.6526  -57.5424 C.2       22 UNK         0.5000 
    122 N         -1.4025  -21.2709  -58.5928 N.am      22 UNK        -0.7600 
    123 O          0.4768  -22.0179  -57.7017 O.2       22 UNK        -0.5000 
    124 C124       -0.6933  -20.5630  -55.2095 C.3       23 UNK        -0.0398 
    125 S125        0.8478  -21.0780  -54.3754 S.3       23 UNK        -0.2404 
    126 C126        0.3484  -21.0955  -52.6229 C.3       23 UNK        -0.0205 
    127 H127       -2.1877  -14.1197  -51.5578 H         1 UNK         0.0600 
    128 H128       -0.8322  -13.2385  -52.2696 H         1 UNK         0.0600 
    129 H129       -0.7257  -14.9860  -52.0382 H         1 UNK         0.0600 
    130 H130        0.5882  -15.5138  -50.3086 H         1 UNK         0.3000 
    131 H131        1.2518  -13.6040  -48.2454 H         1 UNK         0.0600 
    132 H132        2.9876  -15.0492  -49.1992 H         1 UNK         0.0800 
    133 H133        2.8634  -15.2533  -47.4836 H         1 UNK         0.0800 
    134 H134        2.6275  -16.8996  -50.9682 H         1 UNK         0.0800 
    135 H135        4.0652  -17.3428  -50.0683 H         1 UNK         0.0800 
    136 H136        1.1066  -18.6086  -51.8354 H         1 UNK         0.1150 
    137 H137        2.1136  -22.7430  -51.3605 H         1 UNK         0.1150 
    138 H138        4.4423  -19.7194  -49.3960 H         1 UNK         0.1150 
    139 H139        3.5442  -23.3641  -49.5142 H         1 UNK         0.0800 
    140 H140        4.9561  -22.7899  -50.3581 H         1 UNK         0.0800 
    141 H141        3.2997  -20.4598  -47.4513 H         1 UNK         0.0800 
    142 H142        4.1786  -21.0636  -46.1030 H         1 UNK         0.0800 
    143 H143        2.8793  -23.3714  -46.6449 H         1 UNK         0.0600 
    144 H144        2.0350  -21.0972  -44.9903 H         1 UNK         0.3000 
    145 H145       -0.1521  -22.9296  -42.9767 H         1 UNK         0.0600 
    146 H146        1.2998  -22.2923  -41.0526 H         1 UNK         0.0600 
    147 H147        1.9439  -23.7028  -41.8798 H         1 UNK         0.0600 
    148 H148        2.6842  -22.1262  -42.1313 H         1 UNK         0.0600 
    149 H149        1.0880  -20.3333  -42.7324 H         1 UNK         0.3000 
    150 H150       -0.9039  -18.6660  -45.1278 H         1 UNK         0.0600 
    151 H151       -1.2832  -18.4778  -42.1026 H         1 UNK         0.0600 
    152 H152       -2.5705  -18.7893  -43.2653 H         1 UNK         0.0600 
    153 H153       -1.7231  -17.2518  -43.2970 H         1 UNK         0.0600 
    154 H154        0.8043  -17.6057  -43.1324 H         1 UNK         0.3000 
    155 H155        3.8667  -18.7560  -44.2614 H         1 UNK         0.0600 
    156 H156        3.8287  -17.2180  -46.1423 H         1 UNK         0.0600 
    157 H157        4.6376  -16.4259  -44.8032 H         1 UNK         0.0600 
    158 H158        2.9758  -15.9960  -45.2144 H         1 UNK         0.0600 
    159 H159        3.5316  -16.5006  -42.6788 H         1 UNK         0.3000 
    160 H160        3.8084  -18.3545  -39.7856 H         1 UNK         0.0600 
    161 H161        4.6275  -16.0694  -39.4412 H         1 UNK         0.0600 
    162 H162        3.8663  -15.5050  -40.9204 H         1 UNK         0.0600 
    163 H163        5.2115  -16.6457  -40.9902 H         1 UNK         0.0600 
    164 H164        1.3889  -16.7210  -40.2749 H         1 UNK         0.3000 
    165 H165        0.0959  -17.3760  -37.2194 H         1 UNK         0.0600 
    166 H166        0.1183  -15.0579  -36.2968 H         1 UNK         0.0600 
    167 H167        1.6252  -15.8882  -35.9523 H         1 UNK         0.0600 
    168 H168        1.5648  -14.6857  -37.2351 H         1 UNK         0.0600 
    169 H169       -0.0928  -15.0408  -39.0086 H         1 UNK         0.3000 
    170 H170       -2.4212  -16.5473  -41.1743 H         1 UNK         0.0600 
    171 H171       -3.8900  -15.9507  -39.2490 H         1 UNK         0.0600 
    172 H172       -2.9910  -14.4552  -39.0194 H         1 UNK         0.0600 
    173 H173       -3.9197  -14.7150  -40.4964 H         1 UNK         0.0600 
    174 H174       -1.7352  -13.8910  -41.1688 H         1 UNK         0.3000 
    175 H175        0.3612  -12.8858  -41.8501 H         1 UNK         0.0600 
    176 H176        2.1238  -13.0014  -43.6114 H         1 UNK         0.0600 
    177 H177        2.4797  -14.0818  -42.2720 H         1 UNK         0.0600 
    178 H178        1.8455  -14.7323  -43.7785 H         1 UNK         0.0600 
    179 H179       -0.2916  -13.8193  -44.5669 H         1 UNK         0.3000 
    180 H180       -3.5972  -12.5911  -44.5328 H         1 UNK         0.0600 
    181 H181       -1.2381  -11.1782  -45.8930 H         1 UNK         0.0600 
    182 H182       -2.4308  -10.4017  -44.8577 H         1 UNK         0.0600 
    183 H183       -2.9267  -11.0911  -46.3952 H         1 UNK         0.0600 
    184 H184       -1.8808  -13.4239  -46.6664 H         1 UNK         0.3000 
    185 H185       -1.8077  -16.8341  -46.1257 H         1 UNK         0.0600 
    186 H186       -3.1544  -17.2196  -48.1820 H         1 UNK         0.0600 
    187 H187       -4.2087  -16.8142  -46.8404 H         1 UNK         0.0600 
    188 H188       -3.8430  -15.6035  -48.0604 H         1 UNK         0.0600 
    189 H189       -1.3850  -15.5564  -48.5590 H         1 UNK         0.3000 
    190 H190        0.8795  -20.3969  -46.8734 H         1 UNK         0.3000 
    191 H191       -0.2164  -20.7856  -49.3972 H         1 UNK         0.0600 
    192 H192       -1.6845  -19.4022  -47.1053 H         1 UNK         0.0600 
    193 H193       -1.7477  -19.0326  -48.8208 H         1 UNK         0.0600 
    194 H194       -0.2913  -18.6769  -47.9076 H         1 UNK         0.0600 
    195 H195       -1.1354  -22.4038  -46.4540 H         1 UNK         0.3000 
    196 H196       -3.6726  -23.4078  -47.0028 H         1 UNK         0.0600 
    197 H197       -1.3122  -24.7763  -45.6088 H         1 UNK         0.0600 
    198 H198       -3.0004  -25.2486  -45.4563 H         1 UNK         0.0600 
    199 H199       -2.4718  -23.6882  -44.8463 H         1 UNK         0.0600 
    200 H200       -0.6540  -24.2516  -48.6181 H         1 UNK         0.3000 
    201 H201       -1.4521  -26.6885  -49.8773 H         1 UNK         0.0600 
    202 H202        0.4761  -24.4908  -50.8046 H         1 UNK         0.0600 
    203 H203        0.3979  -26.1237  -51.4562 H         1 UNK         0.0600 
    204 H204        0.9025  -25.8687  -49.7918 H         1 UNK         0.0600 
    205 H205       -2.3583  -23.3531  -50.4431 H         1 UNK         0.3000 
    206 H206       -3.9508  -24.0667  -52.8690 H         1 UNK         0.0600 
    207 H207       -3.7999  -21.6128  -53.3855 H         1 UNK         0.0600 
    208 H208       -2.7621  -21.3776  -51.9863 H         1 UNK         0.0600 
    209 H209       -2.2164  -22.3642  -53.3443 H         1 UNK         0.0600 
    210 H210       -4.5147  -24.5232  -49.9605 H         1 UNK         0.3000 
    211 H211       -6.1198  -24.4214  -48.4622 H         1 UNK         0.0600 
    212 H212       -7.9154  -23.3729  -50.7148 H         1 UNK         0.0600 
    213 H213       -8.4448  -24.1778  -49.2440 H         1 UNK         0.0600 
    214 H214       -7.5247  -25.0705  -50.4416 H         1 UNK         0.0600 
    215 H215       -4.4918  -21.9157  -48.9645 H         1 UNK         0.3000 
    216 H216       -4.1923  -19.8621  -48.2903 H         1 UNK         0.0600 
    217 H217       -4.8915  -20.6600  -46.0297 H         1 UNK         0.0600 
    218 H218       -5.2808  -18.9682  -46.2823 H         1 UNK         0.0600 
    219 H219       -6.5532  -20.1748  -46.3709 H         1 UNK         0.0600 
    220 H220       -6.2945  -20.5955  -50.4445 H         1 UNK         0.3000 
    221 H221       -7.8264  -18.0802  -50.6646 H         1 UNK         0.0600 
    222 H222       -7.6686  -20.5380  -52.4948 H         1 UNK         0.0600 
    223 H223       -8.8828  -20.2770  -51.2443 H         1 UNK         0.0600 
    224 H224       -8.8094  -19.2072  -52.6363 H         1 UNK         0.0600 
    225 H225       -4.8458  -19.4461  -51.6969 H         1 UNK         0.3000 
    226 H226       -3.0804  -18.8057  -52.8156 H         1 UNK         0.0600 
    227 H227       -3.3106  -16.6269  -51.6577 H         1 UNK         0.0600 
    228 H228       -2.6224  -16.4210  -53.2612 H         1 UNK         0.0600 
    229 H229       -4.3048  -16.0056  -52.9749 H         1 UNK         0.0600 
    230 H230       -6.0849  -17.9627  -54.4685 H         1 UNK         0.3000 
    231 H231       -5.1277  -17.7149  -57.1092 H         1 UNK         0.0600 
    232 H232       -7.4159  -17.0706  -56.3988 H         1 UNK         0.0600 
    233 H233       -7.8302  -18.7581  -56.0989 H         1 UNK         0.0600 
    234 H234       -7.5022  -18.2049  -57.7375 H         1 UNK         0.0600 
    235 H235       -5.7508  -20.6149  -55.2152 H         1 UNK         0.3000 
    236 H236       -5.5392  -22.4983  -57.4215 H         1 UNK         0.0600 
    237 H237       -5.6463  -24.1750  -55.5502 H         1 UNK         0.0600 
    238 H238       -5.5831  -22.8627  -54.3805 H         1 UNK         0.0600 
    239 H239       -6.9519  -23.0049  -55.4755 H         1 UNK         0.0600 
    240 H240       -3.1700  -20.6362  -55.8949 H         1 UNK         0.3000 
    241 H241       -1.0845  -22.6254  -55.6845 H         1 UNK         0.0600 
    242 H242       -0.9841  -21.2810  -59.5099 H         1 UNK         0.3800 
    243 H243       -2.3587  -20.9706  -58.4813 H         1 UNK         0.3800 
    244 H244       -1.4044  -20.2750  -54.4374 H         1 UNK         0.0800 
    245 H245       -0.5021  -19.6452  -55.7686 H         1 UNK         0.0800 
    246 H246       -0.0262  -22.0867  -52.3631 H         1 UNK         0.0800 
    247 H247       -0.4712  -20.3991  -52.4440 H         1 UNK         0.0800 
@<TRIPOS>BOND
     1    1    2 1    
     2    1  127 1    
     3    1  128 1    
     4    1  129 1    
     5    2    3 2    
     6    2    4 am   BACKBONE|DICT|INTERRES
     7    4    5 1    
     8    4  130 1    
     9    5    6 1    
    10    5   65 1    
    11    5  131 1    
    12    6    7 1    
    13    6  132 1    
    14    6  133 1    
    15    7    8 1    
    16    8    9 1    
    17    8  134 1    
    18    8  135 1    
    19    9   10 ar   
    20    9   14 ar   
    21   10   11 ar   
    22   10  136 1    
    23   11   12 ar   
    24   11  126 1    
    25   12   13 ar   
    26   12  137 1    
    27   13   14 ar   
    28   13   15 1    
    29   14  138 1    
    30   15   16 1    
    31   15  139 1    
    32   15  140 1    
    33   16   17 1    
    34   17   18 1    
    35   17  141 1    
    36   17  142 1    
    37   18   19 1    
    38   18   67 1    
    39   18  143 1    
    40   19   20 am   BACKBONE|DICT|INTERRES
    41   19  144 1    
    42   20   21 2    
    43   20   22 1    
    44   22   23 1    
    45   22   24 1    
    46   22  145 1    
    47   23  146 1    
    48   23  147 1    
    49   23  148 1    
    50   24   25 am   BACKBONE|DICT|INTERRES
    51   24  149 1    
    52   25   26 2    
    53   25   27 1    
    54   27   28 1    
    55   27   29 1    
    56   27  150 1    
    57   28  151 1    
    58   28  152 1    
    59   28  153 1    
    60   29   30 am   BACKBONE|DICT|INTERRES
    61   29  154 1    
    62   30   31 2    
    63   30   32 1    
    64   32   33 1    
    65   32   34 1    
    66   32  155 1    
    67   33  156 1    
    68   33  157 1    
    69   33  158 1    
    70   34   35 am   BACKBONE|DICT|INTERRES
    71   34  159 1    
    72   35   36 2    
    73   35   37 1    
    74   37   38 1    
    75   37   39 1    
    76   37  160 1    
    77   38  161 1    
    78   38  162 1    
    79   38  163 1    
    80   39   40 am   BACKBONE|DICT|INTERRES
    81   39  164 1    
    82   40   41 2    
    83   40   42 1    
    84   42   43 1    
    85   42   44 1    
    86   42  165 1    
    87   43  166 1    
    88   43  167 1    
    89   43  168 1    
    90   44   45 am   BACKBONE|DICT|INTERRES
    91   44  169 1    
    92   45   46 2    
    93   45   47 1    
    94   47   48 1    
    95   47   49 1    
    96   47  170 1    
    97   48  171 1    
    98   48  172 1    
    99   48  173 1    
   100   49   50 am   BACKBONE|DICT|INTERRES
   101   49  174 1    
   102   50   51 2    
   103   50   52 1    
   104   52   53 1    
   105   52   54 1    
   106   52  175 1    
   107   53  176 1    
   108   53  177 1    
   109   53  178 1    
   110   54   55 am   BACKBONE|DICT|INTERRES
   111   54  179 1    
   112   55   56 2    
   113   55   57 1    
   114   57   58 1    
   115   57   59 1    
   116   57  180 1    
   117   58  181 1    
   118   58  182 1    
   119   58  183 1    
   120   59   60 am   BACKBONE|DICT|INTERRES
   121   59  184 1    
   122   60   61 2    
   123   60   62 1    
   124   62   63 1    
   125   62   64 1    
   126   62  185 1    
   127   63  186 1    
   128   63  187 1    
   129   63  188 1    
   130   64   65 am   BACKBONE|DICT|INTERRES
   131   64  189 1    
   132   65   66 2    
   133   67   68 2    
   134   67   69 am   BACKBONE|DICT|INTERRES
   135   69   70 1    
   136   69  190 1    
   137   70   71 1    
   138   70   72 1    
   139   70  191 1    
   140   71  192 1    
   141   71  193 1    
   142   71  194 1    
   143   72   73 2    
   144   72   74 am   BACKBONE|DICT|INTERRES
   145   74   75 1    
   146   74  195 1    
   147   75   76 1    
   148   75   77 1    
   149   75  196 1    
   150   76  197 1    
   151   76  198 1    
   152   76  199 1    
   153   77   78 2    
   154   77   79 am   BACKBONE|DICT|INTERRES
   155   79   80 1    
   156   79  200 1    
   157   80   81 1    
   158   80   82 1    
   159   80  201 1    
   160   81  202 1    
   161   81  203 1    
   162   81  204 1    
   163   82   83 2    
   164   82   84 am   BACKBONE|DICT|INTERRES
   165   84   85 1    
   166   84  205 1    
   167   85   86 1    
   168   85   87 1    
   169   85  206 1    
   170   86  207 1    
   171   86  208 1    
   172   86  209 1    
   173   87   88 2    
   174   87   89 am   BACKBONE|DICT|INTERRES
   175   89   90 1    
   176   89  210 1    
   177   90   91 1    
   178   90   92 1    
   179   90  211 1    
   180   91  212 1    
   181   91  213 1    
   182   91  214 1    
   183   92   93 2    
   184   92   94 am   BACKBONE|DICT|INTERRES
   185   94   95 1    
   186   94  215 1    
   187   95   96 1    
   188   95   97 1    
   189   95  216 1    
   190   96  217 1    
   191   96  218 1    
   192   96  219 1    
   193   97   98 2    
   194   97   99 am   BACKBONE|DICT|INTERRES
   195   99  100 1    
   196   99  220 1    
   197  100  101 1    
   198  100  102 1    
   199  100  221 1    
   200  101  222 1    
   201  101  223 1    
   202  101  224 1    
   203  102  103 2    
   204  102  104 am   BACKBONE|DICT|INTERRES
   205  104  105 1    
   206  104  225 1    
   207  105  106 1    
   208  105  107 1    
   209  105  226 1    
   210  106  227 1    
   211  106  228 1    
   212  106  229 1    
   213  107  108 2    
   214  107  109 am   BACKBONE|DICT|INTERRES
   215  109  110 1    
   216  109  230 1    
   217  110  111 1    
   218  110  112 1    
   219  110  231 1    
   220  111  232 1    
   221  111  233 1    
   222  111  234 1    
   223  112  113 2    
   224  112  114 am   BACKBONE|DICT|INTERRES
   225  114  115 1    
   226  114  235 1    
   227  115  116 1    
   228  115  117 1    
   229  115  236 1    
   230  116  237 1    
   231  116  238 1    
   232  116  239 1    
   233  117  118 2    
   234  117  119 am   BACKBONE|DICT|INTERRES
   235  119  120 1    
   236  119  240 1    
   237  120  121 1    
   238  120  124 1    
   239  120  241 1    
   240  121  122 am   BACKBONE|DICT|INTERRES
   241  121  123 2    
   242  122  242 1    
   243  122  243 1    
   244  124  125 1    
   245  124  244 1    
   246  124  245 1    
   247  125  126 1    
   248  126  246 1    
   249  126  247 1    
@<TRIPOS>SUBSTRUCTURE
     1 UNK         1 GROUP             0       ****    0 ROOT    
