@<TRIPOS>MOLECULE
3R540
247   249    1
SMALL
USER_CHARGES


@<TRIPOS>ATOM
      1 CA         -2.9773  -15.0226  -45.9241 C.3       0 UNK        -0.1800 
      2 C          -2.5851  -13.6824  -46.5312 C.2       0 UNK         0.5000 
      3 O          -2.9842  -12.6372  -46.0190 O.2       0 UNK        -0.5000 
      4 N          -1.8053  -13.7125  -47.6205 N.am      1 UNK        -0.5000 
      5 CA         -1.3117  -12.5373  -48.3548 C.3       1 UNK         0.1400 
      6 C6         -0.7261  -12.9239  -49.7373 C.3       23 UNK        -0.0398 
      7 S7          0.6328  -14.1510  -49.6858 S.3       23 UNK        -0.2404 
      8 C8         -0.2677  -15.6990  -50.0179 C.3       23 UNK        -0.0205 
      9 C9          0.6757  -16.8728  -50.2350 C.ar      23 UNK        -0.0193 
     10 C10         0.7627  -17.4766  -51.4925 C.ar      23 UNK        -0.1150 
     11 C11         1.5848  -18.5891  -51.6924 C.ar      23 UNK        -0.0193 
     12 C12         2.3501  -19.0774  -50.6303 C.ar      23 UNK        -0.1150 
     13 C13         2.2729  -18.4839  -49.3671 C.ar      23 UNK        -0.0193 
     14 C14         1.4319  -17.3825  -49.1743 C.ar      23 UNK        -0.1150 
     15 C15         3.0734  -19.0572  -48.2058 C.3       23 UNK        -0.0205 
     16 S16         2.4176  -20.6678  -47.6606 S.3       23 UNK        -0.2404 
     17 C17         0.7109  -20.2031  -47.2305 C.3       23 UNK        -0.0398 
     18 CA         -0.0677  -21.3233  -46.5085 C.3       11 UNK         0.1400 
     19 N           0.5899  -21.7691  -45.2749 N.am      11 UNK        -0.5000 
     20 C           0.1602  -22.7275  -44.4420 C.2       10 UNK         0.5000 
     21 O          -0.8556  -23.3931  -44.6507 O.2       10 UNK        -0.5000 
     22 CA          0.9348  -22.9224  -43.1221 C.3       10 UNK         0.1400 
     23 CB          1.1312  -24.4113  -42.7725 C.3       10 UNK        -0.1800 
     24 N           2.1943  -22.1716  -43.0465 N.am      10 UNK        -0.5000 
     25 C           3.3330  -22.3803  -43.7242 C.2       9 UNK         0.5000 
     26 O           3.5002  -23.3065  -44.5175 O.2       9 UNK        -0.5000 
     27 CA          4.4742  -21.3655  -43.5055 C.3       9 UNK         0.1400 
     28 CB          4.6967  -20.5286  -44.7749 C.3       9 UNK        -0.1800 
     29 N           4.2379  -20.4533  -42.3839 N.am      9 UNK        -0.5000 
     30 C           4.4110  -20.7625  -41.0925 C.2       8 UNK         0.5000 
     31 O           4.8171  -21.8566  -40.6996 O.2       8 UNK        -0.5000 
     32 CA          4.0430  -19.6728  -40.0675 C.3       8 UNK         0.1400 
     33 CB          5.1792  -18.6479  -39.9307 C.3       8 UNK        -0.1800 
     34 N           2.7933  -18.9770  -40.3865 N.am      8 UNK        -0.5000 
     35 C           1.5808  -19.5511  -40.3907 C.2       7 UNK         0.5000 
     36 O           1.3850  -20.7406  -40.1424 O.2       7 UNK        -0.5000 
     37 CA          0.3883  -18.6541  -40.7665 C.3       7 UNK         0.1400 
     38 CB         -0.0188  -17.7602  -39.5859 C.3       7 UNK        -0.1800 
     39 N           0.6737  -17.8307  -41.9400 N.am      7 UNK        -0.5000 
     40 C           0.8072  -18.3193  -43.1797 C.2       6 UNK         0.5000 
     41 O           0.5881  -19.4931  -43.4728 O.2       6 UNK        -0.5000 
     42 CA          1.2858  -17.3555  -44.2778 C.3       6 UNK         0.1400 
     43 CB          0.0954  -16.6494  -44.9420 C.3       6 UNK        -0.1800 
     44 N           2.2392  -16.3625  -43.7906 N.am      6 UNK        -0.5000 
     45 C           3.4614  -16.6419  -43.3197 C.2       5 UNK         0.5000 
     46 O           3.9259  -17.7783  -43.2534 O.2       5 UNK        -0.5000 
     47 CA          4.2823  -15.4565  -42.7902 C.3       5 UNK         0.1400 
     48 CB          4.9428  -14.6871  -43.9438 C.3       5 UNK        -0.1800 
     49 N           3.4623  -14.5449  -41.9946 N.am      5 UNK        -0.5000 
     50 C           2.9795  -14.8304  -40.7781 C.2       4 UNK         0.5000 
     51 O           3.1914  -15.8908  -40.1882 O.2       4 UNK        -0.5000 
     52 CA          2.0777  -13.7620  -40.1325 C.3       4 UNK         0.1400 
     53 CB          2.9219  -12.6389  -39.5115 C.3       4 UNK        -0.1800 
     54 N           1.1169  -13.1857  -41.0766 N.am      4 UNK        -0.5000 
     55 C           0.1068  -13.8737  -41.6252 C.2       3 UNK         0.5000 
     56 O          -0.1137  -15.0616  -41.3951 O.2       3 UNK        -0.5000 
     57 CA         -0.7911  -13.1268  -42.6279 C.3       3 UNK         0.1400 
     58 CB         -1.8472  -12.2910  -41.8899 C.3       3 UNK        -0.1800 
     59 N          -0.0960  -12.2788  -43.6031 N.am      3 UNK        -0.5000 
     60 C           0.9360  -12.6474  -44.3732 C.2       2 UNK         0.5000 
     61 O           1.5585  -13.6998  -44.2400 O.2       2 UNK        -0.5000 
     62 CA          1.2287  -11.7577  -45.5828 C.3       2 UNK         0.1400 
     63 CB          2.7132  -11.7680  -45.9877 C.3       2 UNK        -0.1800 
     64 N           0.4265  -12.3375  -46.6469 N.am      2 UNK        -0.5000 
     65 C          -0.3328  -11.6763  -47.5239 C.2       1 UNK         0.5000 
     66 O          -0.3191  -10.4522  -47.6616 O.2       1 UNK        -0.5000 
     67 C          -1.5125  -20.8495  -46.2649 C.2       11 UNK         0.5000 
     68 O          -2.3675  -21.0657  -47.1201 O.2       11 UNK        -0.5000 
     69 N          -1.7685  -20.2634  -45.0860 N.am      12 UNK        -0.5000 
     70 CA         -3.0915  -19.8357  -44.6264 C.3       12 UNK         0.1400 
     71 CB         -2.9411  -19.1370  -43.2661 C.3       12 UNK        -0.1800 
     72 C          -4.1302  -20.9767  -44.5443 C.2       12 UNK         0.5000 
     73 O          -5.3270  -20.7020  -44.6390 O.2       12 UNK        -0.5000 
     74 N          -3.6611  -22.2229  -44.3892 N.am      13 UNK        -0.5000 
     75 CA         -4.4779  -23.4335  -44.4344 C.3       13 UNK         0.1400 
     76 CB         -4.1026  -24.3325  -43.2452 C.3       13 UNK        -0.1800 
     77 C          -4.2886  -24.1941  -45.7598 C.2       13 UNK         0.5000 
     78 O          -5.2641  -24.7209  -46.2954 O.2       13 UNK        -0.5000 
     79 N          -3.0423  -24.2713  -46.2481 N.am      14 UNK        -0.5000 
     80 CA         -2.6511  -25.1048  -47.3857 C.3       14 UNK         0.1400 
     81 CB         -1.1354  -25.3515  -47.3281 C.3       14 UNK        -0.1800 
     82 C          -3.0549  -24.5558  -48.7675 C.2       14 UNK         0.5000 
     83 O          -3.2128  -25.3554  -49.6919 O.2       14 UNK        -0.5000 
     84 N          -3.1900  -23.2292  -48.9127 N.am      15 UNK        -0.5000 
     85 CA         -3.5607  -22.5840  -50.1755 C.3       15 UNK         0.1400 
     86 CB         -3.3578  -21.0645  -50.0669 C.3       15 UNK        -0.1800 
     87 C          -5.0114  -22.8934  -50.5857 C.2       15 UNK         0.5000 
     88 O          -5.9039  -22.9138  -49.7349 O.2       15 UNK        -0.5000 
     89 N          -5.2220  -23.0834  -51.8922 N.am      16 UNK        -0.5000 
     90 CA         -6.5368  -23.2940  -52.4998 C.3       16 UNK         0.1400 
     91 CB         -6.3506  -24.0674  -53.8105 C.3       16 UNK        -0.1800 
     92 C          -7.2853  -21.9740  -52.7641 C.2       16 UNK         0.5000 
     93 O          -8.4935  -22.0046  -53.0030 O.2       16 UNK        -0.5000 
     94 N          -6.5543  -20.8503  -52.7336 N.am      17 UNK        -0.5000 
     95 CA         -6.9793  -19.4641  -52.9442 C.3       17 UNK         0.1400 
     96 CB         -8.0415  -19.0273  -51.9160 C.3       17 UNK        -0.1800 
     97 C          -7.4200  -19.1695  -54.3896 C.2       17 UNK         0.5000 
     98 O          -6.7797  -18.3553  -55.0554 O.2       17 UNK        -0.5000 
     99 N          -8.4884  -19.8307  -54.8475 N.am      18 UNK        -0.5000 
    100 CA        -9.0897  -19.6341  -56.1667 C.3       18 UNK         0.1400 
    101 CB       -10.5532  -20.1000  -56.1193 C.3       18 UNK        -0.1800 
    102 C         -8.3337  -20.3562  -57.2971 C.2       18 UNK         0.5000 
    103 O         -8.3215  -19.8611  -58.4254 O.2       18 UNK        -0.5000 
    104 N         -7.7398  -21.5158  -56.9873 N.am      19 UNK        -0.5000 
    105 CA        -6.9770  -22.3338  -57.9323 C.3       19 UNK         0.1400 
    106 CB        -7.1101  -23.8126  -57.5303 C.3       19 UNK        -0.1800 
    107 C         -5.4987  -21.9046  -57.9883 C.2       19 UNK         0.5000 
    108 O         -5.0612  -21.0605  -57.2039 O.2       19 UNK        -0.5000 
    109 N         -4.7387  -22.5261  -58.9007 N.am      20 UNK        -0.5000 
    110 CA        -3.3119  -22.2710  -59.1370 C.3       20 UNK         0.1400 
    111 CB        -2.8528  -23.0978  -60.3479 C.3       20 UNK        -0.1800 
    112 C         -2.3968  -22.5418  -57.9236 C.2       20 UNK         0.5000 
    113 O         -1.3071  -21.9711  -57.8493 O.2       20 UNK        -0.5000 
    114 N         -2.8568  -23.3777  -56.9826 N.am      21 UNK        -0.5000 
    115 CA        -2.2176  -23.6528  -55.6962 C.3       21 UNK         0.1400 
    116 CB        -2.7546  -24.9879  -55.1511 C.3       21 UNK        -0.1800 
    117 C         -2.4092  -22.4828  -54.7067 C.2       21 UNK         0.5000 
    118 O         -3.1080  -22.6243  -53.7005 O.2       21 UNK        -0.5000 
    119 N         -1.7866  -21.3431  -55.0280 N.am      22 UNK        -0.5000 
    120 CA        -1.7387  -20.1089  -54.2251 C.3       22 UNK         0.1400 
    121 C         -3.0979  -19.3566  -54.0851 C.2       22 UNK         0.5000 
    122 N         -4.0699  -19.5709  -54.9610 N.am      22 UNK        -0.7600 
    123 O         -3.2701  -18.5335  -53.1909 O.2       22 UNK        -0.5000 
    124 C124       -1.0084  -20.3024  -52.8655 C.3       23 UNK        -0.0398 
    125 S125        0.7229  -20.8538  -53.0608 S.3       23 UNK        -0.2404 
    126 C126        1.6349  -19.2741  -53.0505 C.3       23 UNK        -0.0205 
    127 H127       -4.0572  -15.1577  -45.9834 H         1 UNK         0.0600 
    128 H128       -2.6879  -15.0616  -44.8745 H         1 UNK         0.0600 
    129 H129       -2.5022  -15.8575  -46.4396 H         1 UNK         0.0600 
    130 H130       -1.5111  -14.6034  -47.9899 H         1 UNK         0.3000 
    131 H131       -2.1798  -11.9026  -48.5460 H         1 UNK         0.0600 
    132 H132       -1.5259  -13.3061  -50.3728 H         1 UNK         0.0800 
    133 H133       -0.3585  -12.0339  -50.2512 H         1 UNK         0.0800 
    134 H134       -0.9065  -15.5627  -50.8921 H         1 UNK         0.0800 
    135 H135       -0.9313  -15.9303  -49.1849 H         1 UNK         0.0800 
    136 H136        0.1701  -17.0958  -52.3126 H         1 UNK         0.1150 
    137 H137        2.9839  -19.9406  -50.7787 H         1 UNK         0.1150 
    138 H138        1.3584  -16.9237  -48.1983 H         1 UNK         0.1150 
    139 H139        4.1134  -19.1823  -48.5103 H         1 UNK         0.0800 
    140 H140        3.0828  -18.3668  -47.3608 H         1 UNK         0.0800 
    141 H141        0.1990  -19.9340  -48.1570 H         1 UNK         0.0800 
    142 H142        0.7385  -19.2998  -46.6209 H         1 UNK         0.0800 
    143 H143       -0.1177  -22.1836  -47.1769 H         1 UNK         0.0600 
    144 H144        1.3974  -21.2365  -44.9873 H         1 UNK         0.3000 
    145 H145        0.2990  -22.4908  -42.3479 H         1 UNK         0.0600 
    146 H146        1.6743  -24.5280  -41.8347 H         1 UNK         0.0600 
    147 H147        0.1700  -24.9131  -42.6545 H         1 UNK         0.0600 
    148 H148        1.6794  -24.9442  -43.5495 H         1 UNK         0.0600 
    149 H149        2.1682  -21.3677  -42.4334 H         1 UNK         0.3000 
    150 H150        5.3849  -21.9351  -43.3094 H         1 UNK         0.0600 
    151 H151        4.9083  -21.1642  -45.6357 H         1 UNK         0.0600 
    152 H152        5.5416  -19.8500  -44.6571 H         1 UNK         0.0600 
    153 H153        3.8188  -19.9283  -45.0165 H         1 UNK         0.0600 
    154 H154        3.9630  -19.5029  -42.6267 H         1 UNK         0.3000 
    155 H155        3.9125  -20.1616  -39.0999 H         1 UNK         0.0600 
    156 H156        6.1190  -19.1375  -39.6727 H         1 UNK         0.0600 
    157 H157        4.9634  -17.9235  -39.1451 H         1 UNK         0.0600 
    158 H158        5.3390  -18.0967  -40.8578 H         1 UNK         0.0600 
    159 H159        2.8659  -17.9852  -40.5830 H         1 UNK         0.3000 
    160 H160       -0.4569  -19.3042  -41.0021 H         1 UNK         0.0600 
    161 H161        0.7628  -17.0430  -39.3331 H         1 UNK         0.0600 
    162 H162       -0.2212  -18.3558  -38.6949 H         1 UNK         0.0600 
    163 H163       -0.9252  -17.1993  -39.8139 H         1 UNK         0.0600 
    164 H164        0.7783  -16.8335  -41.7853 H         1 UNK         0.3000 
    165 H165        1.7978  -17.9515  -45.0349 H         1 UNK         0.0600 
    166 H166        0.4214  -16.0233  -45.7728 H         1 UNK         0.0600 
    167 H167       -0.6194  -17.3719  -45.3379 H         1 UNK         0.0600 
    168 H168       -0.4355  -16.0145  -44.2324 H         1 UNK         0.0600 
    169 H169        1.9509  -15.3862  -43.8396 H         1 UNK         0.3000 
    170 H170        5.0732  -15.8545  -42.1510 H         1 UNK         0.0600 
    171 H171        5.5840  -15.3444  -44.5325 H         1 UNK         0.0600 
    172 H172        4.2037  -14.2589  -44.6210 H         1 UNK         0.0600 
    173 H173        5.5656  -13.8743  -43.5701 H         1 UNK         0.0600 
    174 H174        3.1661  -13.6913  -42.4460 H         1 UNK         0.3000 
    175 H175        1.5154  -14.2458  -39.3308 H         1 UNK         0.0600 
    176 H176        3.6378  -13.0411  -38.7934 H         1 UNK         0.0600 
    177 H177        3.4867  -12.0920  -40.2674 H         1 UNK         0.0600 
    178 H178        2.2951  -11.9241  -38.9781 H         1 UNK         0.0600 
    179 H179        1.2396  -12.2165  -41.3307 H         1 UNK         0.3000 
    180 H180       -1.3185  -13.8895  -43.2030 H         1 UNK         0.0600 
    181 H181       -1.3955  -11.4601  -41.3467 H         1 UNK         0.0600 
    182 H182       -2.3934  -12.8988  -41.1670 H         1 UNK         0.0600 
    183 H183       -2.5803  -11.8803  -42.5847 H         1 UNK         0.0600 
    184 H184       -0.5546  -11.4054  -43.8189 H         1 UNK         0.3000 
    185 H185        0.9179  -10.7343  -45.3622 H         1 UNK         0.0600 
    186 H186        3.3438  -11.4213  -45.1684 H         1 UNK         0.0600 
    187 H187        3.0517  -12.7665  -46.2671 H         1 UNK         0.0600 
    188 H188        2.8892  -11.1097  -46.8384 H         1 UNK         0.0600 
    189 H189        0.3302  -13.3424  -46.6038 H         1 UNK         0.3000 
    190 H190       -0.9947  -20.1260  -44.4421 H         1 UNK         0.3000 
    191 H191       -3.4692  -19.1064  -45.3459 H         1 UNK         0.0600 
    192 H192       -2.5080  -19.8035  -42.5192 H         1 UNK         0.0600 
    193 H193       -3.9077  -18.8019  -42.8878 H         1 UNK         0.0600 
    194 H194       -2.3023  -18.2570  -43.3418 H         1 UNK         0.0600 
    195 H195       -2.6592  -22.3615  -44.3439 H         1 UNK         0.3000 
    196 H196       -5.5374  -23.1849  -44.3439 H         1 UNK         0.0600 
    197 H197       -4.6941  -25.2489  -43.2461 H         1 UNK         0.0600 
    198 H198       -4.2880  -23.8268  -42.2974 H         1 UNK         0.0600 
    199 H199       -3.0505  -24.6197  -43.2705 H         1 UNK         0.0600 
    200 H200       -2.2805  -23.8560  -45.7185 H         1 UNK         0.3000 
    201 H201       -3.1435  -26.0732  -47.2723 H         1 UNK         0.0600 
    202 H202       -0.8450  -25.8093  -46.3822 H         1 UNK         0.0600 
    203 H203       -0.5714  -24.4263  -47.4383 H         1 UNK         0.0600 
    204 H204       -0.8180  -26.0248  -48.1254 H         1 UNK         0.0600 
    205 H205       -3.0489  -22.6169  -48.1151 H         1 UNK         0.3000 
    206 H206       -2.8896  -22.9605  -50.9507 H         1 UNK         0.0600 
    207 H207       -2.3188  -20.8185  -49.8471 H         1 UNK         0.0600 
    208 H208       -3.6189  -20.5649  -51.0006 H         1 UNK         0.0600 
    209 H209       -3.9798  -20.6324  -49.2820 H         1 UNK         0.0600 
    210 H210       -4.4324  -23.0201  -52.5351 H         1 UNK         0.3000 
    211 H211       -7.1529  -23.8976  -51.8300 H         1 UNK         0.0600 
    212 H212       -7.3107  -24.2636  -54.2895 H         1 UNK         0.0600 
    213 H213       -5.8734  -25.0313  -53.6339 H         1 UNK         0.0600 
    214 H214       -5.7330  -23.5067  -54.5130 H         1 UNK         0.0600 
    215 H215       -5.5632  -20.9675  -52.5786 H         1 UNK         0.3000 
    216 H216       -6.0922  -18.8568  -52.7576 H         1 UNK         0.0600 
    217 H217       -8.2782  -17.9688  -52.0306 H         1 UNK         0.0600 
    218 H218       -7.6820  -19.1708  -50.8970 H         1 UNK         0.0600 
    219 H219       -8.9747  -19.5806  -52.0212 H         1 UNK         0.0600 
    220 H220       -8.9010  -20.5344  -54.2424 H         1 UNK         0.3000 
    221 H221       -9.0839  -18.5662  -56.3960 H         1 UNK         0.0600 
    222 H222      -10.6305  -21.1595  -55.8718 H         1 UNK         0.0600 
    223 H223      -11.1210  -19.5397  -55.3763 H         1 UNK         0.0600 
    224 H224      -11.0429  -19.9503  -57.0825 H         1 UNK         0.0600 
    225 H225       -7.7541  -21.8207  -56.0261 H         1 UNK         0.3000 
    226 H226       -7.3996  -22.2160  -58.9324 H         1 UNK         0.0600 
    227 H227       -8.1537  -24.0915  -57.3831 H         1 UNK         0.0600 
    228 H228       -6.7114  -24.4685  -58.3048 H         1 UNK         0.0600 
    229 H229       -6.5702  -24.0341  -56.6120 H         1 UNK         0.0600 
    230 H230       -5.1692  -23.2141  -59.5017 H         1 UNK         0.3000 
    231 H231       -3.2058  -21.2133  -59.3863 H         1 UNK         0.0600 
    232 H232       -3.4244  -22.8428  -61.2405 H         1 UNK         0.0600 
    233 H233       -2.9652  -24.1680  -60.1696 H         1 UNK         0.0600 
    234 H234       -1.8019  -22.9113  -60.5739 H         1 UNK         0.0600 
    235 H235       -3.7704  -23.7815  -57.1225 H         1 UNK         0.3000 
    236 H236       -1.1434  -23.7705  -55.8537 H         1 UNK         0.0600 
    237 H237       -2.3162  -25.2200  -54.1796 H         1 UNK         0.0600 
    238 H238       -3.8367  -24.9693  -55.0285 H         1 UNK         0.0600 
    239 H239       -2.5099  -25.8118  -55.8216 H         1 UNK         0.0600 
    240 H240       -1.2947  -21.3157  -55.9144 H         1 UNK         0.3000 
    241 H241       -1.1288  -19.4193  -54.8092 H         1 UNK         0.0600 
    242 H242       -4.9199  -19.0245  -54.9051 H         1 UNK         0.3800 
    243 H243       -3.9873  -20.2405  -55.7172 H         1 UNK         0.3800 
    244 H244       -1.0242  -19.3867  -52.2761 H         1 UNK         0.0800 
    245 H245       -1.5270  -21.0453  -52.2612 H         1 UNK         0.0800 
    246 H246        1.2385  -18.6215  -53.8300 H         1 UNK         0.0800 
    247 H247        2.6753  -19.4671  -53.3159 H         1 UNK         0.0800 
@<TRIPOS>BOND
     1    1    2 1    
     2    1  127 1    
     3    1  128 1    
     4    1  129 1    
     5    2    3 2    
     6    2    4 am   BACKBONE|DICT|INTERRES
     7    4    5 1    
     8    4  130 1    
     9    5    6 1    
    10    5   65 1    
    11    5  131 1    
    12    6    7 1    
    13    6  132 1    
    14    6  133 1    
    15    7    8 1    
    16    8    9 1    
    17    8  134 1    
    18    8  135 1    
    19    9   10 ar   
    20    9   14 ar   
    21   10   11 ar   
    22   10  136 1    
    23   11   12 ar   
    24   11  126 1    
    25   12   13 ar   
    26   12  137 1    
    27   13   14 ar   
    28   13   15 1    
    29   14  138 1    
    30   15   16 1    
    31   15  139 1    
    32   15  140 1    
    33   16   17 1    
    34   17   18 1    
    35   17  141 1    
    36   17  142 1    
    37   18   19 1    
    38   18   67 1    
    39   18  143 1    
    40   19   20 am   BACKBONE|DICT|INTERRES
    41   19  144 1    
    42   20   21 2    
    43   20   22 1    
    44   22   23 1    
    45   22   24 1    
    46   22  145 1    
    47   23  146 1    
    48   23  147 1    
    49   23  148 1    
    50   24   25 am   BACKBONE|DICT|INTERRES
    51   24  149 1    
    52   25   26 2    
    53   25   27 1    
    54   27   28 1    
    55   27   29 1    
    56   27  150 1    
    57   28  151 1    
    58   28  152 1    
    59   28  153 1    
    60   29   30 am   BACKBONE|DICT|INTERRES
    61   29  154 1    
    62   30   31 2    
    63   30   32 1    
    64   32   33 1    
    65   32   34 1    
    66   32  155 1    
    67   33  156 1    
    68   33  157 1    
    69   33  158 1    
    70   34   35 am   BACKBONE|DICT|INTERRES
    71   34  159 1    
    72   35   36 2    
    73   35   37 1    
    74   37   38 1    
    75   37   39 1    
    76   37  160 1    
    77   38  161 1    
    78   38  162 1    
    79   38  163 1    
    80   39   40 am   BACKBONE|DICT|INTERRES
    81   39  164 1    
    82   40   41 2    
    83   40   42 1    
    84   42   43 1    
    85   42   44 1    
    86   42  165 1    
    87   43  166 1    
    88   43  167 1    
    89   43  168 1    
    90   44   45 am   BACKBONE|DICT|INTERRES
    91   44  169 1    
    92   45   46 2    
    93   45   47 1    
    94   47   48 1    
    95   47   49 1    
    96   47  170 1    
    97   48  171 1    
    98   48  172 1    
    99   48  173 1    
   100   49   50 am   BACKBONE|DICT|INTERRES
   101   49  174 1    
   102   50   51 2    
   103   50   52 1    
   104   52   53 1    
   105   52   54 1    
   106   52  175 1    
   107   53  176 1    
   108   53  177 1    
   109   53  178 1    
   110   54   55 am   BACKBONE|DICT|INTERRES
   111   54  179 1    
   112   55   56 2    
   113   55   57 1    
   114   57   58 1    
   115   57   59 1    
   116   57  180 1    
   117   58  181 1    
   118   58  182 1    
   119   58  183 1    
   120   59   60 am   BACKBONE|DICT|INTERRES
   121   59  184 1    
   122   60   61 2    
   123   60   62 1    
   124   62   63 1    
   125   62   64 1    
   126   62  185 1    
   127   63  186 1    
   128   63  187 1    
   129   63  188 1    
   130   64   65 am   BACKBONE|DICT|INTERRES
   131   64  189 1    
   132   65   66 2    
   133   67   68 2    
   134   67   69 am   BACKBONE|DICT|INTERRES
   135   69   70 1    
   136   69  190 1    
   137   70   71 1    
   138   70   72 1    
   139   70  191 1    
   140   71  192 1    
   141   71  193 1    
   142   71  194 1    
   143   72   73 2    
   144   72   74 am   BACKBONE|DICT|INTERRES
   145   74   75 1    
   146   74  195 1    
   147   75   76 1    
   148   75   77 1    
   149   75  196 1    
   150   76  197 1    
   151   76  198 1    
   152   76  199 1    
   153   77   78 2    
   154   77   79 am   BACKBONE|DICT|INTERRES
   155   79   80 1    
   156   79  200 1    
   157   80   81 1    
   158   80   82 1    
   159   80  201 1    
   160   81  202 1    
   161   81  203 1    
   162   81  204 1    
   163   82   83 2    
   164   82   84 am   BACKBONE|DICT|INTERRES
   165   84   85 1    
   166   84  205 1    
   167   85   86 1    
   168   85   87 1    
   169   85  206 1    
   170   86  207 1    
   171   86  208 1    
   172   86  209 1    
   173   87   88 2    
   174   87   89 am   BACKBONE|DICT|INTERRES
   175   89   90 1    
   176   89  210 1    
   177   90   91 1    
   178   90   92 1    
   179   90  211 1    
   180   91  212 1    
   181   91  213 1    
   182   91  214 1    
   183   92   93 2    
   184   92   94 am   BACKBONE|DICT|INTERRES
   185   94   95 1    
   186   94  215 1    
   187   95   96 1    
   188   95   97 1    
   189   95  216 1    
   190   96  217 1    
   191   96  218 1    
   192   96  219 1    
   193   97   98 2    
   194   97   99 am   BACKBONE|DICT|INTERRES
   195   99  100 1    
   196   99  220 1    
   197  100  101 1    
   198  100  102 1    
   199  100  221 1    
   200  101  222 1    
   201  101  223 1    
   202  101  224 1    
   203  102  103 2    
   204  102  104 am   BACKBONE|DICT|INTERRES
   205  104  105 1    
   206  104  225 1    
   207  105  106 1    
   208  105  107 1    
   209  105  226 1    
   210  106  227 1    
   211  106  228 1    
   212  106  229 1    
   213  107  108 2    
   214  107  109 am   BACKBONE|DICT|INTERRES
   215  109  110 1    
   216  109  230 1    
   217  110  111 1    
   218  110  112 1    
   219  110  231 1    
   220  111  232 1    
   221  111  233 1    
   222  111  234 1    
   223  112  113 2    
   224  112  114 am   BACKBONE|DICT|INTERRES
   225  114  115 1    
   226  114  235 1    
   227  115  116 1    
   228  115  117 1    
   229  115  236 1    
   230  116  237 1    
   231  116  238 1    
   232  116  239 1    
   233  117  118 2    
   234  117  119 am   BACKBONE|DICT|INTERRES
   235  119  120 1    
   236  119  240 1    
   237  120  121 1    
   238  120  124 1    
   239  120  241 1    
   240  121  122 am   BACKBONE|DICT|INTERRES
   241  121  123 2    
   242  122  242 1    
   243  122  243 1    
   244  124  125 1    
   245  124  244 1    
   246  124  245 1    
   247  125  126 1    
   248  126  246 1    
   249  126  247 1    
@<TRIPOS>SUBSTRUCTURE
     1 UNK         1 GROUP             0       ****    0 ROOT    
