@<TRIPOS>MOLECULE
3R540
247   249    1
SMALL
USER_CHARGES


@<TRIPOS>ATOM
      1 CA         -1.1030  -14.7801  -52.5479 C.3       0 UNK        -0.1800 
      2 C          -0.5792  -13.8946  -51.4293 C.2       0 UNK         0.5000 
      3 O          -0.5150  -12.6752  -51.5872 O.2       0 UNK        -0.5000 
      4 N          -0.2109  -14.5000  -50.2939 N.am      1 UNK        -0.5000 
      5 CA          0.4150  -13.8407  -49.1403 C.3       1 UNK         0.1400 
      6 C6          1.3024  -14.8030  -48.2969 C.3       23 UNK        -0.0398 
      7 S7          2.3100  -15.9678  -49.2803 S.3       23 UNK        -0.2404 
      8 C8          1.3777  -17.4856  -48.9236 C.3       23 UNK        -0.0205 
      9 C9          1.8436  -18.6745  -49.7423 C.ar      23 UNK        -0.0193 
     10 C10         1.4337  -18.8220  -51.0709 C.ar      23 UNK        -0.1150 
     11 C11         1.7836  -19.9622  -51.8047 C.ar      23 UNK        -0.0193 
     12 C12         2.5548  -20.9537  -51.1865 C.ar      23 UNK        -0.1150 
     13 C13         2.9588  -20.8208  -49.8546 C.ar      23 UNK        -0.0193 
     14 C14         2.6150  -19.6709  -49.1426 C.ar      23 UNK        -0.1150 
     15 C15         3.7253  -21.9396  -49.1684 C.3       23 UNK        -0.0205 
     16 S16         2.6030  -23.2384  -48.5582 S.3       23 UNK        -0.2404 
     17 C17         1.7297  -22.3839  -47.1985 C.3       23 UNK        -0.0398 
     18 CA          1.0335  -23.3642  -46.2264 C.3       11 UNK         0.1400 
     19 N           0.6968  -22.7220  -44.9552 N.am      11 UNK        -0.5000 
     20 C           0.4415  -23.3977  -43.8264 C.2       10 UNK         0.5000 
     21 O           0.5120  -24.6231  -43.7329 O.2       10 UNK        -0.5000 
     22 CA          0.0109  -22.5733  -42.6019 C.3       10 UNK         0.1400 
     23 CB          1.2354  -21.9601  -41.9066 C.3       10 UNK        -0.1800 
     24 N          -0.9554  -21.5241  -42.9310 N.am      10 UNK        -0.5000 
     25 C          -2.1892  -21.7535  -43.4050 C.2       9 UNK         0.5000 
     26 O          -2.6484  -22.8795  -43.6016 O.2       9 UNK        -0.5000 
     27 CA         -3.0506  -20.5204  -43.7365 C.3       9 UNK         0.1400 
     28 CB         -3.6961  -19.9544  -42.4630 C.3       9 UNK        -0.1800 
     29 N          -2.3140  -19.4581  -44.4233 N.am      9 UNK        -0.5000 
     30 C          -1.7201  -19.5879  -45.6184 C.2       8 UNK         0.5000 
     31 O          -1.7103  -20.6287  -46.2720 O.2       8 UNK        -0.5000 
     32 CA         -0.9393  -18.3709  -46.1388 C.3       8 UNK         0.1400 
     33 CB         -1.8805  -17.2224  -46.5362 C.3       8 UNK        -0.1800 
     34 N           0.0395  -17.8942  -45.1627 N.am      8 UNK        -0.5000 
     35 C           1.0341  -18.6342  -44.6494 C.2       7 UNK         0.5000 
     36 O           1.3061  -19.7791  -45.0149 O.2       7 UNK        -0.5000 
     37 CA          1.8194  -18.0025  -43.4892 C.3       7 UNK         0.1400 
     38 CB          2.9356  -17.0886  -44.0183 C.3       7 UNK        -0.1800 
     39 N           0.9420  -17.2512  -42.5884 N.am      7 UNK        -0.5000 
     40 C           0.0591  -17.8155  -41.7507 C.2       6 UNK         0.5000 
     41 O          -0.0887  -19.0310  -41.6344 O.2       6 UNK        -0.5000 
     42 CA         -0.8364  -16.8663  -40.9322 C.3       6 UNK         0.1400 
     43 CB         -0.0920  -16.3545  -39.6901 C.3       6 UNK        -0.1800 
     44 N          -1.3164  -15.7276  -41.7148 N.am      6 UNK        -0.5000 
     45 C          -2.1589  -15.8248  -42.7524 C.2       5 UNK         0.5000 
     46 O          -2.6722  -16.8832  -43.1137 O.2       5 UNK        -0.5000 
     47 CA         -2.4418  -14.5350  -43.5492 C.3       5 UNK         0.1400 
     48 CB         -3.6979  -13.8342  -43.0121 C.3       5 UNK        -0.1800 
     49 N          -1.3308  -13.5785  -43.5745 N.am      5 UNK        -0.5000 
     50 C          -0.0905  -13.8394  -44.0098 C.2       4 UNK         0.5000 
     51 O           0.2833  -14.9525  -44.3860 O.2       4 UNK        -0.5000 
     52 CA          0.8662  -12.6400  -44.0434 C.3       4 UNK         0.1400 
     53 CB          2.3017  -13.0228  -44.4476 C.3       4 UNK        -0.1800 
     54 N           0.3411  -11.6513  -44.9810 N.am      4 UNK        -0.5000 
     55 C           0.3266  -10.3261  -44.7858 C.2       3 UNK         0.5000 
     56 O           0.7322   -9.7925  -43.7523 O.2       3 UNK        -0.5000 
     57 CA         -0.2047   -9.4299  -45.9265 C.3       3 UNK         0.1400 
     58 CB          0.9353   -8.5859  -46.5196 C.3       3 UNK        -0.1800 
     59 N          -0.8375  -10.1768  -47.0145 N.am      3 UNK        -0.5000 
     60 C          -2.0968  -10.6331  -47.0090 C.2       2 UNK         0.5000 
     61 O          -2.8950  -10.4256  -46.0948 O.2       2 UNK        -0.5000 
     62 CA         -2.5258  -11.4942  -48.2170 C.3       2 UNK         0.1400 
     63 CB         -3.2478  -10.6371  -49.2668 C.3       2 UNK        -0.1800 
     64 N          -1.4238  -12.2161  -48.8662 N.am      2 UNK        -0.5000 
     65 C          -0.6441  -13.1263  -48.2689 C.2       1 UNK         0.5000 
     66 O          -0.7558  -13.4093  -47.0777 O.2       1 UNK        -0.5000 
     67 C          -0.2013  -24.0507  -46.8517 C.2       11 UNK         0.5000 
     68 O          -0.0846  -25.1769  -47.3387 O.2       11 UNK        -0.5000 
     69 N          -1.3754  -23.4004  -46.7866 N.am      12 UNK        -0.5000 
     70 CA         -2.6450  -23.8866  -47.3410 C.3       12 UNK         0.1400 
     71 CB         -3.7360  -22.8203  -47.1889 C.3       12 UNK        -0.1800 
     72 C          -3.1314  -25.2248  -46.7616 C.2       12 UNK         0.5000 
     73 O          -3.8676  -25.9335  -47.4460 O.2       12 UNK        -0.5000 
     74 N          -2.6689  -25.5819  -45.5563 N.am      13 UNK        -0.5000 
     75 CA         -2.8758  -26.8917  -44.9350 C.3       13 UNK         0.1400 
     76 CB         -2.2587  -26.8794  -43.5288 C.3       13 UNK        -0.1800 
     77 C          -2.3161  -28.0704  -45.7634 C.2       13 UNK         0.5000 
     78 O          -2.8165  -29.1873  -45.6242 O.2       13 UNK        -0.5000 
     79 N          -1.3153  -27.8018  -46.6146 N.am      14 UNK        -0.5000 
     80 CA         -0.7484  -28.7518  -47.5691 C.3       14 UNK         0.1400 
     81 CB          0.7616  -28.8789  -47.3111 C.3       14 UNK        -0.1800 
     82 C          -1.0094  -28.3146  -49.0216 C.2       14 UNK         0.5000 
     83 O          -1.3657  -29.1535  -49.8497 O.2       14 UNK        -0.5000 
     84 N          -0.8056  -27.0234  -49.3176 N.am      15 UNK        -0.5000 
     85 CA         -0.7960  -26.4807  -50.6778 C.3       15 UNK         0.1400 
     86 CB          0.0655  -25.2085  -50.6892 C.3       15 UNK        -0.1800 
     87 C          -2.1877  -26.1716  -51.2573 C.2       15 UNK         0.5000 
     88 O          -2.3092  -26.0797  -52.4796 O.2       15 UNK        -0.5000 
     89 N          -3.1945  -25.9756  -50.3919 N.am      16 UNK        -0.5000 
     90 CA         -4.5778  -25.5578  -50.6713 C.3       16 UNK         0.1400 
     91 CB         -5.3205  -26.5970  -51.5332 C.3       16 UNK        -0.1800 
     92 C          -4.7050  -24.1373  -51.2618 C.2       16 UNK         0.5000 
     93 O          -5.3593  -23.2834  -50.6635 O.2       16 UNK        -0.5000 
     94 N          -4.0627  -23.8998  -52.4118 N.am      17 UNK        -0.5000 
     95 CA         -4.0979  -22.6534  -53.1829 C.3       17 UNK         0.1400 
     96 CB         -3.5306  -22.9260  -54.5842 C.3       17 UNK        -0.1800 
     97 C          -3.3469  -21.4791  -52.5274 C.2       17 UNK         0.5000 
     98 O          -3.5057  -20.3402  -52.9650 O.2       17 UNK        -0.5000 
     99 N          -2.5402  -21.7590  -51.4974 N.am      18 UNK        -0.5000 
    100 CA        -1.7458  -20.7755  -50.7611 C.3       18 UNK         0.1400 
    101 CB        -0.7168  -21.5156  -49.9044 C.3       18 UNK        -0.1800 
    102 C         -2.5597  -19.7973  -49.8961 C.2       18 UNK         0.5000 
    103 O         -1.9878  -18.8163  -49.4207 O.2       18 UNK        -0.5000 
    104 N         -3.8628  -20.0576  -49.7169 N.am      19 UNK        -0.5000 
    105 CA        -4.8224  -19.2679  -48.9407 C.3       19 UNK         0.1400 
    106 CB        -6.0860  -20.1191  -48.7217 C.3       19 UNK        -0.1800 
    107 C         -5.1401  -17.8923  -49.5740 C.2       19 UNK         0.5000 
    108 O         -6.2917  -17.6113  -49.9093 O.2       19 UNK        -0.5000 
    109 N         -4.0970  -17.0671  -49.7299 N.am      20 UNK        -0.5000 
    110 CA        -4.0878  -15.7054  -50.2708 C.3       20 UNK         0.1400 
    111 CB        -4.8623  -14.7405  -49.3494 C.3       20 UNK        -0.1800 
    112 C         -4.5173  -15.6167  -51.7524 C.2       20 UNK         0.5000 
    113 O         -5.0466  -14.5864  -52.1721 O.2       20 UNK        -0.5000 
    114 N         -4.2487  -16.6797  -52.5238 N.am      21 UNK        -0.5000 
    115 CA        -4.4585  -16.7368  -53.9695 C.3       21 UNK         0.1400 
    116 CB        -5.5228  -17.7946  -54.3109 C.3       21 UNK        -0.1800 
    117 C         -3.1151  -16.9930  -54.6682 C.2       21 UNK         0.5000 
    118 O         -2.5898  -16.0807  -55.3063 O.2       21 UNK        -0.5000 
    119 N         -2.5629  -18.2050  -54.5059 N.am      22 UNK        -0.5000 
    120 CA        -1.2627  -18.6395  -55.0535 C.3       22 UNK         0.1400 
    121 C         -1.1859  -18.6472  -56.6148 C.2       22 UNK         0.5000 
    122 N         -2.3010  -18.8168  -57.3157 N.am      22 UNK        -0.7600 
    123 O         -0.1182  -18.5188  -57.2068 O.2       22 UNK        -0.5000 
    124 C124       -0.0794  -17.9153  -54.3442 C.3       23 UNK        -0.0398 
    125 S125        1.5234  -18.8016  -54.3726 S.3       23 UNK        -0.2404 
    126 C126        1.2660  -20.1957  -53.2239 C.3       23 UNK        -0.0205 
    127 H127       -2.0254  -14.3663  -52.9551 H         1 UNK         0.0600 
    128 H128       -1.3064  -15.7927  -52.2006 H         1 UNK         0.0600 
    129 H129       -0.3725  -14.8344  -53.3547 H         1 UNK         0.0600 
    130 H130       -0.2836  -15.5033  -50.2238 H         1 UNK         0.3000 
    131 H131        1.0782  -13.0623  -49.5237 H         1 UNK         0.0600 
    132 H132        1.9843  -14.2176  -47.6794 H         1 UNK         0.0800 
    133 H133        0.7047  -15.3810  -47.5906 H         1 UNK         0.0800 
    134 H134        0.3148  -17.3231  -49.1066 H         1 UNK         0.0800 
    135 H135        1.4796  -17.7017  -47.8595 H         1 UNK         0.0800 
    136 H136        0.8189  -18.0554  -51.5131 H         1 UNK         0.1150 
    137 H137        2.8076  -21.8553  -51.7266 H         1 UNK         0.1150 
    138 H138        2.9117  -19.5717  -48.1077 H         1 UNK         0.1150 
    139 H139        4.4301  -22.3841  -49.8726 H         1 UNK         0.0800 
    140 H140        4.3234  -21.5505  -48.3430 H         1 UNK         0.0800 
    141 H141        1.0203  -21.6609  -47.5985 H         1 UNK         0.0800 
    142 H142        2.4712  -21.8000  -46.6513 H         1 UNK         0.0800 
    143 H143        1.7527  -24.1550  -46.0001 H         1 UNK         0.0600 
    144 H144        0.6474  -21.7076  -44.9505 H         1 UNK         0.3000 
    145 H145       -0.4692  -23.2562  -41.8978 H         1 UNK         0.0600 
    146 H146        0.9546  -21.4703  -40.9742 H         1 UNK         0.0600 
    147 H147        1.9709  -22.7268  -41.6602 H         1 UNK         0.0600 
    148 H148        1.7290  -21.2217  -42.5389 H         1 UNK         0.0600 
    149 H149       -0.6686  -20.5686  -42.7418 H         1 UNK         0.3000 
    150 H150       -3.8507  -20.8468  -44.4033 H         1 UNK         0.0600 
    151 H151       -4.2616  -20.7232  -41.9349 H         1 UNK         0.0600 
    152 H152       -4.3881  -19.1457  -42.6987 H         1 UNK         0.0600 
    153 H153       -2.9476  -19.5625  -41.7732 H         1 UNK         0.0600 
    154 H154       -2.2834  -18.5567  -43.9538 H         1 UNK         0.3000 
    155 H155       -0.4022  -18.6971  -47.0297 H         1 UNK         0.0600 
    156 H156       -2.4383  -16.8417  -45.6846 H         1 UNK         0.0600 
    157 H157       -1.3333  -16.3898  -46.9762 H         1 UNK         0.0600 
    158 H158       -2.6152  -17.5521  -47.2676 H         1 UNK         0.0600 
    159 H159       -0.0766  -16.9474  -44.8169 H         1 UNK         0.3000 
    160 H160        2.2852  -18.8089  -42.9191 H         1 UNK         0.0600 
    161 H161        3.6384  -17.6530  -44.6324 H         1 UNK         0.0600 
    162 H162        2.5436  -16.2799  -44.6354 H         1 UNK         0.0600 
    163 H163        3.5026  -16.6431  -43.2010 H         1 UNK         0.0600 
    164 H164        0.9343  -16.2469  -42.7038 H         1 UNK         0.3000 
    165 H165       -1.7054  -17.4367  -40.5971 H         1 UNK         0.0600 
    166 H166       -0.7438  -15.7463  -39.0627 H         1 UNK         0.0600 
    167 H167        0.2629  -17.1854  -39.0788 H         1 UNK         0.0600 
    168 H168        0.7755  -15.7505  -39.9588 H         1 UNK         0.0600 
    169 H169       -0.9424  -14.8195  -41.4829 H         1 UNK         0.3000 
    170 H170       -2.6349  -14.8235  -44.5834 H         1 UNK         0.0600 
    171 H171       -4.5523  -14.5126  -43.0076 H         1 UNK         0.0600 
    172 H172       -3.5547  -13.4789  -41.9909 H         1 UNK         0.0600 
    173 H173       -3.9677  -12.9787  -43.6319 H         1 UNK         0.0600 
    174 H174       -1.5521  -12.6303  -43.3073 H         1 UNK         0.3000 
    175 H175        0.8933  -12.2313  -43.0313 H         1 UNK         0.0600 
    176 H176        2.3369  -13.4493  -45.4498 H         1 UNK         0.0600 
    177 H177        2.9603  -12.1544  -44.4302 H         1 UNK         0.0600 
    178 H178        2.7178  -13.7605  -43.7605 H         1 UNK         0.0600 
    179 H179       -0.0737  -12.0399  -45.8230 H         1 UNK         0.3000 
    180 H180       -0.9389   -8.7493  -45.4901 H         1 UNK         0.0600 
    181 H181        1.7090   -9.2117  -46.9662 H         1 UNK         0.0600 
    182 H182        1.4110   -7.9734  -45.7525 H         1 UNK         0.0600 
    183 H183        0.5652   -7.9079  -47.2890 H         1 UNK         0.0600 
    184 H184       -0.2567  -10.3948  -47.8106 H         1 UNK         0.3000 
    185 H185       -3.2303  -12.2408  -47.8446 H         1 UNK         0.0600 
    186 H186       -3.6374  -11.2525  -50.0781 H         1 UNK         0.0600 
    187 H187       -4.0939  -10.1081  -48.8260 H         1 UNK         0.0600 
    188 H188       -2.5824   -9.8901  -49.7014 H         1 UNK         0.0600 
    189 H189       -1.2788  -12.0519  -49.8579 H         1 UNK         0.3000 
    190 H190       -1.3993  -22.4618  -46.3930 H         1 UNK         0.3000 
    191 H191       -2.4852  -24.0461  -48.4082 H         1 UNK         0.0600 
    192 H192       -3.9134  -22.5741  -46.1423 H         1 UNK         0.0600 
    193 H193       -4.6809  -23.1630  -47.6129 H         1 UNK         0.0600 
    194 H194       -3.4650  -21.9047  -47.7103 H         1 UNK         0.0600 
    195 H195       -2.0923  -24.9223  -45.0508 H         1 UNK         0.3000 
    196 H196       -3.9527  -27.0420  -44.8364 H         1 UNK         0.0600 
    197 H197       -2.4601  -27.8151  -43.0058 H         1 UNK         0.0600 
    198 H198       -2.6696  -26.0717  -42.9225 H         1 UNK         0.0600 
    199 H199       -1.1764  -26.7525  -43.5681 H         1 UNK         0.0600 
    200 H200       -0.9654  -26.8511  -46.6658 H         1 UNK         0.3000 
    201 H201       -1.1948  -29.7401  -47.4421 H         1 UNK         0.0600 
    202 H202        0.9569  -29.2578  -46.3078 H         1 UNK         0.0600 
    203 H203        1.2711  -27.9192  -47.4102 H         1 UNK         0.0600 
    204 H204        1.2226  -29.5717  -48.0162 H         1 UNK         0.0600 
    205 H205       -0.4953  -26.3893  -48.5838 H         1 UNK         0.3000 
    206 H206       -0.3242  -27.2089  -51.3411 H         1 UNK         0.0600 
    207 H207        1.0871  -25.4218  -50.3743 H         1 UNK         0.0600 
    208 H208        0.1185  -24.7723  -51.6876 H         1 UNK         0.0600 
    209 H209       -0.3362  -24.4496  -50.0187 H         1 UNK         0.0600 
    210 H210       -2.9983  -26.1164  -49.4085 H         1 UNK         0.3000 
    211 H211       -5.0840  -25.5318  -49.7060 H         1 UNK         0.0600 
    212 H212       -4.8917  -26.6913  -52.5309 H         1 UNK         0.0600 
    213 H213       -6.3684  -26.3208  -51.6559 H         1 UNK         0.0600 
    214 H214       -5.2972  -27.5814  -51.0656 H         1 UNK         0.0600 
    215 H215       -3.4942  -24.6561  -52.7857 H         1 UNK         0.3000 
    216 H216       -5.1411  -22.3486  -53.2875 H         1 UNK         0.0600 
    217 H217       -3.5660  -22.0298  -55.2054 H         1 UNK         0.0600 
    218 H218       -4.1039  -23.6979  -55.0980 H         1 UNK         0.0600 
    219 H219       -2.4913  -23.2543  -54.5391 H         1 UNK         0.0600 
    220 H220       -2.4663  -22.7207  -51.2041 H         1 UNK         0.3000 
    221 H221       -1.2125  -20.1598  -51.4845 H         1 UNK         0.0600 
    222 H222       -1.1964  -22.1760  -49.1870 H         1 UNK         0.0600 
    223 H223       -0.0402  -22.1092  -50.5182 H         1 UNK         0.0600 
    224 H224       -0.1087  -20.8079  -49.3430 H         1 UNK         0.0600 
    225 H225       -4.2386  -20.8785  -50.1704 H         1 UNK         0.3000 
    226 H226       -4.3831  -19.0758  -47.9600 H         1 UNK         0.0600 
    227 H227       -5.8549  -21.0454  -48.1971 H         1 UNK         0.0600 
    228 H228       -6.8212  -19.5844  -48.1190 H         1 UNK         0.0600 
    229 H229       -6.5618  -20.3824  -49.6674 H         1 UNK         0.0600 
    230 H230       -3.1870  -17.4542  -49.4864 H         1 UNK         0.3000 
    231 H231       -3.0447  -15.3907  -50.2491 H         1 UNK         0.0600 
    232 H232       -4.7330  -13.7054  -49.6676 H         1 UNK         0.0600 
    233 H233       -4.5055  -14.8072  -48.3215 H         1 UNK         0.0600 
    234 H234       -5.9318  -14.9521  -49.3495 H         1 UNK         0.0600 
    235 H235       -3.8085  -17.4847  -52.1023 H         1 UNK         0.3000 
    236 H236       -4.8250  -15.7786  -54.3438 H         1 UNK         0.0600 
    237 H237       -6.4973  -17.4989  -53.9224 H         1 UNK         0.0600 
    238 H238       -5.6264  -17.9124  -55.3902 H         1 UNK         0.0600 
    239 H239       -5.2896  -18.7718  -53.8921 H         1 UNK         0.0600 
    240 H240       -3.0592  -18.9133  -53.9671 H         1 UNK         0.3000 
    241 H241       -1.2049  -19.6941  -54.7871 H         1 UNK         0.0600 
    242 H242       -2.2563  -18.8263  -58.3227 H         1 UNK         0.3800 
    243 H243       -3.1881  -18.9282  -56.8520 H         1 UNK         0.3800 
    244 H244        0.0685  -16.9262  -54.7800 H         1 UNK         0.0800 
    245 H245       -0.3399  -17.7379  -53.3031 H         1 UNK         0.0800 
    246 H246        0.2133  -20.4675  -53.1850 H         1 UNK         0.0800 
    247 H247        1.7715  -21.0592  -53.6587 H         1 UNK         0.0800 
@<TRIPOS>BOND
     1    1    2 1    
     2    1  127 1    
     3    1  128 1    
     4    1  129 1    
     5    2    3 2    
     6    2    4 am   BACKBONE|DICT|INTERRES
     7    4    5 1    
     8    4  130 1    
     9    5    6 1    
    10    5   65 1    
    11    5  131 1    
    12    6    7 1    
    13    6  132 1    
    14    6  133 1    
    15    7    8 1    
    16    8    9 1    
    17    8  134 1    
    18    8  135 1    
    19    9   10 ar   
    20    9   14 ar   
    21   10   11 ar   
    22   10  136 1    
    23   11   12 ar   
    24   11  126 1    
    25   12   13 ar   
    26   12  137 1    
    27   13   14 ar   
    28   13   15 1    
    29   14  138 1    
    30   15   16 1    
    31   15  139 1    
    32   15  140 1    
    33   16   17 1    
    34   17   18 1    
    35   17  141 1    
    36   17  142 1    
    37   18   19 1    
    38   18   67 1    
    39   18  143 1    
    40   19   20 am   BACKBONE|DICT|INTERRES
    41   19  144 1    
    42   20   21 2    
    43   20   22 1    
    44   22   23 1    
    45   22   24 1    
    46   22  145 1    
    47   23  146 1    
    48   23  147 1    
    49   23  148 1    
    50   24   25 am   BACKBONE|DICT|INTERRES
    51   24  149 1    
    52   25   26 2    
    53   25   27 1    
    54   27   28 1    
    55   27   29 1    
    56   27  150 1    
    57   28  151 1    
    58   28  152 1    
    59   28  153 1    
    60   29   30 am   BACKBONE|DICT|INTERRES
    61   29  154 1    
    62   30   31 2    
    63   30   32 1    
    64   32   33 1    
    65   32   34 1    
    66   32  155 1    
    67   33  156 1    
    68   33  157 1    
    69   33  158 1    
    70   34   35 am   BACKBONE|DICT|INTERRES
    71   34  159 1    
    72   35   36 2    
    73   35   37 1    
    74   37   38 1    
    75   37   39 1    
    76   37  160 1    
    77   38  161 1    
    78   38  162 1    
    79   38  163 1    
    80   39   40 am   BACKBONE|DICT|INTERRES
    81   39  164 1    
    82   40   41 2    
    83   40   42 1    
    84   42   43 1    
    85   42   44 1    
    86   42  165 1    
    87   43  166 1    
    88   43  167 1    
    89   43  168 1    
    90   44   45 am   BACKBONE|DICT|INTERRES
    91   44  169 1    
    92   45   46 2    
    93   45   47 1    
    94   47   48 1    
    95   47   49 1    
    96   47  170 1    
    97   48  171 1    
    98   48  172 1    
    99   48  173 1    
   100   49   50 am   BACKBONE|DICT|INTERRES
   101   49  174 1    
   102   50   51 2    
   103   50   52 1    
   104   52   53 1    
   105   52   54 1    
   106   52  175 1    
   107   53  176 1    
   108   53  177 1    
   109   53  178 1    
   110   54   55 am   BACKBONE|DICT|INTERRES
   111   54  179 1    
   112   55   56 2    
   113   55   57 1    
   114   57   58 1    
   115   57   59 1    
   116   57  180 1    
   117   58  181 1    
   118   58  182 1    
   119   58  183 1    
   120   59   60 am   BACKBONE|DICT|INTERRES
   121   59  184 1    
   122   60   61 2    
   123   60   62 1    
   124   62   63 1    
   125   62   64 1    
   126   62  185 1    
   127   63  186 1    
   128   63  187 1    
   129   63  188 1    
   130   64   65 am   BACKBONE|DICT|INTERRES
   131   64  189 1    
   132   65   66 2    
   133   67   68 2    
   134   67   69 am   BACKBONE|DICT|INTERRES
   135   69   70 1    
   136   69  190 1    
   137   70   71 1    
   138   70   72 1    
   139   70  191 1    
   140   71  192 1    
   141   71  193 1    
   142   71  194 1    
   143   72   73 2    
   144   72   74 am   BACKBONE|DICT|INTERRES
   145   74   75 1    
   146   74  195 1    
   147   75   76 1    
   148   75   77 1    
   149   75  196 1    
   150   76  197 1    
   151   76  198 1    
   152   76  199 1    
   153   77   78 2    
   154   77   79 am   BACKBONE|DICT|INTERRES
   155   79   80 1    
   156   79  200 1    
   157   80   81 1    
   158   80   82 1    
   159   80  201 1    
   160   81  202 1    
   161   81  203 1    
   162   81  204 1    
   163   82   83 2    
   164   82   84 am   BACKBONE|DICT|INTERRES
   165   84   85 1    
   166   84  205 1    
   167   85   86 1    
   168   85   87 1    
   169   85  206 1    
   170   86  207 1    
   171   86  208 1    
   172   86  209 1    
   173   87   88 2    
   174   87   89 am   BACKBONE|DICT|INTERRES
   175   89   90 1    
   176   89  210 1    
   177   90   91 1    
   178   90   92 1    
   179   90  211 1    
   180   91  212 1    
   181   91  213 1    
   182   91  214 1    
   183   92   93 2    
   184   92   94 am   BACKBONE|DICT|INTERRES
   185   94   95 1    
   186   94  215 1    
   187   95   96 1    
   188   95   97 1    
   189   95  216 1    
   190   96  217 1    
   191   96  218 1    
   192   96  219 1    
   193   97   98 2    
   194   97   99 am   BACKBONE|DICT|INTERRES
   195   99  100 1    
   196   99  220 1    
   197  100  101 1    
   198  100  102 1    
   199  100  221 1    
   200  101  222 1    
   201  101  223 1    
   202  101  224 1    
   203  102  103 2    
   204  102  104 am   BACKBONE|DICT|INTERRES
   205  104  105 1    
   206  104  225 1    
   207  105  106 1    
   208  105  107 1    
   209  105  226 1    
   210  106  227 1    
   211  106  228 1    
   212  106  229 1    
   213  107  108 2    
   214  107  109 am   BACKBONE|DICT|INTERRES
   215  109  110 1    
   216  109  230 1    
   217  110  111 1    
   218  110  112 1    
   219  110  231 1    
   220  111  232 1    
   221  111  233 1    
   222  111  234 1    
   223  112  113 2    
   224  112  114 am   BACKBONE|DICT|INTERRES
   225  114  115 1    
   226  114  235 1    
   227  115  116 1    
   228  115  117 1    
   229  115  236 1    
   230  116  237 1    
   231  116  238 1    
   232  116  239 1    
   233  117  118 2    
   234  117  119 am   BACKBONE|DICT|INTERRES
   235  119  120 1    
   236  119  240 1    
   237  120  121 1    
   238  120  124 1    
   239  120  241 1    
   240  121  122 am   BACKBONE|DICT|INTERRES
   241  121  123 2    
   242  122  242 1    
   243  122  243 1    
   244  124  125 1    
   245  124  244 1    
   246  124  245 1    
   247  125  126 1    
   248  126  246 1    
   249  126  247 1    
@<TRIPOS>SUBSTRUCTURE
     1 UNK         1 GROUP             0       ****    0 ROOT    
