@<TRIPOS>MOLECULE
3R540
247   249    1
SMALL
USER_CHARGES


@<TRIPOS>ATOM
      1 CA         -1.2348  -16.8793  -48.9382 C.3       0 UNK        -0.1800 
      2 C          -0.4754  -15.5625  -48.8630 C.2       0 UNK         0.5000 
      3 O          -0.9166  -14.6457  -48.1703 O.2       0 UNK        -0.5000 
      4 N           0.6675  -15.4635  -49.5583 N.am      1 UNK        -0.5000 
      5 CA          1.4767  -14.2398  -49.7023 C.3       1 UNK         0.1400 
      6 C6          2.6295  -14.4072  -50.7216 C.3       23 UNK        -0.0398 
      7 S7          2.0439  -14.8818  -52.3834 S.3       23 UNK        -0.2404 
      8 C8          2.9238  -16.4520  -52.6547 C.3       23 UNK        -0.0205 
      9 C9          2.3740  -17.5750  -51.7890 C.ar      23 UNK        -0.0193 
     10 C10         1.1722  -18.1973  -52.1379 C.ar      23 UNK        -0.1150 
     11 C11         0.6576  -19.2437  -51.3640 C.ar      23 UNK        -0.0193 
     12 C12         1.3815  -19.6804  -50.2525 C.ar      23 UNK        -0.1150 
     13 C13         2.5857  -19.0707  -49.8911 C.ar      23 UNK        -0.0193 
     14 C14         3.0745  -18.0119  -50.6603 C.ar      23 UNK        -0.1150 
     15 C15         3.3751  -19.5883  -48.6957 C.3       23 UNK        -0.0205 
     16 S16         3.0004  -18.7003  -47.1482 S.3       23 UNK        -0.2404 
     17 C17         1.2125  -18.9857  -46.9404 C.3       23 UNK        -0.0398 
     18 CA          0.8251  -20.4519  -46.6295 C.3       11 UNK         0.1400 
     19 N           1.4441  -20.9536  -45.4010 N.am      11 UNK        -0.5000 
     20 C           1.4155  -22.2258  -44.9797 C.2       10 UNK         0.5000 
     21 O           0.8972  -23.1380  -45.6257 O.2       10 UNK        -0.5000 
     22 CA          1.9916  -22.5132  -43.5778 C.3       10 UNK         0.1400 
     23 CB          2.7757  -23.8398  -43.5173 C.3       10 UNK        -0.1800 
     24 N           2.7589  -21.3958  -43.0136 N.am      10 UNK        -0.5000 
     25 C           3.9612  -20.9352  -43.3916 C.2       9 UNK         0.5000 
     26 O           4.6416  -21.4359  -44.2866 O.2       9 UNK        -0.5000 
     27 CA          4.4822  -19.6780  -42.6651 C.3       9 UNK         0.1400 
     28 CB          4.4089  -18.4559  -43.5945 C.3       9 UNK        -0.1800 
     29 N           3.7508  -19.3682  -41.4344 N.am      9 UNK        -0.5000 
     30 C           3.8551  -20.0426  -40.2811 C.2       8 UNK         0.5000 
     31 O           4.6024  -21.0069  -40.1153 O.2       8 UNK        -0.5000 
     32 CA          2.9505  -19.5715  -39.1308 C.3       8 UNK         0.1400 
     33 CB          3.5668  -18.3573  -38.4180 C.3       8 UNK        -0.1800 
     34 N           1.6132  -19.2222  -39.6123 N.am      8 UNK        -0.5000 
     35 C           0.6006  -20.0897  -39.7493 C.2       7 UNK         0.5000 
     36 O           0.6832  -21.2853  -39.4683 O.2       7 UNK        -0.5000 
     37 CA         -0.7284  -19.5332  -40.2995 C.3       7 UNK         0.1400 
     38 CB         -1.6317  -19.0598  -39.1511 C.3       7 UNK        -0.1800 
     39 N          -0.5341  -18.4297  -41.2403 N.am      7 UNK        -0.5000 
     40 C          -0.0631  -18.5817  -42.4836 C.2       6 UNK         0.5000 
     41 O           0.1761  -19.6761  -42.9945 O.2       6 UNK        -0.5000 
     42 CA          0.2191  -17.3073  -43.2968 C.3       6 UNK         0.1400 
     43 CB         -0.9348  -17.0166  -44.2665 C.3       6 UNK        -0.1800 
     44 N           0.5163  -16.1095  -42.5012 N.am      6 UNK        -0.5000 
     45 C           1.5522  -15.9941  -41.6536 C.2       5 UNK         0.5000 
     46 O           2.3124  -16.9295  -41.4040 O.2       5 UNK        -0.5000 
     47 CA          1.7975  -14.6397  -40.9608 C.3       5 UNK         0.1400 
     48 CB          3.2297  -14.1417  -41.2152 C.3       5 UNK        -0.1800 
     49 N           0.8544  -13.6050  -41.3828 N.am      5 UNK        -0.5000 
     50 C          -0.2922  -13.3147  -40.7526 C.2       4 UNK         0.5000 
     51 O          -0.6687  -13.8836  -39.7274 O.2       4 UNK        -0.5000 
     52 CA         -1.1822  -12.2191  -41.3763 C.3       4 UNK         0.1400 
     53 CB         -0.9475  -10.8729  -40.6744 C.3       4 UNK        -0.1800 
     54 N          -0.9874  -12.0430  -42.8179 N.am      4 UNK        -0.5000 
     55 C          -1.2401  -12.9758  -43.7454 C.2       3 UNK         0.5000 
     56 O          -1.6835  -14.0907  -43.4741 O.2       3 UNK        -0.5000 
     57 CA         -0.9139  -12.6327  -45.2128 C.3       3 UNK         0.1400 
     58 CB         -0.7076  -11.1241  -45.4741 C.3       3 UNK        -0.1800 
     59 N           0.2345  -13.3913  -45.7178 N.am      3 UNK        -0.5000 
     60 C           1.4756  -13.4321  -45.2039 C.2       2 UNK         0.5000 
     61 O           1.7942  -12.8780  -44.1506 O.2       2 UNK        -0.5000 
     62 CA          2.5562  -14.2065  -45.9924 C.3       2 UNK         0.1400 
     63 CB          2.9649  -15.4919  -45.2619 C.3       2 UNK        -0.1800 
     64 N           2.1605  -14.5578  -47.3571 N.am      2 UNK        -0.5000 
     65 C           2.0340  -13.6902  -48.3701 C.2       1 UNK         0.5000 
     66 O           2.3199  -12.4956  -48.2813 O.2       1 UNK        -0.5000 
     67 C          -0.7102  -20.5872  -46.6040 C.2       11 UNK         0.5000 
     68 O          -1.3167  -20.7389  -47.6639 O.2       11 UNK        -0.5000 
     69 N          -1.3068  -20.5584  -45.4021 N.am      12 UNK        -0.5000 
     70 CA         -2.7433  -20.7130  -45.1751 C.3       12 UNK         0.1400 
     71 CB         -3.0520  -20.5002  -43.6856 C.3       12 UNK        -0.1800 
     72 C          -3.2926  -22.0687  -45.6534 C.2       12 UNK         0.5000 
     73 O          -4.4091  -22.1154  -46.1654 O.2       12 UNK        -0.5000 
     74 N          -2.4915  -23.1359  -45.5212 N.am      13 UNK        -0.5000 
     75 CA         -2.8347  -24.4807  -45.9872 C.3       13 UNK         0.1400 
     76 CB         -1.8403  -25.4944  -45.4017 C.3       13 UNK        -0.1800 
     77 C          -2.8722  -24.5756  -47.5231 C.2       13 UNK         0.5000 
     78 O          -3.7592  -25.2281  -48.0733 O.2       13 UNK        -0.5000 
     79 N          -1.9287  -23.8940  -48.1864 N.am      14 UNK        -0.5000 
     80 CA         -1.8627  -23.7871  -49.6431 C.3       14 UNK         0.1400 
     81 CB         -0.4679  -23.2987  -50.0553 C.3       14 UNK        -0.1800 
     82 C          -2.9660  -22.8752  -50.2087 C.2       14 UNK         0.5000 
     83 O          -3.5241  -23.1847  -51.2596 O.2       14 UNK        -0.5000 
     84 N          -3.2898  -21.7917  -49.4895 N.am      15 UNK        -0.5000 
     85 CA         -4.3963  -20.8896  -49.8093 C.3       15 UNK         0.1400 
     86 CB         -4.3011  -19.6301  -48.9369 C.3       15 UNK        -0.1800 
     87 C          -5.7701  -21.5714  -49.6586 C.2       15 UNK         0.5000 
     88 O          -6.6335  -21.3924  -50.5176 O.2       15 UNK        -0.5000 
     89 N          -5.9358  -22.3844  -48.6039 N.am      16 UNK        -0.5000 
     90 CA         -7.1310  -23.1949  -48.3448 C.3       16 UNK         0.1400 
     91 CB         -7.0388  -23.8119  -46.9412 C.3       16 UNK        -0.1800 
     92 C          -7.3765  -24.2927  -49.3992 C.2       16 UNK         0.5000 
     93 O          -8.5236  -24.6949  -49.5958 O.2       16 UNK        -0.5000 
     94 N          -6.3107  -24.7301  -50.0840 N.am      17 UNK        -0.5000 
     95 CA         -6.3614  -25.6489  -51.2235 C.3       17 UNK         0.1400 
     96 CB         -4.9990  -26.3477  -51.3657 C.3       17 UNK        -0.1800 
     97 C          -6.7834  -24.9647  -52.5444 C.2       17 UNK         0.5000 
     98 O          -6.8849  -25.6511  -53.5622 O.2       17 UNK        -0.5000 
     99 N          -7.0333  -23.6462  -52.5094 N.am      18 UNK        -0.5000 
    100 CA        -7.4419  -22.7748  -53.6098 C.3       18 UNK         0.1400 
    101 CB        -8.8117  -23.1939  -54.1912 C.3       18 UNK        -0.1800 
    102 C         -6.3220  -22.6275  -54.6542 C.2       18 UNK         0.5000 
    103 O         -5.3551  -21.9164  -54.3836 O.2       18 UNK        -0.5000 
    104 N         -6.4776  -23.2731  -55.8204 N.am      19 UNK        -0.5000 
    105 CA        -5.6035  -23.1859  -56.9968 C.3       19 UNK         0.1400 
    106 CB        -4.2152  -23.7948  -56.7054 C.3       19 UNK        -0.1800 
    107 C         -5.5402  -21.7468  -57.5506 C.2       19 UNK         0.5000 
    108 O         -4.4545  -21.1977  -57.7520 O.2       19 UNK        -0.5000 
    109 N         -6.7292  -21.1571  -57.7508 N.am      20 UNK        -0.5000 
    110 CA        -6.9778  -19.7798  -58.1853 C.3       20 UNK         0.1400 
    111 CB        -6.5343  -19.5791  -59.6527 C.3       20 UNK        -0.1800 
    112 C         -6.3706  -18.7662  -57.1939 C.2       20 UNK         0.5000 
    113 O         -6.8877  -18.6286  -56.0845 O.2       20 UNK        -0.5000 
    114 N         -5.2842  -18.0955  -57.5962 N.am      21 UNK        -0.5000 
    115 CA        -4.5264  -17.1466  -56.7778 C.3       21 UNK         0.1400 
    116 CB        -3.6867  -16.2622  -57.7144 C.3       21 UNK        -0.1800 
    117 C         -3.6292  -17.8142  -55.7117 C.2       21 UNK         0.5000 
    118 O         -3.1086  -17.0997  -54.8565 O.2       21 UNK        -0.5000 
    119 N         -3.4672  -19.1421  -55.7938 N.am      22 UNK        -0.5000 
    120 CA        -2.5915  -20.0155  -54.9970 C.3       22 UNK         0.1400 
    121 C         -1.0879  -19.9223  -55.3914 C.2       22 UNK         0.5000 
    122 N         -0.3155  -20.9712  -55.1381 N.am      22 UNK        -0.7600 
    123 O         -0.6084  -18.9309  -55.9374 O.2       22 UNK        -0.5000 
    124 C124       -2.8850  -20.0063  -53.4601 C.3       23 UNK        -0.0398 
    125 S125       -1.9240  -18.8479  -52.4151 S.3       23 UNK        -0.2404 
    126 C126       -0.6431  -19.9524  -51.7320 C.3       23 UNK        -0.0205 
    127 H127       -0.7098  -17.6170  -49.5425 H         1 UNK         0.0600 
    128 H128       -1.3795  -17.2923  -47.9399 H         1 UNK         0.0600 
    129 H129       -2.2160  -16.7185  -49.3846 H         1 UNK         0.0600 
    130 H130        0.9733  -16.2472  -50.1196 H         1 UNK         0.3000 
    131 H131        0.8053  -13.4702  -50.0893 H         1 UNK         0.0600 
    132 H132        3.1759  -13.4687  -50.8333 H         1 UNK         0.0800 
    133 H133        3.3573  -15.1340  -50.3588 H         1 UNK         0.0800 
    134 H134        3.9913  -16.3101  -52.4786 H         1 UNK         0.0800 
    135 H135        2.8259  -16.7305  -53.7051 H         1 UNK         0.0800 
    136 H136        0.6411  -17.8651  -53.0192 H         1 UNK         0.1150 
    137 H137        1.0077  -20.5040  -49.6660 H         1 UNK         0.1150 
    138 H138        4.0109  -17.5439  -50.3902 H         1 UNK         0.1150 
    139 H139        3.1989  -20.6556  -48.5570 H         1 UNK         0.0800 
    140 H140        4.4428  -19.4914  -48.8973 H         1 UNK         0.0800 
    141 H141        0.7087  -18.6342  -47.8392 H         1 UNK         0.0800 
    142 H142        0.8716  -18.3286  -46.1418 H         1 UNK         0.0800 
    143 H143        1.1760  -21.0869  -47.4434 H         1 UNK         0.0600 
    144 H144        1.8608  -20.2681  -44.7896 H         1 UNK         0.3000 
    145 H145        1.1239  -22.6226  -42.9257 H         1 UNK         0.0600 
    146 H146        3.1749  -24.0171  -42.5186 H         1 UNK         0.0600 
    147 H147        2.1308  -24.6844  -43.7628 H         1 UNK         0.0600 
    148 H148        3.6079  -23.8546  -44.2211 H         1 UNK         0.0600 
    149 H149        2.2781  -20.8740  -42.2937 H         1 UNK         0.3000 
    150 H150        5.5291  -19.8545  -42.4101 H         1 UNK         0.0600 
    151 H151        4.9871  -18.6185  -44.5051 H         1 UNK         0.0600 
    152 H152        4.8089  -17.5648  -43.1103 H         1 UNK         0.0600 
    153 H153        3.3834  -18.2406  -43.8932 H         1 UNK         0.0600 
    154 H154        3.1548  -18.5433  -41.4594 H         1 UNK         0.3000 
    155 H155        2.8750  -20.3843  -38.4051 H         1 UNK         0.0600 
    156 H156        3.6748  -17.5033  -39.0877 H         1 UNK         0.0600 
    157 H157        4.5574  -18.5958  -38.0289 H         1 UNK         0.0600 
    158 H158        2.9529  -18.0441  -37.5733 H         1 UNK         0.0600 
    159 H159        1.4887  -18.2719  -39.9355 H         1 UNK         0.3000 
    160 H160       -1.2388  -20.3465  -40.8201 H         1 UNK         0.0600 
    161 H161       -2.6016  -18.7296  -39.5236 H         1 UNK         0.0600 
    162 H162       -1.1834  -18.2321  -38.6001 H         1 UNK         0.0600 
    163 H163       -1.8151  -19.8668  -38.4405 H         1 UNK         0.0600 
    164 H164       -0.7185  -17.4964  -40.9027 H         1 UNK         0.3000 
    165 H165        1.1070  -17.5306  -43.8853 H         1 UNK         0.0600 
    166 H166       -0.6875  -16.1960  -44.9402 H         1 UNK         0.0600 
    167 H167       -1.1655  -17.8805  -44.8877 H         1 UNK         0.0600 
    168 H168       -1.8479  -16.7525  -43.7321 H         1 UNK         0.0600 
    169 H169       -0.0921  -15.3120  -42.6459 H         1 UNK         0.3000 
    170 H170        1.6981  -14.8147  -39.8877 H         1 UNK         0.0600 
    171 H171        3.9676  -14.8731  -40.8826 H         1 UNK         0.0600 
    172 H172        3.4120  -13.9495  -42.2720 H         1 UNK         0.0600 
    173 H173        3.4251  -13.2175  -40.6711 H         1 UNK         0.0600 
    174 H174        1.0811  -13.1197  -42.2459 H         1 UNK         0.3000 
    175 H175       -2.2214  -12.5130  -41.2142 H         1 UNK         0.0600 
    176 H176       -1.6303  -10.1088  -41.0464 H         1 UNK         0.0600 
    177 H177       -1.1123  -10.9582  -39.5994 H         1 UNK         0.0600 
    178 H178        0.0722  -10.5150  -40.8228 H         1 UNK         0.0600 
    179 H179       -0.5922  -11.1636  -43.1174 H         1 UNK         0.3000 
    180 H180       -1.7763  -12.9538  -45.7989 H         1 UNK         0.0600 
    181 H181        0.1753  -10.7318  -44.9683 H         1 UNK         0.0600 
    182 H182       -1.5701  -10.5444  -45.1427 H         1 UNK         0.0600 
    183 H183       -0.5843  -10.9316  -46.5401 H         1 UNK         0.0600 
    184 H184        0.0536  -13.9020  -46.5763 H         1 UNK         0.3000 
    185 H185        3.4323  -13.5569  -46.0450 H         1 UNK         0.0600 
    186 H186        2.1687  -16.2311  -45.3011 H         1 UNK         0.0600 
    187 H187        3.8508  -15.9361  -45.7161 H         1 UNK         0.0600 
    188 H188        3.1994  -15.3057  -44.2142 H         1 UNK         0.0600 
    189 H189        1.9120  -15.5215  -47.5246 H         1 UNK         0.3000 
    190 H190       -0.7304  -20.4226  -44.5770 H         1 UNK         0.3000 
    191 H191       -3.2542  -19.9326  -45.7420 H         1 UNK         0.0600 
    192 H192       -2.4926  -21.1924  -43.0550 H         1 UNK         0.0600 
    193 H193       -4.1127  -20.6496  -43.4793 H         1 UNK         0.0600 
    194 H194       -2.8049  -19.4860  -43.3731 H         1 UNK         0.0600 
    195 H195       -1.5690  -23.0096  -45.1293 H         1 UNK         0.3000 
    196 H196       -3.8309  -24.7273  -45.6134 H         1 UNK         0.0600 
    197 H197       -2.0950  -26.5102  -45.7068 H         1 UNK         0.0600 
    198 H198       -1.8485  -25.4710  -44.3118 H         1 UNK         0.0600 
    199 H199       -0.8201  -25.2986  -45.7337 H         1 UNK         0.0600 
    200 H200       -1.2519  -23.3640  -47.6564 H         1 UNK         0.3000 
    201 H201       -2.0094  -24.7821  -50.0694 H         1 UNK         0.0600 
    202 H202        0.2993  -24.0205  -49.7748 H         1 UNK         0.0600 
    203 H203       -0.2234  -22.3527  -49.5770 H         1 UNK         0.0600 
    204 H204       -0.4022  -23.1551  -51.1345 H         1 UNK         0.0600 
    205 H205       -2.7296  -21.5586  -48.6746 H         1 UNK         0.3000 
    206 H206       -4.2898  -20.5854  -50.8522 H         1 UNK         0.0600 
    207 H207       -3.3425  -19.1294  -49.0746 H         1 UNK         0.0600 
    208 H208       -5.0829  -18.9157  -49.1973 H         1 UNK         0.0600 
    209 H209       -4.4085  -19.8643  -47.8781 H         1 UNK         0.0600 
    210 H210       -5.2061  -22.4261  -47.8979 H         1 UNK         0.3000 
    211 H211       -7.9948  -22.5275  -48.3653 H         1 UNK         0.0600 
    212 H212       -6.1610  -24.4507  -46.8403 H         1 UNK         0.0600 
    213 H213       -7.9163  -24.4213  -46.7214 H         1 UNK         0.0600 
    214 H214       -6.9825  -23.0394  -46.1742 H         1 UNK         0.0600 
    215 H215       -5.4006  -24.3603  -49.8445 H         1 UNK         0.3000 
    216 H216       -7.1066  -26.4182  -51.0116 H         1 UNK         0.0600 
    217 H217       -5.0385  -27.1278  -52.1267 H         1 UNK         0.0600 
    218 H218       -4.6975  -26.8216  -50.4313 H         1 UNK         0.0600 
    219 H219       -4.2140  -25.6509  -51.6568 H         1 UNK         0.0600 
    220 H220       -6.8649  -23.1585  -51.6373 H         1 UNK         0.3000 
    221 H221       -7.5734  -21.7839  -53.1724 H         1 UNK         0.0600 
    222 H222       -8.8002  -24.1940  -54.6244 H         1 UNK         0.0600 
    223 H223       -9.5791  -23.1819  -53.4171 H         1 UNK         0.0600 
    224 H224       -9.1323  -22.5006  -54.9698 H         1 UNK         0.0600 
    225 H225       -7.2945  -23.8589  -55.9226 H         1 UNK         0.3000 
    226 H226       -6.0679  -23.7930  -57.7753 H         1 UNK         0.0600 
    227 H227       -3.6663  -23.2275  -55.9543 H         1 UNK         0.0600 
    228 H228       -3.6032  -23.8172  -57.6077 H         1 UNK         0.0600 
    229 H229       -4.3046  -24.8206  -56.3478 H         1 UNK         0.0600 
    230 H230       -7.5559  -21.6855  -57.5111 H         1 UNK         0.3000 
    231 H231       -8.0581  -19.6314  -58.1482 H         1 UNK         0.0600 
    232 H232       -7.0731  -20.2571  -60.3147 H         1 UNK         0.0600 
    233 H233       -5.4690  -19.7602  -59.7981 H         1 UNK         0.0600 
    234 H234       -6.7489  -18.5648  -59.9918 H         1 UNK         0.0600 
    235 H235       -4.9126  -18.2950  -58.5138 H         1 UNK         0.3000 
    236 H236       -5.2342  -16.5046  -56.2491 H         1 UNK         0.0600 
    237 H237       -4.3163  -15.7368  -58.4327 H         1 UNK         0.0600 
    238 H238       -3.1382  -15.5057  -57.1517 H         1 UNK         0.0600 
    239 H239       -2.9558  -16.8495  -58.2718 H         1 UNK         0.0600 
    240 H240       -3.9322  -19.6209  -56.5576 H         1 UNK         0.3000 
    241 H241       -2.8965  -21.0031  -55.3437 H         1 UNK         0.0600 
    242 H242        0.6582  -20.9283  -55.3947 H         1 UNK         0.3800 
    243 H243       -0.6805  -21.8148  -54.7259 H         1 UNK         0.3800 
    244 H244       -3.9430  -19.8004  -53.2939 H         1 UNK         0.0800 
    245 H245       -2.7400  -21.0135  -53.0667 H         1 UNK         0.0800 
    246 H246       -0.4048  -20.7429  -52.4418 H         1 UNK         0.0800 
    247 H247       -1.0671  -20.4388  -50.8531 H         1 UNK         0.0800 
@<TRIPOS>BOND
     1    1    2 1    
     2    1  127 1    
     3    1  128 1    
     4    1  129 1    
     5    2    3 2    
     6    2    4 am   BACKBONE|DICT|INTERRES
     7    4    5 1    
     8    4  130 1    
     9    5    6 1    
    10    5   65 1    
    11    5  131 1    
    12    6    7 1    
    13    6  132 1    
    14    6  133 1    
    15    7    8 1    
    16    8    9 1    
    17    8  134 1    
    18    8  135 1    
    19    9   10 ar   
    20    9   14 ar   
    21   10   11 ar   
    22   10  136 1    
    23   11   12 ar   
    24   11  126 1    
    25   12   13 ar   
    26   12  137 1    
    27   13   14 ar   
    28   13   15 1    
    29   14  138 1    
    30   15   16 1    
    31   15  139 1    
    32   15  140 1    
    33   16   17 1    
    34   17   18 1    
    35   17  141 1    
    36   17  142 1    
    37   18   19 1    
    38   18   67 1    
    39   18  143 1    
    40   19   20 am   BACKBONE|DICT|INTERRES
    41   19  144 1    
    42   20   21 2    
    43   20   22 1    
    44   22   23 1    
    45   22   24 1    
    46   22  145 1    
    47   23  146 1    
    48   23  147 1    
    49   23  148 1    
    50   24   25 am   BACKBONE|DICT|INTERRES
    51   24  149 1    
    52   25   26 2    
    53   25   27 1    
    54   27   28 1    
    55   27   29 1    
    56   27  150 1    
    57   28  151 1    
    58   28  152 1    
    59   28  153 1    
    60   29   30 am   BACKBONE|DICT|INTERRES
    61   29  154 1    
    62   30   31 2    
    63   30   32 1    
    64   32   33 1    
    65   32   34 1    
    66   32  155 1    
    67   33  156 1    
    68   33  157 1    
    69   33  158 1    
    70   34   35 am   BACKBONE|DICT|INTERRES
    71   34  159 1    
    72   35   36 2    
    73   35   37 1    
    74   37   38 1    
    75   37   39 1    
    76   37  160 1    
    77   38  161 1    
    78   38  162 1    
    79   38  163 1    
    80   39   40 am   BACKBONE|DICT|INTERRES
    81   39  164 1    
    82   40   41 2    
    83   40   42 1    
    84   42   43 1    
    85   42   44 1    
    86   42  165 1    
    87   43  166 1    
    88   43  167 1    
    89   43  168 1    
    90   44   45 am   BACKBONE|DICT|INTERRES
    91   44  169 1    
    92   45   46 2    
    93   45   47 1    
    94   47   48 1    
    95   47   49 1    
    96   47  170 1    
    97   48  171 1    
    98   48  172 1    
    99   48  173 1    
   100   49   50 am   BACKBONE|DICT|INTERRES
   101   49  174 1    
   102   50   51 2    
   103   50   52 1    
   104   52   53 1    
   105   52   54 1    
   106   52  175 1    
   107   53  176 1    
   108   53  177 1    
   109   53  178 1    
   110   54   55 am   BACKBONE|DICT|INTERRES
   111   54  179 1    
   112   55   56 2    
   113   55   57 1    
   114   57   58 1    
   115   57   59 1    
   116   57  180 1    
   117   58  181 1    
   118   58  182 1    
   119   58  183 1    
   120   59   60 am   BACKBONE|DICT|INTERRES
   121   59  184 1    
   122   60   61 2    
   123   60   62 1    
   124   62   63 1    
   125   62   64 1    
   126   62  185 1    
   127   63  186 1    
   128   63  187 1    
   129   63  188 1    
   130   64   65 am   BACKBONE|DICT|INTERRES
   131   64  189 1    
   132   65   66 2    
   133   67   68 2    
   134   67   69 am   BACKBONE|DICT|INTERRES
   135   69   70 1    
   136   69  190 1    
   137   70   71 1    
   138   70   72 1    
   139   70  191 1    
   140   71  192 1    
   141   71  193 1    
   142   71  194 1    
   143   72   73 2    
   144   72   74 am   BACKBONE|DICT|INTERRES
   145   74   75 1    
   146   74  195 1    
   147   75   76 1    
   148   75   77 1    
   149   75  196 1    
   150   76  197 1    
   151   76  198 1    
   152   76  199 1    
   153   77   78 2    
   154   77   79 am   BACKBONE|DICT|INTERRES
   155   79   80 1    
   156   79  200 1    
   157   80   81 1    
   158   80   82 1    
   159   80  201 1    
   160   81  202 1    
   161   81  203 1    
   162   81  204 1    
   163   82   83 2    
   164   82   84 am   BACKBONE|DICT|INTERRES
   165   84   85 1    
   166   84  205 1    
   167   85   86 1    
   168   85   87 1    
   169   85  206 1    
   170   86  207 1    
   171   86  208 1    
   172   86  209 1    
   173   87   88 2    
   174   87   89 am   BACKBONE|DICT|INTERRES
   175   89   90 1    
   176   89  210 1    
   177   90   91 1    
   178   90   92 1    
   179   90  211 1    
   180   91  212 1    
   181   91  213 1    
   182   91  214 1    
   183   92   93 2    
   184   92   94 am   BACKBONE|DICT|INTERRES
   185   94   95 1    
   186   94  215 1    
   187   95   96 1    
   188   95   97 1    
   189   95  216 1    
   190   96  217 1    
   191   96  218 1    
   192   96  219 1    
   193   97   98 2    
   194   97   99 am   BACKBONE|DICT|INTERRES
   195   99  100 1    
   196   99  220 1    
   197  100  101 1    
   198  100  102 1    
   199  100  221 1    
   200  101  222 1    
   201  101  223 1    
   202  101  224 1    
   203  102  103 2    
   204  102  104 am   BACKBONE|DICT|INTERRES
   205  104  105 1    
   206  104  225 1    
   207  105  106 1    
   208  105  107 1    
   209  105  226 1    
   210  106  227 1    
   211  106  228 1    
   212  106  229 1    
   213  107  108 2    
   214  107  109 am   BACKBONE|DICT|INTERRES
   215  109  110 1    
   216  109  230 1    
   217  110  111 1    
   218  110  112 1    
   219  110  231 1    
   220  111  232 1    
   221  111  233 1    
   222  111  234 1    
   223  112  113 2    
   224  112  114 am   BACKBONE|DICT|INTERRES
   225  114  115 1    
   226  114  235 1    
   227  115  116 1    
   228  115  117 1    
   229  115  236 1    
   230  116  237 1    
   231  116  238 1    
   232  116  239 1    
   233  117  118 2    
   234  117  119 am   BACKBONE|DICT|INTERRES
   235  119  120 1    
   236  119  240 1    
   237  120  121 1    
   238  120  124 1    
   239  120  241 1    
   240  121  122 am   BACKBONE|DICT|INTERRES
   241  121  123 2    
   242  122  242 1    
   243  122  243 1    
   244  124  125 1    
   245  124  244 1    
   246  124  245 1    
   247  125  126 1    
   248  126  246 1    
   249  126  247 1    
@<TRIPOS>SUBSTRUCTURE
     1 UNK         1 GROUP             0       ****    0 ROOT    
