@<TRIPOS>MOLECULE
3R540
247   249    1
SMALL
USER_CHARGES


@<TRIPOS>ATOM
      1 CA         -4.1429  -17.7950  -45.5559 C.3       0 UNK        -0.1800 
      2 C          -3.0880  -16.7369  -45.2796 C.2       0 UNK         0.5000 
      3 O          -3.2599  -15.9217  -44.3739 O.2       0 UNK        -0.5000 
      4 N          -1.9818  -16.7600  -46.0326 N.am      1 UNK        -0.5000 
      5 CA         -0.8345  -15.8603  -45.8592 C.3       1 UNK         0.1400 
      6 C6          0.1860  -15.9891  -47.0119 C.3       23 UNK        -0.0398 
      7 S7         -0.4679  -15.4764  -48.6409 S.3       23 UNK        -0.2404 
      8 C8         -0.9696  -17.0577  -49.4220 C.3       23 UNK        -0.0205 
      9 C9          0.1464  -17.9959  -49.8953 C.ar      23 UNK        -0.0193 
     10 C10        -0.2047  -19.1154  -50.6594 C.ar      23 UNK        -0.1150 
     11 C11         0.7628  -20.0393  -51.0718 C.ar      23 UNK        -0.0193 
     12 C12         2.0888  -19.8684  -50.6701 C.ar      23 UNK        -0.1150 
     13 C13         2.4502  -18.7755  -49.8829 C.ar      23 UNK        -0.0193 
     14 C14         1.4918  -17.8130  -49.5563 C.ar      23 UNK        -0.1150 
     15 C15         3.8548  -18.6716  -49.3097 C.3       23 UNK        -0.0205 
     16 S16         4.1030  -19.8176  -47.9044 S.3       23 UNK        -0.2404 
     17 C17         2.6548  -19.4893  -46.8336 C.3       23 UNK        -0.0398 
     18 CA          1.7971  -20.7585  -46.5962 C.3       11 UNK         0.1400 
     19 N           2.4679  -21.6336  -45.6297 N.am      11 UNK        -0.5000 
     20 C           2.3926  -22.9682  -45.5775 C.2       10 UNK         0.5000 
     21 O           1.6647  -23.6310  -46.3168 O.2       10 UNK        -0.5000 
     22 CA          3.2586  -23.6853  -44.5210 C.3       10 UNK         0.1400 
     23 CB          4.5494  -24.2150  -45.1638 C.3       10 UNK        -0.1800 
     24 N           3.6150  -22.8369  -43.3810 N.am      10 UNK        -0.5000 
     25 C           2.7659  -22.4633  -42.4141 C.2       9 UNK         0.5000 
     26 O           1.5939  -22.8357  -42.3574 O.2       9 UNK        -0.5000 
     27 CA          3.3079  -21.5067  -41.3294 C.3       9 UNK         0.1400 
     28 CB          3.7580  -22.3047  -40.0961 C.3       9 UNK        -0.1800 
     29 N           4.4046  -20.6223  -41.7476 N.am      9 UNK        -0.5000 
     30 C           4.3720  -19.7656  -42.7774 C.2       8 UNK         0.5000 
     31 O           3.4394  -19.7055  -43.5772 O.2       8 UNK        -0.5000 
     32 CA          5.6131  -18.8706  -42.9671 C.3       8 UNK         0.1400 
     33 CB          6.7860  -19.7001  -43.5154 C.3       8 UNK        -0.1800 
     34 N           5.3803  -17.7482  -43.8806 N.am      8 UNK        -0.5000 
     35 C           4.5524  -16.7177  -43.6643 C.2       7 UNK         0.5000 
     36 O           3.9080  -16.5546  -42.6240 O.2       7 UNK        -0.5000 
     37 CA          4.4458  -15.6905  -44.8051 C.3       7 UNK         0.1400 
     38 CB          3.9041  -16.3197  -46.1009 C.3       7 UNK        -0.1800 
     39 N           3.5670  -14.5994  -44.4032 N.am      7 UNK        -0.5000 
     40 C           3.5984  -13.3506  -44.8822 C.2       6 UNK         0.5000 
     41 O           4.4111  -12.9647  -45.7235 O.2       6 UNK        -0.5000 
     42 CA          2.5413  -12.3650  -44.3505 C.3       6 UNK         0.1400 
     43 CB          1.4778  -12.0895  -45.4263 C.3       6 UNK        -0.1800 
     44 N           1.8648  -12.8732  -43.1598 N.am      6 UNK        -0.5000 
     45 C           2.2318  -12.6414  -41.8940 C.2       5 UNK         0.5000 
     46 O           3.1996  -11.9457  -41.5811 O.2       5 UNK        -0.5000 
     47 CA          1.3659  -13.3115  -40.8050 C.3       5 UNK         0.1400 
     48 CB          1.4615  -12.6105  -39.4341 C.3       5 UNK        -0.1800 
     49 N          -0.0321  -13.4821  -41.2177 N.am      5 UNK        -0.5000 
     50 C          -0.9282  -12.5259  -41.5114 C.2       4 UNK         0.5000 
     51 O          -0.7099  -11.3199  -41.3908 O.2       4 UNK        -0.5000 
     52 CA         -2.2955  -12.9853  -42.0633 C.3       4 UNK         0.1400 
     53 CB         -2.4183  -12.6197  -43.5514 C.3       4 UNK        -0.1800 
     54 N          -2.5313  -14.4226  -41.9173 N.am      4 UNK        -0.5000 
     55 C          -2.8043  -15.0460  -40.7636 C.2       3 UNK         0.5000 
     56 O          -2.9795  -14.4630  -39.6934 O.2       3 UNK        -0.5000 
     57 CA         -2.8366  -16.5841  -40.8090 C.3       3 UNK         0.1400 
     58 CB         -4.2400  -17.0949  -41.1697 C.3       3 UNK        -0.1800 
     59 N          -1.8587  -17.1369  -41.7498 N.am      3 UNK        -0.5000 
     60 C          -0.5295  -17.1160  -41.5713 C.2       2 UNK         0.5000 
     61 O           0.0224  -16.6156  -40.5921 O.2       2 UNK        -0.5000 
     62 CA          0.3222  -17.7412  -42.6909 C.3       2 UNK         0.1400 
     63 CB          0.2671  -19.2724  -42.5795 C.3       2 UNK        -0.1800 
     64 N          -0.1151  -17.3358  -44.0274 N.am      2 UNK        -0.5000 
     65 C          -0.1485  -16.0781  -44.4915 C.2       1 UNK         0.5000 
     66 O           0.2834  -15.1087  -43.8680 O.2       1 UNK        -0.5000 
     67 C           0.3463  -20.4496  -46.1469 C.2       11 UNK         0.5000 
     68 O          -0.0727  -19.2921  -46.1134 O.2       11 UNK        -0.5000 
     69 N          -0.3997  -21.4925  -45.7665 N.am      12 UNK        -0.5000 
     70 CA         -1.7307  -21.3934  -45.1641 C.3       12 UNK         0.1400 
     71 CB         -1.8806  -22.5334  -44.1443 C.3       12 UNK        -0.1800 
     72 C          -2.8862  -21.4165  -46.1831 C.2       12 UNK         0.5000 
     73 O          -4.0350  -21.2277  -45.7817 O.2       12 UNK        -0.5000 
     74 N          -2.5899  -21.6715  -47.4638 N.am      13 UNK        -0.5000 
     75 CA         -3.5847  -21.7708  -48.5312 C.3       13 UNK         0.1400 
     76 CB         -2.9438  -22.4339  -49.7568 C.3       13 UNK        -0.1800 
     77 C          -4.1743  -20.4005  -48.9104 C.2       13 UNK         0.5000 
     78 O          -3.4224  -19.4491  -49.1260 O.2       13 UNK        -0.5000 
     79 N          -5.5031  -20.3464  -49.0256 N.am      14 UNK        -0.5000 
     80 CA         -6.2967  -19.2086  -49.4782 C.3       14 UNK         0.1400 
     81 CB         -6.3171  -18.1014  -48.4080 C.3       14 UNK        -0.1800 
     82 C          -7.7212  -19.7257  -49.7626 C.2       14 UNK         0.5000 
     83 O          -8.1227  -20.7126  -49.1419 O.2       14 UNK        -0.5000 
     84 N          -8.5105  -19.1042  -50.6501 N.am      15 UNK        -0.5000 
     85 CA         -8.1871  -17.9829  -51.5373 C.3       15 UNK         0.1400 
     86 CB         -9.5074  -17.2970  -51.9369 C.3       15 UNK        -0.1800 
     87 C          -7.3676  -18.4335  -52.7677 C.2       15 UNK         0.5000 
     88 O          -6.7724  -19.5132  -52.7487 O.2       15 UNK        -0.5000 
     89 N          -7.3430  -17.5992  -53.8168 N.am      16 UNK        -0.5000 
     90 CA         -6.5625  -17.7740  -55.0482 C.3       16 UNK         0.1400 
     91 CB         -6.8862  -16.6255  -56.0153 C.3       16 UNK        -0.1800 
     92 C          -6.7512  -19.1329  -55.7506 C.2       16 UNK         0.5000 
     93 O          -5.7829  -19.6833  -56.2732 O.2       16 UNK        -0.5000 
     94 N          -7.9803  -19.6656  -55.7137 N.am      17 UNK        -0.5000 
     95 CA         -8.3380  -20.9720  -56.2696 C.3       17 UNK         0.1400 
     96 CB         -9.8661  -21.1263  -56.2451 C.3       17 UNK        -0.1800 
     97 C          -7.6645  -22.1535  -55.5439 C.2       17 UNK         0.5000 
     98 O          -7.3474  -23.1541  -56.1876 O.2       17 UNK        -0.5000 
     99 N          -7.4451  -22.0145  -54.2292 N.am      18 UNK        -0.5000 
    100 CA        -6.7288  -22.9906  -53.4103 C.3       18 UNK         0.1400 
    101 CB        -7.2206  -22.9123  -51.9581 C.3       18 UNK        -0.1800 
    102 C         -5.2148  -22.7506  -53.4781 C.2       18 UNK         0.5000 
    103 O         -4.4536  -23.7069  -53.6206 O.2       18 UNK        -0.5000 
    104 N         -4.8021  -21.4770  -53.4074 N.am      19 UNK        -0.5000 
    105 CA        -3.4047  -21.0398  -53.4444 C.3       19 UNK         0.1400 
    106 CB        -3.3310  -19.5416  -53.1218 C.3       19 UNK        -0.1800 
    107 C         -2.6762  -21.3581  -54.7652 C.2       19 UNK         0.5000 
    108 O         -1.4523  -21.4832  -54.7596 O.2       19 UNK        -0.5000 
    109 N         -3.4316  -21.5283  -55.8594 N.am      20 UNK        -0.5000 
    110 CA        -2.9403  -22.0167  -57.1495 C.3       20 UNK         0.1400 
    111 CB        -4.0787  -21.9528  -58.1792 C.3       20 UNK        -0.1800 
    112 C         -2.3562  -23.4436  -57.0800 C.2       20 UNK         0.5000 
    113 O         -1.4102  -23.7430  -57.8099 O.2       20 UNK        -0.5000 
    114 N         -2.9137  -24.2850  -56.1983 N.am      21 UNK        -0.5000 
    115 CA        -2.3979  -25.6165  -55.8815 C.3       21 UNK         0.1400 
    116 CB        -3.5775  -26.5716  -55.6390 C.3       21 UNK        -0.1800 
    117 C         -1.4761  -25.5678  -54.6504 C.2       21 UNK         0.5000 
    118 O         -0.4245  -26.2082  -54.6508 O.2       21 UNK        -0.5000 
    119 N         -1.8876  -24.8007  -53.6319 N.am      22 UNK        -0.5000 
    120 CA        -1.2117  -24.6194  -52.3377 C.3       22 UNK         0.1400 
    121 C         -1.2456  -25.8753  -51.4106 C.2       22 UNK         0.5000 
    122 N         -2.1524  -26.8218  -51.6235 N.am      22 UNK        -0.7600 
    123 O         -0.4626  -25.9940  -50.4728 O.2       22 UNK        -0.5000 
    124 C124        0.1970  -23.9730  -52.4774 C.3       23 UNK        -0.0398 
    125 S125        0.5875  -22.8158  -51.1158 S.3       23 UNK        -0.2404 
    126 C126        0.3881  -21.2156  -51.9590 C.3       23 UNK        -0.0205 
    127 H127       -5.1093  -17.3226  -45.7292 H         1 UNK         0.0600 
    128 H128       -4.2381  -18.4629  -44.6999 H         1 UNK         0.0600 
    129 H129       -3.8918  -18.3958  -46.4300 H         1 UNK         0.0600 
    130 H130       -1.8712  -17.4782  -46.7342 H         1 UNK         0.3000 
    131 H131       -1.2169  -14.8376  -45.8632 H         1 UNK         0.0600 
    132 H132        0.5540  -17.0099  -47.0691 H         1 UNK         0.0800 
    133 H133        1.0569  -15.3615  -46.8144 H         1 UNK         0.0800 
    134 H134       -1.6040  -17.6038  -48.7250 H         1 UNK         0.0800 
    135 H135       -1.6009  -16.8156  -50.2781 H         1 UNK         0.0800 
    136 H136       -1.2402  -19.2672  -50.9298 H         1 UNK         0.1150 
    137 H137        2.8323  -20.6047  -50.9420 H         1 UNK         0.1150 
    138 H138        1.8010  -16.9626  -48.9693 H         1 UNK         0.1150 
    139 H139        4.5861  -18.8961  -50.0873 H         1 UNK         0.0800 
    140 H140        4.0615  -17.6522  -48.9804 H         1 UNK         0.0800 
    141 H141        2.0658  -18.6873  -47.2587 H         1 UNK         0.0800 
    142 H142        3.0123  -19.0842  -45.8912 H         1 UNK         0.0800 
    143 H143        1.7041  -21.2828  -47.5501 H         1 UNK         0.0600 
    144 H144        3.0135  -21.1518  -44.9228 H         1 UNK         0.3000 
    145 H145        2.6864  -24.5387  -44.1509 H         1 UNK         0.0600 
    146 H146        4.3257  -24.8769  -46.0016 H         1 UNK         0.0600 
    147 H147        5.1716  -23.4036  -45.5439 H         1 UNK         0.0600 
    148 H148        5.1412  -24.7869  -44.4488 H         1 UNK         0.0600 
    149 H149        4.5604  -22.4854  -43.3505 H         1 UNK         0.3000 
    150 H150        2.4792  -20.8657  -41.0272 H         1 UNK         0.0600 
    151 H151        4.6185  -22.9368  -40.3192 H         1 UNK         0.0600 
    152 H152        2.9586  -22.9537  -39.7357 H         1 UNK         0.0600 
    153 H153        4.0303  -21.6426  -39.2740 H         1 UNK         0.0600 
    154 H154        5.2226  -20.6297  -41.1556 H         1 UNK         0.3000 
    155 H155        5.8903  -18.4627  -41.9930 H         1 UNK         0.0600 
    156 H156        6.5516  -20.1308  -44.4901 H         1 UNK         0.0600 
    157 H157        7.0393  -20.5228  -42.8457 H         1 UNK         0.0600 
    158 H158        7.6829  -19.0902  -43.6257 H         1 UNK         0.0600 
    159 H159        5.8499  -17.8073  -44.7716 H         1 UNK         0.3000 
    160 H160        5.4487  -15.2972  -44.9841 H         1 UNK         0.0600 
    161 H161        2.9076  -16.7315  -45.9462 H         1 UNK         0.0600 
    162 H162        4.5504  -17.1227  -46.4542 H         1 UNK         0.0600 
    163 H163        3.8402  -15.5863  -46.9047 H         1 UNK         0.0600 
    164 H164        2.9091  -14.8337  -43.6705 H         1 UNK         0.3000 
    165 H165        3.0466  -11.4256  -44.1173 H         1 UNK         0.0600 
    166 H166        1.9303  -11.6767  -46.3288 H         1 UNK         0.0600 
    167 H167        0.9469  -12.9986  -45.7109 H         1 UNK         0.0600 
    168 H168        0.7396  -11.3687  -45.0739 H         1 UNK         0.0600 
    169 H169        1.0963  -13.5189  -43.3269 H         1 UNK         0.3000 
    170 H170        1.7665  -14.3192  -40.6853 H         1 UNK         0.0600 
    171 H171        2.4848  -12.6282  -39.0575 H         1 UNK         0.0600 
    172 H172        1.1528  -11.5663  -39.4882 H         1 UNK         0.0600 
    173 H173        0.8358  -13.1084  -38.6934 H         1 UNK         0.0600 
    174 H174       -0.3162  -14.4417  -41.3651 H         1 UNK         0.3000 
    175 H175       -3.0709  -12.4498  -41.5120 H         1 UNK         0.0600 
    176 H176       -3.3872  -12.9169  -43.9535 H         1 UNK         0.0600 
    177 H177       -2.3203  -11.5437  -43.7003 H         1 UNK         0.0600 
    178 H178       -1.6452  -13.1038  -44.1483 H         1 UNK         0.0600 
    179 H179       -2.4823  -14.9793  -42.7650 H         1 UNK         0.3000 
    180 H180       -2.5895  -16.9501  -39.8102 H         1 UNK         0.0600 
    181 H181       -4.5500  -16.7648  -42.1615 H         1 UNK         0.0600 
    182 H182       -4.9811  -16.7299  -40.4577 H         1 UNK         0.0600 
    183 H183       -4.2806  -18.1841  -41.1506 H         1 UNK         0.0600 
    184 H184       -2.2253  -17.5194  -42.6084 H         1 UNK         0.3000 
    185 H185        1.3561  -17.4177  -42.5602 H         1 UNK         0.0600 
    186 H186        0.8838  -19.7530  -43.3363 H         1 UNK         0.0600 
    187 H187        0.6297  -19.6011  -41.6060 H         1 UNK         0.0600 
    188 H188       -0.7487  -19.6516  -42.6887 H         1 UNK         0.0600 
    189 H189       -0.4008  -18.0778  -44.6595 H         1 UNK         0.3000 
    190 H190        0.0092  -22.4178  -45.8335 H         1 UNK         0.3000 
    191 H191       -1.8143  -20.4492  -44.6234 H         1 UNK         0.0600 
    192 H192       -1.8136  -23.5115  -44.6222 H         1 UNK         0.0600 
    193 H193       -2.8423  -22.4815  -43.6323 H         1 UNK         0.0600 
    194 H194       -1.1050  -22.4802  -43.3796 H         1 UNK         0.0600 
    195 H195       -1.6216  -21.7767  -47.7258 H         1 UNK         0.3000 
    196 H196       -4.3905  -22.4202  -48.1816 H         1 UNK         0.0600 
    197 H197       -3.6825  -22.5914  -50.5436 H         1 UNK         0.0600 
    198 H198       -2.5237  -23.4076  -49.5040 H         1 UNK         0.0600 
    199 H199       -2.1446  -21.8183  -50.1708 H         1 UNK         0.0600 
    200 H200       -6.0653  -21.1662  -48.8301 H         1 UNK         0.3000 
    201 H201       -5.8425  -18.8249  -50.3912 H         1 UNK         0.0600 
    202 H202       -7.0035  -17.2985  -48.6771 H         1 UNK         0.0600 
    203 H203       -6.6325  -18.4896  -47.4390 H         1 UNK         0.0600 
    204 H204       -5.3322  -17.6510  -48.2887 H         1 UNK         0.0600 
    205 H205       -9.4273  -19.4984  -50.7955 H         1 UNK         0.3000 
    206 H206       -7.5845  -17.2548  -50.9932 H         1 UNK         0.0600 
    207 H207      -10.0985  -17.0424  -51.0566 H         1 UNK         0.0600 
    208 H208       -9.3324  -16.3647  -52.4746 H         1 UNK         0.0600 
    209 H209      -10.1194  -17.9385  -52.5726 H         1 UNK         0.0600 
    210 H210       -7.8691  -16.7399  -53.7521 H         1 UNK         0.3000 
    211 H211       -5.5101  -17.6910  -54.7767 H         1 UNK         0.0600 
    212 H212       -7.9412  -16.6171  -56.2918 H         1 UNK         0.0600 
    213 H213       -6.3063  -16.7134  -56.9353 H         1 UNK         0.0600 
    214 H214       -6.6462  -15.6578  -55.5745 H         1 UNK         0.0600 
    215 H215       -8.7152  -19.1461  -55.2572 H         1 UNK         0.3000 
    216 H216       -8.0087  -20.9953  -57.3107 H         1 UNK         0.0600 
    217 H217      -10.1689  -22.0821  -56.6750 H         1 UNK         0.0600 
    218 H218      -10.3514  -20.3421  -56.8263 H         1 UNK         0.0600 
    219 H219      -10.2589  -21.0843  -55.2285 H         1 UNK         0.0600 
    220 H220       -7.6678  -21.1315  -53.7870 H         1 UNK         0.3000 
    221 H221       -6.9311  -23.9981  -53.7802 H         1 UNK         0.0600 
    222 H222       -7.0065  -21.9418  -51.5128 H         1 UNK         0.0600 
    223 H223       -8.2956  -23.0806  -51.8943 H         1 UNK         0.0600 
    224 H224       -6.7342  -23.6687  -51.3410 H         1 UNK         0.0600 
    225 H225       -5.5000  -20.7500  -53.2688 H         1 UNK         0.3000 
    226 H226       -2.8814  -21.5809  -52.6556 H         1 UNK         0.0600 
    227 H227       -2.2978  -19.1934  -53.1086 H         1 UNK         0.0600 
    228 H228       -3.8628  -18.9503  -53.8648 H         1 UNK         0.0600 
    229 H229       -3.7622  -19.3248  -52.1440 H         1 UNK         0.0600 
    230 H230       -4.4184  -21.3072  -55.8033 H         1 UNK         0.3000 
    231 H231       -2.1418  -21.3484  -57.4778 H         1 UNK         0.0600 
    232 H232       -4.9348  -22.5538  -57.8697 H         1 UNK         0.0600 
    233 H233       -3.7499  -22.3224  -59.1513 H         1 UNK         0.0600 
    234 H234       -4.4229  -20.9285  -58.3226 H         1 UNK         0.0600 
    235 H235       -3.6657  -23.9434  -55.6132 H         1 UNK         0.3000 
    236 H236       -1.8191  -26.0058  -56.7218 H         1 UNK         0.0600 
    237 H237       -3.2239  -27.5745  -55.3963 H         1 UNK         0.0600 
    238 H238       -4.2103  -26.2369  -54.8162 H         1 UNK         0.0600 
    239 H239       -4.2034  -26.6541  -56.5277 H         1 UNK         0.0600 
    240 H240       -2.8016  -24.3579  -53.7023 H         1 UNK         0.3000 
    241 H241       -1.8487  -23.8962  -51.8324 H         1 UNK         0.0600 
    242 H242       -2.1765  -27.6288  -51.0201 H         1 UNK         0.3800 
    243 H243       -2.8142  -26.7393  -52.3781 H         1 UNK         0.3800 
    244 H244        0.2672  -23.4257  -53.4185 H         1 UNK         0.0800 
    245 H245        0.9740  -24.7371  -52.5315 H         1 UNK         0.0800 
    246 H246        1.0080  -21.1932  -52.8564 H         1 UNK         0.0800 
    247 H247       -0.6432  -21.1207  -52.2913 H         1 UNK         0.0800 
@<TRIPOS>BOND
     1    1    2 1    
     2    1  127 1    
     3    1  128 1    
     4    1  129 1    
     5    2    3 2    
     6    2    4 am   BACKBONE|DICT|INTERRES
     7    4    5 1    
     8    4  130 1    
     9    5    6 1    
    10    5   65 1    
    11    5  131 1    
    12    6    7 1    
    13    6  132 1    
    14    6  133 1    
    15    7    8 1    
    16    8    9 1    
    17    8  134 1    
    18    8  135 1    
    19    9   10 ar   
    20    9   14 ar   
    21   10   11 ar   
    22   10  136 1    
    23   11   12 ar   
    24   11  126 1    
    25   12   13 ar   
    26   12  137 1    
    27   13   14 ar   
    28   13   15 1    
    29   14  138 1    
    30   15   16 1    
    31   15  139 1    
    32   15  140 1    
    33   16   17 1    
    34   17   18 1    
    35   17  141 1    
    36   17  142 1    
    37   18   19 1    
    38   18   67 1    
    39   18  143 1    
    40   19   20 am   BACKBONE|DICT|INTERRES
    41   19  144 1    
    42   20   21 2    
    43   20   22 1    
    44   22   23 1    
    45   22   24 1    
    46   22  145 1    
    47   23  146 1    
    48   23  147 1    
    49   23  148 1    
    50   24   25 am   BACKBONE|DICT|INTERRES
    51   24  149 1    
    52   25   26 2    
    53   25   27 1    
    54   27   28 1    
    55   27   29 1    
    56   27  150 1    
    57   28  151 1    
    58   28  152 1    
    59   28  153 1    
    60   29   30 am   BACKBONE|DICT|INTERRES
    61   29  154 1    
    62   30   31 2    
    63   30   32 1    
    64   32   33 1    
    65   32   34 1    
    66   32  155 1    
    67   33  156 1    
    68   33  157 1    
    69   33  158 1    
    70   34   35 am   BACKBONE|DICT|INTERRES
    71   34  159 1    
    72   35   36 2    
    73   35   37 1    
    74   37   38 1    
    75   37   39 1    
    76   37  160 1    
    77   38  161 1    
    78   38  162 1    
    79   38  163 1    
    80   39   40 am   BACKBONE|DICT|INTERRES
    81   39  164 1    
    82   40   41 2    
    83   40   42 1    
    84   42   43 1    
    85   42   44 1    
    86   42  165 1    
    87   43  166 1    
    88   43  167 1    
    89   43  168 1    
    90   44   45 am   BACKBONE|DICT|INTERRES
    91   44  169 1    
    92   45   46 2    
    93   45   47 1    
    94   47   48 1    
    95   47   49 1    
    96   47  170 1    
    97   48  171 1    
    98   48  172 1    
    99   48  173 1    
   100   49   50 am   BACKBONE|DICT|INTERRES
   101   49  174 1    
   102   50   51 2    
   103   50   52 1    
   104   52   53 1    
   105   52   54 1    
   106   52  175 1    
   107   53  176 1    
   108   53  177 1    
   109   53  178 1    
   110   54   55 am   BACKBONE|DICT|INTERRES
   111   54  179 1    
   112   55   56 2    
   113   55   57 1    
   114   57   58 1    
   115   57   59 1    
   116   57  180 1    
   117   58  181 1    
   118   58  182 1    
   119   58  183 1    
   120   59   60 am   BACKBONE|DICT|INTERRES
   121   59  184 1    
   122   60   61 2    
   123   60   62 1    
   124   62   63 1    
   125   62   64 1    
   126   62  185 1    
   127   63  186 1    
   128   63  187 1    
   129   63  188 1    
   130   64   65 am   BACKBONE|DICT|INTERRES
   131   64  189 1    
   132   65   66 2    
   133   67   68 2    
   134   67   69 am   BACKBONE|DICT|INTERRES
   135   69   70 1    
   136   69  190 1    
   137   70   71 1    
   138   70   72 1    
   139   70  191 1    
   140   71  192 1    
   141   71  193 1    
   142   71  194 1    
   143   72   73 2    
   144   72   74 am   BACKBONE|DICT|INTERRES
   145   74   75 1    
   146   74  195 1    
   147   75   76 1    
   148   75   77 1    
   149   75  196 1    
   150   76  197 1    
   151   76  198 1    
   152   76  199 1    
   153   77   78 2    
   154   77   79 am   BACKBONE|DICT|INTERRES
   155   79   80 1    
   156   79  200 1    
   157   80   81 1    
   158   80   82 1    
   159   80  201 1    
   160   81  202 1    
   161   81  203 1    
   162   81  204 1    
   163   82   83 2    
   164   82   84 am   BACKBONE|DICT|INTERRES
   165   84   85 1    
   166   84  205 1    
   167   85   86 1    
   168   85   87 1    
   169   85  206 1    
   170   86  207 1    
   171   86  208 1    
   172   86  209 1    
   173   87   88 2    
   174   87   89 am   BACKBONE|DICT|INTERRES
   175   89   90 1    
   176   89  210 1    
   177   90   91 1    
   178   90   92 1    
   179   90  211 1    
   180   91  212 1    
   181   91  213 1    
   182   91  214 1    
   183   92   93 2    
   184   92   94 am   BACKBONE|DICT|INTERRES
   185   94   95 1    
   186   94  215 1    
   187   95   96 1    
   188   95   97 1    
   189   95  216 1    
   190   96  217 1    
   191   96  218 1    
   192   96  219 1    
   193   97   98 2    
   194   97   99 am   BACKBONE|DICT|INTERRES
   195   99  100 1    
   196   99  220 1    
   197  100  101 1    
   198  100  102 1    
   199  100  221 1    
   200  101  222 1    
   201  101  223 1    
   202  101  224 1    
   203  102  103 2    
   204  102  104 am   BACKBONE|DICT|INTERRES
   205  104  105 1    
   206  104  225 1    
   207  105  106 1    
   208  105  107 1    
   209  105  226 1    
   210  106  227 1    
   211  106  228 1    
   212  106  229 1    
   213  107  108 2    
   214  107  109 am   BACKBONE|DICT|INTERRES
   215  109  110 1    
   216  109  230 1    
   217  110  111 1    
   218  110  112 1    
   219  110  231 1    
   220  111  232 1    
   221  111  233 1    
   222  111  234 1    
   223  112  113 2    
   224  112  114 am   BACKBONE|DICT|INTERRES
   225  114  115 1    
   226  114  235 1    
   227  115  116 1    
   228  115  117 1    
   229  115  236 1    
   230  116  237 1    
   231  116  238 1    
   232  116  239 1    
   233  117  118 2    
   234  117  119 am   BACKBONE|DICT|INTERRES
   235  119  120 1    
   236  119  240 1    
   237  120  121 1    
   238  120  124 1    
   239  120  241 1    
   240  121  122 am   BACKBONE|DICT|INTERRES
   241  121  123 2    
   242  122  242 1    
   243  122  243 1    
   244  124  125 1    
   245  124  244 1    
   246  124  245 1    
   247  125  126 1    
   248  126  246 1    
   249  126  247 1    
@<TRIPOS>SUBSTRUCTURE
     1 UNK         1 GROUP             0       ****    0 ROOT    
