@<TRIPOS>MOLECULE
3R540
247   249    1
SMALL
USER_CHARGES


@<TRIPOS>ATOM
      1 CA         -2.5155  -16.4726  -48.5854 C.3       0 UNK        -0.1800 
      2 C          -1.9439  -15.0652  -48.6995 C.2       0 UNK         0.5000 
      3 O          -2.6760  -14.1243  -49.0053 O.2       0 UNK        -0.5000 
      4 N          -0.6380  -14.9220  -48.4408 N.am      1 UNK        -0.5000 
      5 CA          0.1223  -13.6630  -48.4463 C.3       1 UNK         0.1400 
      6 C6          1.6603  -13.8918  -48.3550 C.3       23 UNK        -0.0398 
      7 S7          2.1692  -15.3619  -47.3842 S.3       23 UNK        -0.2404 
      8 C8          3.1824  -16.2851  -48.5866 C.3       23 UNK        -0.0205 
      9 C9          2.3714  -17.1845  -49.5165 C.ar      23 UNK        -0.0193 
     10 C10         1.5816  -16.6386  -50.5347 C.ar      23 UNK        -0.1150 
     11 C11         0.9017  -17.4630  -51.4341 C.ar      23 UNK        -0.0193 
     12 C12         1.0279  -18.8488  -51.3252 C.ar      23 UNK        -0.1150 
     13 C13         1.8216  -19.4121  -50.3225 C.ar      23 UNK        -0.0193 
     14 C14         2.4750  -18.5763  -49.4100 C.ar      23 UNK        -0.1150 
     15 C15         2.0119  -20.9209  -50.2645 C.3       23 UNK        -0.0205 
     16 S16         0.4795  -21.7891  -49.8191 S.3       23 UNK        -0.2404 
     17 C17         0.2656  -21.2740  -48.0832 C.3       23 UNK        -0.0398 
     18 CA         -0.2557  -22.4325  -47.2028 C.3       11 UNK         0.1400 
     19 N           0.1125  -22.2667  -45.7961 N.am      11 UNK        -0.5000 
     20 C          -0.0102  -23.2228  -44.8654 C.2       10 UNK         0.5000 
     21 O          -0.4443  -24.3499  -45.0973 O.2       10 UNK        -0.5000 
     22 CA          0.3627  -22.8430  -43.4232 C.3       10 UNK         0.1400 
     23 CB          1.8870  -22.8148  -43.2386 C.3       10 UNK        -0.1800 
     24 N          -0.2166  -21.5619  -43.0209 N.am      10 UNK        -0.5000 
     25 C          -1.5346  -21.3237  -42.9484 C.2       9 UNK         0.5000 
     26 O          -2.3976  -22.1745  -43.1671 O.2       9 UNK        -0.5000 
     27 CA         -1.9637  -19.8847  -42.6183 C.3       9 UNK         0.1400 
     28 CB         -1.8688  -19.6257  -41.1075 C.3       9 UNK        -0.1800 
     29 N          -1.1855  -18.8801  -43.3439 N.am      9 UNK        -0.5000 
     30 C          -1.1663  -18.7460  -44.6785 C.2       8 UNK         0.5000 
     31 O          -1.8171  -19.4485  -45.4499 O.2       8 UNK        -0.5000 
     32 CA         -0.2201  -17.6803  -45.2543 C.3       8 UNK         0.1400 
     33 CB         -0.7774  -16.2694  -45.0230 C.3       8 UNK        -0.1800 
     34 N           1.1225  -17.7688  -44.6883 N.am      8 UNK        -0.5000 
     35 C           1.9300  -18.8331  -44.7857 C.2       7 UNK         0.5000 
     36 O           1.6450  -19.8628  -45.3960 O.2       7 UNK        -0.5000 
     37 CA          3.2607  -18.7487  -44.0237 C.3       7 UNK         0.1400 
     38 CB          4.2968  -17.9438  -44.8235 C.3       7 UNK        -0.1800 
     39 N           3.0851  -18.1588  -42.6959 N.am      7 UNK        -0.5000 
     40 C           2.4343  -18.7529  -41.6851 C.2       6 UNK         0.5000 
     41 O           1.9382  -19.8774  -41.7555 O.2       6 UNK        -0.5000 
     42 CA          2.2783  -17.9354  -40.3900 C.3       6 UNK         0.1400 
     43 CB          3.5651  -17.9892  -39.5528 C.3       6 UNK        -0.1800 
     44 N           1.9199  -16.5395  -40.6450 N.am      6 UNK        -0.5000 
     45 C           0.7527  -16.1479  -41.1742 C.2       5 UNK         0.5000 
     46 O          -0.1520  -16.9216  -41.4837 O.2       5 UNK        -0.5000 
     47 CA          0.5791  -14.6426  -41.4425 C.3       5 UNK         0.1400 
     48 CB          0.0773  -13.9250  -40.1810 C.3       5 UNK        -0.1800 
     49 N           1.7820  -13.9671  -41.9369 N.am      5 UNK        -0.5000 
     50 C           2.4819  -14.3184  -43.0236 C.2       4 UNK         0.5000 
     51 O           2.2617  -15.3349  -43.6821 O.2       4 UNK        -0.5000 
     52 CA          3.5470  -13.3131  -43.4860 C.3       4 UNK         0.1400 
     53 CB          4.5403  -13.9155  -44.4948 C.3       4 UNK        -0.1800 
     54 N           2.8416  -12.2000  -44.1115 N.am      4 UNK        -0.5000 
     55 C           2.5000  -11.0622  -43.4946 C.2       3 UNK         0.5000 
     56 O           2.8858  -10.7470  -42.3684 O.2       3 UNK        -0.5000 
     57 CA          1.5072  -10.1579  -44.2469 C.3       3 UNK         0.1400 
     58 CB          2.2325   -9.3033  -45.2974 C.3       3 UNK        -0.1800 
     59 N           0.4410  -10.9238  -44.8974 N.am      3 UNK        -0.5000 
     60 C          -0.5048  -11.6320  -44.2667 C.2       2 UNK         0.5000 
     61 O          -0.6015  -11.6934  -43.0412 O.2       2 UNK        -0.5000 
     62 CA         -1.5121  -12.4140  -45.1349 C.3       2 UNK         0.1400 
     63 CB         -2.6811  -11.5121  -45.5722 C.3       2 UNK        -0.1800 
     64 N          -0.9351  -13.1288  -46.2831 N.am      2 UNK        -0.5000 
     65 C          -0.3461  -12.6421  -47.3849 C.2       1 UNK         0.5000 
     66 O          -0.1481  -11.4426  -47.5834 O.2       1 UNK        -0.5000 
     67 C          -1.7714  -22.6496  -47.3882 C.2       11 UNK         0.5000 
     68 O          -2.1655  -23.4947  -48.1927 O.2       11 UNK        -0.5000 
     69 N          -2.5992  -21.9147  -46.6321 N.am      12 UNK        -0.5000 
     70 CA         -4.0548  -22.0696  -46.6035 C.3       12 UNK         0.1400 
     71 CB         -4.6836  -20.9587  -45.7506 C.3       12 UNK        -0.1800 
     72 C          -4.4953  -23.4589  -46.1098 C.2       12 UNK         0.5000 
     73 O          -5.4139  -24.0412  -46.6856 O.2       12 UNK        -0.5000 
     74 N          -3.8172  -23.9754  -45.0778 N.am      13 UNK        -0.5000 
     75 CA         -4.0553  -25.3058  -44.5259 C.3       13 UNK         0.1400 
     76 CB         -3.3947  -25.4095  -43.1420 C.3       13 UNK        -0.1800 
     77 C          -3.5639  -26.4325  -45.4533 C.2       13 UNK         0.5000 
     78 O          -4.3108  -27.3793  -45.7042 O.2       13 UNK        -0.5000 
     79 N          -2.3125  -26.3293  -45.9196 N.am      14 UNK        -0.5000 
     80 CA         -1.6201  -27.4051  -46.6285 C.3       14 UNK         0.1400 
     81 CB         -0.1041  -27.2418  -46.4363 C.3       14 UNK        -0.1800 
     82 C          -1.9490  -27.4868  -48.1276 C.2       14 UNK         0.5000 
     83 O          -1.9883  -28.5945  -48.6657 O.2       14 UNK        -0.5000 
     84 N          -2.1303  -26.3343  -48.7847 N.am      15 UNK        -0.5000 
     85 CA         -2.1658  -26.2264  -50.2460 C.3       15 UNK         0.1400 
     86 CB         -0.8122  -25.6673  -50.7234 C.3       15 UNK        -0.1800 
     87 C          -3.3315  -25.3696  -50.7651 C.2       15 UNK         0.5000 
     88 O          -3.3505  -25.0584  -51.9561 O.2       15 UNK        -0.5000 
     89 N          -4.2628  -24.9699  -49.8852 N.am      16 UNK        -0.5000 
     90 CA         -5.4007  -24.0826  -50.1678 C.3       16 UNK         0.1400 
     91 CB         -6.4407  -24.7997  -51.0538 C.3       16 UNK        -0.1800 
     92 C          -4.9678  -22.7104  -50.7332 C.2       16 UNK         0.5000 
     93 O          -5.6368  -22.1640  -51.6120 O.2       16 UNK        -0.5000 
     94 N          -3.8324  -22.2019  -50.2271 N.am      17 UNK        -0.5000 
     95 CA         -3.1358  -20.9881  -50.6609 C.3       17 UNK         0.1400 
     96 CB         -3.9345  -19.7214  -50.2944 C.3       17 UNK        -0.1800 
     97 C          -2.7053  -21.0862  -52.1390 C.2       17 UNK         0.5000 
     98 O          -3.1024  -20.2710  -52.9728 O.2       17 UNK        -0.5000 
     99 N          -1.9234  -22.1382  -52.4254 N.am      18 UNK        -0.5000 
    100 CA        -1.3868  -22.5203  -53.7354 C.3       18 UNK         0.1400 
    101 CB        -0.3537  -21.4828  -54.2231 C.3       18 UNK        -0.1800 
    102 C         -2.4888  -22.8195  -54.7740 C.2       18 UNK         0.5000 
    103 O         -2.3695  -22.4226  -55.9347 O.2       18 UNK        -0.5000 
    104 N         -3.5492  -23.5064  -54.3231 N.am      19 UNK        -0.5000 
    105 CA        -4.7533  -23.9661  -55.0300 C.3       19 UNK         0.1400 
    106 CB        -4.3897  -24.9849  -56.1256 C.3       19 UNK        -0.1800 
    107 C         -5.6644  -22.8563  -55.5945 C.2       19 UNK         0.5000 
    108 O         -6.8864  -22.9629  -55.4896 O.2       19 UNK        -0.5000 
    109 N         -5.0651  -21.8200  -56.1860 N.am      20 UNK        -0.5000 
    110 CA        -5.7249  -20.6954  -56.8468 C.3       20 UNK         0.1400 
    111 CB        -4.7998  -20.1987  -57.9715 C.3       20 UNK        -0.1800 
    112 C         -6.0837  -19.5433  -55.8873 C.2       20 UNK         0.5000 
    113 O         -6.5002  -18.4846  -56.3607 O.2       20 UNK        -0.5000 
    114 N         -5.8752  -19.7324  -54.5749 N.am      21 UNK        -0.5000 
    115 CA        -6.0375  -18.7395  -53.5047 C.3       21 UNK         0.1400 
    116 CB        -7.5267  -18.3978  -53.2925 C.3       21 UNK        -0.1800 
    117 C         -5.1492  -17.4963  -53.7296 C.2       21 UNK         0.5000 
    118 O         -5.6049  -16.3616  -53.5758 O.2       21 UNK        -0.5000 
    119 N         -3.9068  -17.7571  -54.1538 N.am      22 UNK        -0.5000 
    120 CA        -2.8954  -16.7916  -54.6135 C.3       22 UNK         0.1400 
    121 C         -3.2639  -16.0120  -55.9157 C.2       22 UNK         0.5000 
    122 N         -4.3236  -16.3584  -56.6384 N.am      22 UNK        -0.7600 
    123 O         -2.5507  -15.0919  -56.3071 O.2       22 UNK        -0.5000 
    124 C124       -2.3872  -15.8519  -53.4851 C.3       23 UNK        -0.0398 
    125 S125       -1.6900  -16.7637  -52.0666 S.3       23 UNK        -0.2404 
    126 C126        0.0601  -16.8547  -52.5439 C.3       23 UNK        -0.0205 
    127 H127       -3.0492  -16.5898  -47.6418 H         1 UNK         0.0600 
    128 H128       -1.7321  -17.2308  -48.6360 H         1 UNK         0.0600 
    129 H129       -3.2180  -16.6603  -49.3977 H         1 UNK         0.0600 
    130 H130       -0.0838  -15.7378  -48.2179 H         1 UNK         0.3000 
    131 H131       -0.0767  -13.1893  -49.4101 H         1 UNK         0.0600 
    132 H132        2.0704  -13.9639  -49.3601 H         1 UNK         0.0800 
    133 H133        2.1733  -13.0242  -47.9346 H         1 UNK         0.0800 
    134 H134        3.7833  -15.5927  -49.1775 H         1 UNK         0.0800 
    135 H135        3.8979  -16.8851  -48.0223 H         1 UNK         0.0800 
    136 H136        1.5008  -15.5702  -50.6506 H         1 UNK         0.1150 
    137 H137        0.5152  -19.4896  -52.0282 H         1 UNK         0.1150 
    138 H138        3.0962  -19.0099  -48.6386 H         1 UNK         0.1150 
    139 H139        2.3397  -21.2727  -51.2437 H         1 UNK         0.0800 
    140 H140        2.8031  -21.1924  -49.5638 H         1 UNK         0.0800 
    141 H141       -0.3811  -20.3957  -48.0312 H         1 UNK         0.0800 
    142 H142        1.2388  -20.9482  -47.7160 H         1 UNK         0.0800 
    143 H143        0.2366  -23.3508  -47.5319 H         1 UNK         0.0600 
    144 H144        0.5046  -21.3659  -45.5314 H         1 UNK         0.3000 
    145 H145       -0.0428  -23.6130  -42.7634 H         1 UNK         0.0600 
    146 H146        2.1533  -22.6409  -42.1960 H         1 UNK         0.0600 
    147 H147        2.3340  -23.7648  -43.5339 H         1 UNK         0.0600 
    148 H148        2.3528  -22.0317  -43.8371 H         1 UNK         0.0600 
    149 H149        0.4352  -20.8188  -42.7915 H         1 UNK         0.3000 
    150 H150       -3.0081  -19.7736  -42.9163 H         1 UNK         0.0600 
    151 H151       -2.4399  -20.3662  -40.5462 H         1 UNK         0.0600 
    152 H152       -2.2688  -18.6446  -40.8510 H         1 UNK         0.0600 
    153 H153       -0.8370  -19.6684  -40.7561 H         1 UNK         0.0600 
    154 H154       -0.6407  -18.2368  -42.7753 H         1 UNK         0.3000 
    155 H155       -0.1347  -17.8455  -46.3304 H         1 UNK         0.0600 
    156 H156       -1.7253  -16.1331  -45.5437 H         1 UNK         0.0600 
    157 H157       -0.0792  -15.5174  -45.3852 H         1 UNK         0.0600 
    158 H158       -0.9532  -16.0712  -43.9661 H         1 UNK         0.0600 
    159 H159        1.4708  -16.9442  -44.2045 H         1 UNK         0.3000 
    160 H160        3.6421  -19.7642  -43.8976 H         1 UNK         0.0600 
    161 H161        3.9621  -16.9234  -45.0110 H         1 UNK         0.0600 
    162 H162        4.4816  -18.4071  -45.7934 H         1 UNK         0.0600 
    163 H163        5.2509  -17.8941  -44.2988 H         1 UNK         0.0600 
    164 H164        3.3884  -17.2026  -42.5826 H         1 UNK         0.3000 
    165 H165        1.4744  -18.3896  -39.8066 H         1 UNK         0.0600 
    166 H166        3.4345  -17.4819  -38.5967 H         1 UNK         0.0600 
    167 H167        3.8462  -19.0207  -39.3364 H         1 UNK         0.0600 
    168 H168        4.4042  -17.5215  -40.0695 H         1 UNK         0.0600 
    169 H169        2.6117  -15.8374  -40.4282 H         1 UNK         0.3000 
    170 H170       -0.1851  -14.5370  -42.2147 H         1 UNK         0.0600 
    171 H171       -0.8318  -14.3928  -39.8002 H         1 UNK         0.0600 
    172 H172        0.8193  -13.9478  -39.3819 H         1 UNK         0.0600 
    173 H173       -0.1600  -12.8816  -40.3905 H         1 UNK         0.0600 
    174 H174        2.0135  -13.0917  -41.4883 H         1 UNK         0.3000 
    175 H175        4.1115  -12.9801  -42.6124 H         1 UNK         0.0600 
    176 H176        4.0440  -14.2540  -45.4039 H         1 UNK         0.0600 
    177 H177        5.2970  -13.1855  -44.7823 H         1 UNK         0.0600 
    178 H178        5.0606  -14.7722  -44.0651 H         1 UNK         0.0600 
    179 H179        2.4343  -12.3884  -45.0154 H         1 UNK         0.3000 
    180 H180        1.0461   -9.4880  -43.5182 H         1 UNK         0.0600 
    181 H181        2.6860   -9.9186  -46.0756 H         1 UNK         0.0600 
    182 H182        3.0270   -8.7124  -44.8396 H         1 UNK         0.0600 
    183 H183        1.5462   -8.6067  -45.7794 H         1 UNK         0.0600 
    184 H184        0.4121  -10.9164  -45.9141 H         1 UNK         0.3000 
    185 H185       -1.9283  -13.1921  -44.4927 H         1 UNK         0.0600 
    186 H186       -3.1761  -11.0701  -44.7066 H         1 UNK         0.0600 
    187 H187       -2.3485  -10.6925  -46.2096 H         1 UNK         0.0600 
    188 H188       -3.4319  -12.0803  -46.1216 H         1 UNK         0.0600 
    189 H189       -1.0137  -14.1337  -46.2345 H         1 UNK         0.3000 
    190 H190       -2.2121  -21.1864  -46.0363 H         1 UNK         0.3000 
    191 H191       -4.4263  -21.9492  -47.6209 H         1 UNK         0.0600 
    192 H192       -4.4528  -19.9736  -46.1565 H         1 UNK         0.0600 
    193 H193       -5.7698  -21.0527  -45.7250 H         1 UNK         0.0600 
    194 H194       -4.3265  -20.9891  -44.7214 H         1 UNK         0.0600 
    195 H195       -3.1041  -23.4119  -44.6255 H         1 UNK         0.3000 
    196 H196       -5.1318  -25.4317  -44.3912 H         1 UNK         0.0600 
    197 H197       -3.5599  -26.3936  -42.7017 H         1 UNK         0.0600 
    198 H198       -3.8073  -24.6712  -42.4541 H         1 UNK         0.0600 
    199 H199       -2.3174  -25.2482  -43.1945 H         1 UNK         0.0600 
    200 H200       -1.7457  -25.5273  -45.6503 H         1 UNK         0.3000 
    201 H201       -1.9061  -28.3579  -46.1770 H         1 UNK         0.0600 
    202 H202        0.1615  -27.2342  -45.3789 H         1 UNK         0.0600 
    203 H203        0.2599  -26.3140  -46.8797 H         1 UNK         0.0600 
    204 H204        0.4406  -28.0636  -46.9027 H         1 UNK         0.0600 
    205 H205       -2.0927  -25.4535  -48.2797 H         1 UNK         0.3000 
    206 H206       -2.3040  -27.2089  -50.7008 H         1 UNK         0.0600 
    207 H207        0.0115  -26.3053  -50.4031 H         1 UNK         0.0600 
    208 H208       -0.7662  -25.6065  -51.8114 H         1 UNK         0.0600 
    209 H209       -0.6317  -24.6672  -50.3281 H         1 UNK         0.0600 
    210 H210       -4.1574  -25.2573  -48.9222 H         1 UNK         0.3000 
    211 H211       -5.8818  -23.8727  -49.2134 H         1 UNK         0.0600 
    212 H212       -6.0504  -25.0127  -52.0485 H         1 UNK         0.0600 
    213 H213       -7.3370  -24.1910  -51.1778 H         1 UNK         0.0600 
    214 H214       -6.7515  -25.7443  -50.6076 H         1 UNK         0.0600 
    215 H215       -3.3396  -22.7605  -49.5354 H         1 UNK         0.3000 
    216 H216       -2.2122  -20.9372  -50.0873 H         1 UNK         0.0600 
    217 H217       -3.5010  -18.8314  -50.7510 H         1 UNK         0.0600 
    218 H218       -3.9276  -19.5644  -49.2156 H         1 UNK         0.0600 
    219 H219       -4.9754  -19.7826  -50.6028 H         1 UNK         0.0600 
    220 H220       -1.6910  -22.7647  -51.6686 H         1 UNK         0.3000 
    221 H221       -0.8573  -23.4620  -53.5841 H         1 UNK         0.0600 
    222 H222       -0.8081  -20.5078  -54.4020 H         1 UNK         0.0600 
    223 H223        0.4446  -21.3545  -53.4927 H         1 UNK         0.0600 
    224 H224        0.1136  -21.8023  -55.1551 H         1 UNK         0.0600 
    225 H225       -3.5084  -23.8138  -53.3538 H         1 UNK         0.3000 
    226 H226       -5.3426  -24.4937  -54.2793 H         1 UNK         0.0600 
    227 H227       -3.8245  -25.8207  -55.7129 H         1 UNK         0.0600 
    228 H228       -5.2876  -25.3967  -56.5880 H         1 UNK         0.0600 
    229 H229       -3.7923  -24.5345  -56.9189 H         1 UNK         0.0600 
    230 H230       -4.0473  -21.8366  -56.2176 H         1 UNK         0.3000 
    231 H231       -6.6562  -21.0421  -57.2989 H         1 UNK         0.0600 
    232 H232       -3.8612  -19.8088  -57.5749 H         1 UNK         0.0600 
    233 H233       -5.2696  -19.4014  -58.5489 H         1 UNK         0.0600 
    234 H234       -4.5606  -21.0019  -58.6688 H         1 UNK         0.0600 
    235 H235       -5.4897  -20.6209  -54.2852 H         1 UNK         0.3000 
    236 H236       -5.6785  -19.2166  -52.5965 H         1 UNK         0.0600 
    237 H237       -8.1156  -19.2988  -53.1209 H         1 UNK         0.0600 
    238 H238       -7.6579  -17.7540  -52.4220 H         1 UNK         0.0600 
    239 H239       -7.9513  -17.8771  -54.1512 H         1 UNK         0.0600 
    240 H240       -3.6097  -18.7278  -54.1400 H         1 UNK         0.3000 
    241 H241       -2.0479  -17.4086  -54.9135 H         1 UNK         0.0600 
    242 H242       -4.5289  -15.8455  -57.4809 H         1 UNK         0.3800 
    243 H243       -4.9523  -17.0944  -56.3403 H         1 UNK         0.3800 
    244 H244       -1.6263  -15.1659  -53.8603 H         1 UNK         0.0800 
    245 H245       -3.1996  -15.2219  -53.1208 H         1 UNK         0.0800 
    246 H246        0.1573  -17.4496  -53.4534 H         1 UNK         0.0800 
    247 H247        0.4266  -15.8557  -52.7854 H         1 UNK         0.0800 
@<TRIPOS>BOND
     1    1    2 1    
     2    1  127 1    
     3    1  128 1    
     4    1  129 1    
     5    2    3 2    
     6    2    4 am   BACKBONE|DICT|INTERRES
     7    4    5 1    
     8    4  130 1    
     9    5    6 1    
    10    5   65 1    
    11    5  131 1    
    12    6    7 1    
    13    6  132 1    
    14    6  133 1    
    15    7    8 1    
    16    8    9 1    
    17    8  134 1    
    18    8  135 1    
    19    9   10 ar   
    20    9   14 ar   
    21   10   11 ar   
    22   10  136 1    
    23   11   12 ar   
    24   11  126 1    
    25   12   13 ar   
    26   12  137 1    
    27   13   14 ar   
    28   13   15 1    
    29   14  138 1    
    30   15   16 1    
    31   15  139 1    
    32   15  140 1    
    33   16   17 1    
    34   17   18 1    
    35   17  141 1    
    36   17  142 1    
    37   18   19 1    
    38   18   67 1    
    39   18  143 1    
    40   19   20 am   BACKBONE|DICT|INTERRES
    41   19  144 1    
    42   20   21 2    
    43   20   22 1    
    44   22   23 1    
    45   22   24 1    
    46   22  145 1    
    47   23  146 1    
    48   23  147 1    
    49   23  148 1    
    50   24   25 am   BACKBONE|DICT|INTERRES
    51   24  149 1    
    52   25   26 2    
    53   25   27 1    
    54   27   28 1    
    55   27   29 1    
    56   27  150 1    
    57   28  151 1    
    58   28  152 1    
    59   28  153 1    
    60   29   30 am   BACKBONE|DICT|INTERRES
    61   29  154 1    
    62   30   31 2    
    63   30   32 1    
    64   32   33 1    
    65   32   34 1    
    66   32  155 1    
    67   33  156 1    
    68   33  157 1    
    69   33  158 1    
    70   34   35 am   BACKBONE|DICT|INTERRES
    71   34  159 1    
    72   35   36 2    
    73   35   37 1    
    74   37   38 1    
    75   37   39 1    
    76   37  160 1    
    77   38  161 1    
    78   38  162 1    
    79   38  163 1    
    80   39   40 am   BACKBONE|DICT|INTERRES
    81   39  164 1    
    82   40   41 2    
    83   40   42 1    
    84   42   43 1    
    85   42   44 1    
    86   42  165 1    
    87   43  166 1    
    88   43  167 1    
    89   43  168 1    
    90   44   45 am   BACKBONE|DICT|INTERRES
    91   44  169 1    
    92   45   46 2    
    93   45   47 1    
    94   47   48 1    
    95   47   49 1    
    96   47  170 1    
    97   48  171 1    
    98   48  172 1    
    99   48  173 1    
   100   49   50 am   BACKBONE|DICT|INTERRES
   101   49  174 1    
   102   50   51 2    
   103   50   52 1    
   104   52   53 1    
   105   52   54 1    
   106   52  175 1    
   107   53  176 1    
   108   53  177 1    
   109   53  178 1    
   110   54   55 am   BACKBONE|DICT|INTERRES
   111   54  179 1    
   112   55   56 2    
   113   55   57 1    
   114   57   58 1    
   115   57   59 1    
   116   57  180 1    
   117   58  181 1    
   118   58  182 1    
   119   58  183 1    
   120   59   60 am   BACKBONE|DICT|INTERRES
   121   59  184 1    
   122   60   61 2    
   123   60   62 1    
   124   62   63 1    
   125   62   64 1    
   126   62  185 1    
   127   63  186 1    
   128   63  187 1    
   129   63  188 1    
   130   64   65 am   BACKBONE|DICT|INTERRES
   131   64  189 1    
   132   65   66 2    
   133   67   68 2    
   134   67   69 am   BACKBONE|DICT|INTERRES
   135   69   70 1    
   136   69  190 1    
   137   70   71 1    
   138   70   72 1    
   139   70  191 1    
   140   71  192 1    
   141   71  193 1    
   142   71  194 1    
   143   72   73 2    
   144   72   74 am   BACKBONE|DICT|INTERRES
   145   74   75 1    
   146   74  195 1    
   147   75   76 1    
   148   75   77 1    
   149   75  196 1    
   150   76  197 1    
   151   76  198 1    
   152   76  199 1    
   153   77   78 2    
   154   77   79 am   BACKBONE|DICT|INTERRES
   155   79   80 1    
   156   79  200 1    
   157   80   81 1    
   158   80   82 1    
   159   80  201 1    
   160   81  202 1    
   161   81  203 1    
   162   81  204 1    
   163   82   83 2    
   164   82   84 am   BACKBONE|DICT|INTERRES
   165   84   85 1    
   166   84  205 1    
   167   85   86 1    
   168   85   87 1    
   169   85  206 1    
   170   86  207 1    
   171   86  208 1    
   172   86  209 1    
   173   87   88 2    
   174   87   89 am   BACKBONE|DICT|INTERRES
   175   89   90 1    
   176   89  210 1    
   177   90   91 1    
   178   90   92 1    
   179   90  211 1    
   180   91  212 1    
   181   91  213 1    
   182   91  214 1    
   183   92   93 2    
   184   92   94 am   BACKBONE|DICT|INTERRES
   185   94   95 1    
   186   94  215 1    
   187   95   96 1    
   188   95   97 1    
   189   95  216 1    
   190   96  217 1    
   191   96  218 1    
   192   96  219 1    
   193   97   98 2    
   194   97   99 am   BACKBONE|DICT|INTERRES
   195   99  100 1    
   196   99  220 1    
   197  100  101 1    
   198  100  102 1    
   199  100  221 1    
   200  101  222 1    
   201  101  223 1    
   202  101  224 1    
   203  102  103 2    
   204  102  104 am   BACKBONE|DICT|INTERRES
   205  104  105 1    
   206  104  225 1    
   207  105  106 1    
   208  105  107 1    
   209  105  226 1    
   210  106  227 1    
   211  106  228 1    
   212  106  229 1    
   213  107  108 2    
   214  107  109 am   BACKBONE|DICT|INTERRES
   215  109  110 1    
   216  109  230 1    
   217  110  111 1    
   218  110  112 1    
   219  110  231 1    
   220  111  232 1    
   221  111  233 1    
   222  111  234 1    
   223  112  113 2    
   224  112  114 am   BACKBONE|DICT|INTERRES
   225  114  115 1    
   226  114  235 1    
   227  115  116 1    
   228  115  117 1    
   229  115  236 1    
   230  116  237 1    
   231  116  238 1    
   232  116  239 1    
   233  117  118 2    
   234  117  119 am   BACKBONE|DICT|INTERRES
   235  119  120 1    
   236  119  240 1    
   237  120  121 1    
   238  120  124 1    
   239  120  241 1    
   240  121  122 am   BACKBONE|DICT|INTERRES
   241  121  123 2    
   242  122  242 1    
   243  122  243 1    
   244  124  125 1    
   245  124  244 1    
   246  124  245 1    
   247  125  126 1    
   248  126  246 1    
   249  126  247 1    
@<TRIPOS>SUBSTRUCTURE
     1 UNK         1 GROUP             0       ****    0 ROOT    
