@<TRIPOS>MOLECULE
3R540
247   249    1
SMALL
USER_CHARGES


@<TRIPOS>ATOM
      1 CA         -0.6737  -10.5896  -51.2675 C.3       0 UNK        -0.1800 
      2 C           0.3177  -10.9434  -50.1682 C.2       0 UNK         0.5000 
      3 O           1.3881  -10.3404  -50.0921 O.2       0 UNK        -0.5000 
      4 N          -0.0342  -11.9197  -49.3207 N.am      1 UNK        -0.5000 
      5 CA          0.7803  -12.3868  -48.1912 C.3       1 UNK         0.1400 
      6 C6          0.3005  -13.7790  -47.7079 C.3       23 UNK        -0.0398 
      7 S7          1.5859  -14.7466  -46.8512 S.3       23 UNK        -0.2404 
      8 C8          2.6399  -15.3332  -48.2140 C.3       23 UNK        -0.0205 
      9 C9          1.9921  -16.4252  -49.0541 C.ar      23 UNK        -0.0193 
     10 C10         1.3695  -16.1075  -50.2644 C.ar      23 UNK        -0.1150 
     11 C11         0.8639  -17.1149  -51.0918 C.ar      23 UNK        -0.0193 
     12 C12         0.9779  -18.4512  -50.6934 C.ar      23 UNK        -0.1150 
     13 C13         1.5846  -18.7830  -49.4780 C.ar      23 UNK        -0.0193 
     14 C14         2.0861  -17.7637  -48.6623 C.ar      23 UNK        -0.1150 
     15 C15         1.7660  -20.2430  -49.0838 C.3       23 UNK        -0.0205 
     16 S16         0.1925  -21.0664  -48.6829 S.3       23 UNK        -0.2404 
     17 C17         0.7878  -22.7533  -48.3318 C.3       23 UNK        -0.0398 
     18 CA          0.0724  -23.5031  -47.1822 C.3       11 UNK         0.1400 
     19 N           0.2593  -22.9078  -45.8525 N.am      11 UNK        -0.5000 
     20 C           0.1057  -23.6164  -44.7215 C.2       10 UNK         0.5000 
     21 O          -0.1967  -24.8099  -44.7093 O.2       10 UNK        -0.5000 
     22 CA          0.2709  -22.8826  -43.3800 C.3       10 UNK         0.1400 
     23 CB          1.7500  -22.6058  -43.0724 C.3       10 UNK        -0.1800 
     24 N          -0.5039  -21.6458  -43.3144 N.am      10 UNK        -0.5000 
     25 C          -1.8431  -21.5903  -43.3577 C.2       9 UNK         0.5000 
     26 O          -2.5662  -22.5846  -43.4260 O.2       9 UNK        -0.5000 
     27 CA         -2.4821  -20.1887  -43.3695 C.3       9 UNK         0.1400 
     28 CB         -2.5997  -19.6272  -41.9451 C.3       9 UNK        -0.1800 
     29 N          -1.7490  -19.2433  -44.2106 N.am      9 UNK        -0.5000 
     30 C          -1.5718  -19.3820  -45.5318 C.2       8 UNK         0.5000 
     31 O          -2.0651  -20.2921  -46.1939 O.2       8 UNK        -0.5000 
     32 CA         -0.6403  -18.3683  -46.2138 C.3       8 UNK         0.1400 
     33 CB         -1.3812  -17.0636  -46.5380 C.3       8 UNK        -0.1800 
     34 N           0.5615  -18.1059  -45.4194 N.am      8 UNK        -0.5000 
     35 C           1.5008  -19.0268  -45.1524 C.2       7 UNK         0.5000 
     36 O           1.4815  -20.1758  -45.5940 O.2       7 UNK        -0.5000 
     37 CA          2.6303  -18.6078  -44.1964 C.3       7 UNK         0.1400 
     38 CB          3.7213  -17.8325  -44.9500 C.3       7 UNK        -0.1800 
     39 N           2.1324  -17.8022  -43.0818 N.am      7 UNK        -0.5000 
     40 C           1.3733  -18.2785  -42.0830 C.2       6 UNK         0.5000 
     41 O           1.0728  -19.4661  -41.9670 O.2       6 UNK        -0.5000 
     42 CA          0.8108  -17.2538  -41.0732 C.3       6 UNK         0.1400 
     43 CB          1.7957  -17.0424  -39.9143 C.3       6 UNK        -0.1800 
     44 N           0.5014  -15.9593  -41.6845 N.am      6 UNK        -0.5000 
     45 C          -0.3674  -15.7869  -42.6888 C.2       5 UNK         0.5000 
     46 O          -1.1224  -16.6773  -43.0779 O.2       5 UNK        -0.5000 
     47 CA         -0.3742  -14.4322  -43.4285 C.3       5 UNK         0.1400 
     48 CB         -1.6510  -13.6516  -43.0834 C.3       5 UNK        -0.1800 
     49 N           0.7944  -13.5562  -43.2492 N.am      5 UNK        -0.5000 
     50 C           2.0910  -13.8765  -43.4028 C.2       4 UNK         0.5000 
     51 O           2.4864  -15.0260  -43.5950 O.2       4 UNK        -0.5000 
     52 CA          3.1311  -12.7405  -43.3287 C.3       4 UNK         0.1400 
     53 CB          4.1880  -12.8760  -44.4391 C.3       4 UNK        -0.1800 
     54 N           2.5280  -11.4088  -43.4077 N.am      4 UNK        -0.5000 
     55 C           2.1397  -10.6800  -42.3521 C.2       3 UNK         0.5000 
     56 O           2.2370  -11.0704  -41.1884 O.2       3 UNK        -0.5000 
     57 CA          1.5350   -9.2873  -42.6260 C.3       3 UNK         0.1400 
     58 CB          2.5578   -8.1866  -42.3042 C.3       3 UNK        -0.1800 
     59 N           1.0589   -9.0985  -43.9978 N.am      3 UNK        -0.5000 
     60 C          -0.0005   -9.7139  -44.5387 C.2       2 UNK         0.5000 
     61 O          -0.6955  -10.5245  -43.9268 O.2       2 UNK        -0.5000 
     62 CA         -0.3417   -9.3850  -46.0084 C.3       2 UNK         0.1400 
     63 CB          0.4634   -8.2017  -46.5920 C.3       2 UNK        -0.1800 
     64 N          -0.2197  -10.5483  -46.8934 N.am      2 UNK        -0.5000 
     65 C           0.8515  -11.3440  -47.0493 C.2       1 UNK         0.5000 
     66 O           1.8796  -11.2450  -46.3777 O.2       1 UNK        -0.5000 
     67 C          -1.4038  -23.8407  -47.4861 C.2       11 UNK         0.5000 
     68 O          -1.6573  -24.8277  -48.1817 O.2       11 UNK        -0.5000 
     69 N          -2.3519  -23.0720  -46.9265 N.am      12 UNK        -0.5000 
     70 CA         -3.7859  -23.3689  -46.9554 C.3       12 UNK         0.1400 
     71 CB         -4.5976  -22.1963  -46.3884 C.3       12 UNK        -0.1800 
     72 C          -4.1289  -24.6807  -46.2312 C.2       12 UNK         0.5000 
     73 O          -4.8705  -25.4968  -46.7782 O.2       12 UNK        -0.5000 
     74 N          -3.5519  -24.8812  -45.0396 N.am      13 UNK        -0.5000 
     75 CA         -3.6853  -26.1148  -44.2661 C.3       13 UNK         0.1400 
     76 CB         -3.1218  -25.8965  -42.8536 C.3       13 UNK        -0.1800 
     77 C          -3.0091  -27.3210  -44.9455 C.2       13 UNK         0.5000 
     78 O          -3.5637  -28.4203  -44.9157 O.2       13 UNK        -0.5000 
     79 N          -1.8281  -27.0967  -45.5377 N.am      14 UNK        -0.5000 
     80 CA         -1.0185  -28.1325  -46.1748 C.3       14 UNK         0.1400 
     81 CB          0.4210  -27.6269  -46.3552 C.3       14 UNK        -0.1800 
     82 C          -1.5851  -28.6267  -47.5174 C.2       14 UNK         0.5000 
     83 O          -1.6595  -29.8397  -47.7212 O.2       14 UNK        -0.5000 
     84 N          -1.9324  -27.7004  -48.4227 N.am      15 UNK        -0.5000 
     85 CA         -2.2345  -28.0183  -49.8221 C.3       15 UNK         0.1400 
     86 CB         -0.9167  -28.2027  -50.6047 C.3       15 UNK        -0.1800 
     87 C          -3.1649  -26.9840  -50.4799 C.2       15 UNK         0.5000 
     88 O          -3.0317  -26.7191  -51.6773 O.2       15 UNK        -0.5000 
     89 N          -4.0810  -26.3933  -49.6960 N.am      16 UNK        -0.5000 
     90 CA         -5.0984  -25.4169  -50.1231 C.3       16 UNK         0.1400 
     91 CB         -6.1444  -26.0976  -51.0310 C.3       16 UNK        -0.1800 
     92 C          -4.5167  -24.1349  -50.7629 C.2       16 UNK         0.5000 
     93 O          -5.2127  -23.4631  -51.5239 O.2       16 UNK        -0.5000 
     94 N          -3.2430  -23.8403  -50.4554 N.am      17 UNK        -0.5000 
     95 CA         -2.4077  -22.7608  -50.9888 C.3       17 UNK         0.1400 
     96 CB         -2.9321  -21.3883  -50.5214 C.3       17 UNK        -0.1800 
     97 C          -2.2029  -22.8389  -52.5171 C.2       17 UNK         0.5000 
     98 O          -1.9258  -21.8185  -53.1452 O.2       17 UNK        -0.5000 
     99 N          -2.3707  -24.0414  -53.0920 N.am      18 UNK        -0.5000 
    100 CA        -2.3785  -24.3979  -54.5185 C.3       18 UNK         0.1400 
    101 CB        -1.0531  -24.0199  -55.2075 C.3       18 UNK        -0.1800 
    102 C         -3.5944  -23.8671  -55.3111 C.2       18 UNK         0.5000 
    103 O         -4.0111  -24.5158  -56.2717 O.2       18 UNK        -0.5000 
    104 N         -4.1592  -22.7305  -54.8964 N.am      19 UNK        -0.5000 
    105 CA        -5.3557  -22.0941  -55.4299 C.3       19 UNK         0.1400 
    106 CB        -5.0082  -21.3162  -56.7124 C.3       19 UNK        -0.1800 
    107 C         -5.9059  -21.1479  -54.3545 C.2       19 UNK         0.5000 
    108 O         -5.1491  -20.7115  -53.4848 O.2       19 UNK        -0.5000 
    109 N         -7.1932  -20.7925  -54.4563 N.am      20 UNK        -0.5000 
    110 CA        -7.8817  -19.8915  -53.5218 C.3       20 UNK         0.1400 
    111 CB        -9.3777  -19.8524  -53.8696 C.3       20 UNK        -0.1800 
    112 C         -7.2985  -18.4627  -53.4821 C.2       20 UNK         0.5000 
    113 O         -7.3301  -17.8212  -52.4317 O.2       20 UNK        -0.5000 
    114 N         -6.7558  -18.0080  -54.6191 N.am      21 UNK        -0.5000 
    115 CA        -6.0456  -16.7345  -54.7676 C.3       21 UNK         0.1400 
    116 CB        -6.3821  -16.1569  -56.1532 C.3       21 UNK        -0.1800 
    117 C         -4.5170  -16.8802  -54.5939 C.2       21 UNK         0.5000 
    118 O         -3.8061  -15.8855  -54.7299 O.2       21 UNK        -0.5000 
    119 N         -4.0464  -18.1108  -54.3475 N.am      22 UNK        -0.5000 
    120 CA        -2.6557  -18.5757  -54.1901 C.3       22 UNK         0.1400 
    121 C         -1.6575  -18.3087  -55.3595 C.2       22 UNK         0.5000 
    122 N         -2.0748  -17.7399  -56.4829 N.am      22 UNK        -0.7600 
    123 O         -0.4898  -18.6775  -55.2749 O.2       22 UNK        -0.5000 
    124 C124       -2.0746  -18.3286  -52.7679 C.3       23 UNK        -0.0398 
    125 S125       -1.5540  -16.6172  -52.3896 S.3       23 UNK        -0.2404 
    126 C126        0.2617  -16.7540  -52.4430 C.3       23 UNK        -0.0205 
    127 H127       -1.5695  -11.2094  -51.2218 H         1 UNK         0.0600 
    128 H128       -0.2142  -10.7289  -52.2461 H         1 UNK         0.0600 
    129 H129       -0.9769   -9.5464  -51.1774 H         1 UNK         0.0600 
    130 H130       -0.9255  -12.3786  -49.4448 H         1 UNK         0.3000 
    131 H131        1.7977  -12.4938  -48.5716 H         1 UNK         0.0600 
    132 H132       -0.5627  -13.6852  -47.0466 H         1 UNK         0.0800 
    133 H133       -0.0467  -14.3757  -48.5515 H         1 UNK         0.0800 
    134 H134        2.9354  -14.4940  -48.8442 H         1 UNK         0.0800 
    135 H135        3.5664  -15.7168  -47.7843 H         1 UNK         0.0800 
    136 H136        1.3080  -15.0751  -50.5794 H         1 UNK         0.1150 
    137 H137        0.6162  -19.2409  -51.3356 H         1 UNK         0.1150 
    138 H138        2.5811  -18.0123  -47.7354 H         1 UNK         0.1150 
    139 H139        2.2498  -20.7742  -49.9048 H         1 UNK         0.0800 
    140 H140        2.4356  -20.3239  -48.2260 H         1 UNK         0.0800 
    141 H141        1.8529  -22.7081  -48.1009 H         1 UNK         0.0800 
    142 H142        0.7181  -23.3323  -49.2541 H         1 UNK         0.0800 
    143 H143        0.5751  -24.4709  -47.1435 H         1 UNK         0.0600 
    144 H144        0.5147  -21.9246  -45.8097 H         1 UNK         0.3000 
    145 H145       -0.1083  -23.5445  -42.5984 H         1 UNK         0.0600 
    146 H146        1.8696  -22.1553  -42.0870 H         1 UNK         0.0600 
    147 H147        2.3274  -23.5311  -43.0782 H         1 UNK         0.0600 
    148 H148        2.2011  -21.9360  -43.8030 H         1 UNK         0.0600 
    149 H149        0.0199  -20.7843  -43.2109 H         1 UNK         0.3000 
    150 H150       -3.4891  -20.2840  -43.7799 H         1 UNK         0.0600 
    151 H151       -3.1886  -20.2919  -41.3120 H         1 UNK         0.0600 
    152 H152       -3.0914  -18.6542  -41.9438 H         1 UNK         0.0600 
    153 H153       -1.6229  -19.5084  -41.4766 H         1 UNK         0.0600 
    154 H154       -1.3572  -18.4252  -43.7512 H         1 UNK         0.3000 
    155 H155       -0.3220  -18.7965  -47.1623 H         1 UNK         0.0600 
    156 H156       -1.6509  -16.5068  -45.6420 H         1 UNK         0.0600 
    157 H157       -0.7737  -16.4213  -47.1721 H         1 UNK         0.0600 
    158 H158       -2.3022  -17.2676  -47.0855 H         1 UNK         0.0600 
    159 H159        0.6487  -17.1897  -45.0066 H         1 UNK         0.3000 
    160 H160        3.0800  -19.5152  -43.7880 H         1 UNK         0.0600 
    161 H161        3.3318  -16.9160  -45.3944 H         1 UNK         0.0600 
    162 H162        4.1423  -18.4354  -45.7554 H         1 UNK         0.0600 
    163 H163        4.5405  -17.5582  -44.2854 H         1 UNK         0.0600 
    164 H164        2.3061  -16.8002  -43.1378 H         1 UNK         0.3000 
    165 H165       -0.1164  -17.6621  -40.6665 H         1 UNK         0.0600 
    166 H166        1.3771  -16.3801  -39.1563 H         1 UNK         0.0600 
    167 H167        2.0304  -17.9885  -39.4247 H         1 UNK         0.0600 
    168 H168        2.7352  -16.6086  -40.2592 H         1 UNK         0.0600 
    169 H169        1.0997  -15.1849  -41.4384 H         1 UNK         0.3000 
    170 H170       -0.4137  -14.6746  -44.4913 H         1 UNK         0.0600 
    171 H171       -2.5342  -14.2907  -43.1288 H         1 UNK         0.0600 
    172 H172       -1.6040  -13.2261  -42.0804 H         1 UNK         0.0600 
    173 H173       -1.8171  -12.8399  -43.7900 H         1 UNK         0.0600 
    174 H174        0.5814  -12.5791  -43.1029 H         1 UNK         0.3000 
    175 H175        3.6475  -12.8492  -42.3729 H         1 UNK         0.0600 
    176 H176        4.9151  -12.0651  -44.3949 H         1 UNK         0.0600 
    177 H177        3.7356  -12.8684  -45.4307 H         1 UNK         0.0600 
    178 H178        4.7413  -13.8110  -44.3428 H         1 UNK         0.0600 
    179 H179        2.3651  -11.0525  -44.3443 H         1 UNK         0.3000 
    180 H180        0.6827   -9.1671  -41.9539 H         1 UNK         0.0600 
    181 H181        3.4291   -8.2442  -42.9580 H         1 UNK         0.0600 
    182 H182        2.9130   -8.2699  -41.2761 H         1 UNK         0.0600 
    183 H183        2.1190   -7.1947  -42.4145 H         1 UNK         0.0600 
    184 H184        1.5915   -8.4651  -44.5763 H         1 UNK         0.3000 
    185 H185       -1.3946   -9.0999  -46.0149 H         1 UNK         0.0600 
    186 H186        0.3374   -7.3004  -45.9907 H         1 UNK         0.0600 
    187 H187        1.5303   -8.4198  -46.6546 H         1 UNK         0.0600 
    188 H188        0.1217   -7.9615  -47.5990 H         1 UNK         0.0600 
    189 H189       -1.0181  -10.7240  -47.4860 H         1 UNK         0.3000 
    190 H190       -2.0763  -22.2217  -46.4425 H         1 UNK         0.3000 
    191 H191       -4.0823  -23.4840  -47.9944 H         1 UNK         0.0600 
    192 H192       -4.4447  -21.2921  -46.9776 H         1 UNK         0.0600 
    193 H193       -5.6657  -22.4160  -46.4063 H         1 UNK         0.0600 
    194 H194       -4.3260  -21.9763  -45.3570 H         1 UNK         0.0600 
    195 H195       -2.9872  -24.1425  -44.6312 H         1 UNK         0.3000 
    196 H196       -4.7498  -26.3403  -44.1732 H         1 UNK         0.0600 
    197 H197       -3.2257  -26.7971  -42.2473 H         1 UNK         0.0600 
    198 H198       -3.6510  -25.0943  -42.3389 H         1 UNK         0.0600 
    199 H199       -2.0634  -25.6353  -42.8769 H         1 UNK         0.0600 
    200 H200       -1.4080  -26.1764  -45.4500 H         1 UNK         0.3000 
    201 H201       -0.9813  -28.9889  -45.4980 H         1 UNK         0.0600 
    202 H202        0.8581  -27.3278  -45.4024 H         1 UNK         0.0600 
    203 H203        0.4655  -26.7725  -47.0295 H         1 UNK         0.0600 
    204 H204        1.0580  -28.4067  -46.7744 H         1 UNK         0.0600 
    205 H205       -1.8454  -26.7121  -48.1948 H         1 UNK         0.3000 
    206 H206       -2.7852  -28.9603  -49.8606 H         1 UNK         0.0600 
    207 H207       -0.2979  -28.9861  -50.1673 H         1 UNK         0.0600 
    208 H208       -1.1057  -28.4898  -51.6398 H         1 UNK         0.0600 
    209 H209       -0.3314  -27.2825  -50.6180 H         1 UNK         0.0600 
    210 H210       -4.1041  -26.6373  -48.7136 H         1 UNK         0.3000 
    211 H211       -5.6190  -25.0911  -49.2233 H         1 UNK         0.0600 
    212 H212       -5.7202  -26.3848  -51.9936 H         1 UNK         0.0600 
    213 H213       -6.9843  -25.4313  -51.2308 H         1 UNK         0.0600 
    214 H214       -6.5499  -26.9938  -50.5616 H         1 UNK         0.0600 
    215 H215       -2.7704  -24.4561  -49.8013 H         1 UNK         0.3000 
    216 H216       -1.4199  -22.9028  -50.5511 H         1 UNK         0.0600 
    217 H217       -2.2175  -20.6002  -50.7582 H         1 UNK         0.0600 
    218 H218       -3.0805  -21.3688  -49.4416 H         1 UNK         0.0600 
    219 H219       -3.8782  -21.1308  -50.9984 H         1 UNK         0.0600 
    220 H220       -2.6190  -24.8104  -52.4776 H         1 UNK         0.3000 
    221 H221       -2.4551  -25.4862  -54.5375 H         1 UNK         0.0600 
    222 H222       -0.9254  -22.9400  -55.2858 H         1 UNK         0.0600 
    223 H223       -0.1972  -24.4226  -54.6660 H         1 UNK         0.0600 
    224 H224       -1.0161  -24.4225  -56.2204 H         1 UNK         0.0600 
    225 H225       -3.7627  -22.2545  -54.0915 H         1 UNK         0.3000 
    226 H226       -6.1063  -22.8575  -55.6443 H         1 UNK         0.0600 
    227 H227       -4.6245  -21.9799  -57.4873 H         1 UNK         0.0600 
    228 H228       -5.8876  -20.8183  -57.1220 H         1 UNK         0.0600 
    229 H229       -4.2530  -20.5513  -56.5254 H         1 UNK         0.0600 
    230 H230       -7.7526  -21.1772  -55.2041 H         1 UNK         0.3000 
    231 H231       -7.7760  -20.3126  -52.5196 H         1 UNK         0.0600 
    232 H232       -9.5471  -19.4685  -54.8763 H         1 UNK         0.0600 
    233 H233       -9.9232  -19.2098  -53.1771 H         1 UNK         0.0600 
    234 H234       -9.8235  -20.8453  -53.8082 H         1 UNK         0.0600 
    235 H235       -6.7890  -18.6030  -55.4341 H         1 UNK         0.3000 
    236 H236       -6.3912  -16.0257  -54.0124 H         1 UNK         0.0600 
    237 H237       -7.4572  -16.0211  -56.2721 H         1 UNK         0.0600 
    238 H238       -5.9173  -15.1806  -56.2969 H         1 UNK         0.0600 
    239 H239       -6.0352  -16.8078  -56.9566 H         1 UNK         0.0600 
    240 H240       -4.7291  -18.8458  -54.2081 H         1 UNK         0.3000 
    241 H241       -2.7788  -19.6556  -54.2561 H         1 UNK         0.0600 
    242 H242       -1.4221  -17.5934  -57.2366 H         1 UNK         0.3800 
    243 H243       -3.0150  -17.3866  -56.5545 H         1 UNK         0.3800 
    244 H244       -2.8201  -18.6140  -52.0251 H         1 UNK         0.0800 
    245 H245       -1.2386  -19.0073  -52.6022 H         1 UNK         0.0800 
    246 H246        0.6650  -15.7987  -52.7821 H         1 UNK         0.0800 
    247 H247        0.5678  -17.4838  -53.1925 H         1 UNK         0.0800 
@<TRIPOS>BOND
     1    1    2 1    
     2    1  127 1    
     3    1  128 1    
     4    1  129 1    
     5    2    3 2    
     6    2    4 am   BACKBONE|DICT|INTERRES
     7    4    5 1    
     8    4  130 1    
     9    5    6 1    
    10    5   65 1    
    11    5  131 1    
    12    6    7 1    
    13    6  132 1    
    14    6  133 1    
    15    7    8 1    
    16    8    9 1    
    17    8  134 1    
    18    8  135 1    
    19    9   10 ar   
    20    9   14 ar   
    21   10   11 ar   
    22   10  136 1    
    23   11   12 ar   
    24   11  126 1    
    25   12   13 ar   
    26   12  137 1    
    27   13   14 ar   
    28   13   15 1    
    29   14  138 1    
    30   15   16 1    
    31   15  139 1    
    32   15  140 1    
    33   16   17 1    
    34   17   18 1    
    35   17  141 1    
    36   17  142 1    
    37   18   19 1    
    38   18   67 1    
    39   18  143 1    
    40   19   20 am   BACKBONE|DICT|INTERRES
    41   19  144 1    
    42   20   21 2    
    43   20   22 1    
    44   22   23 1    
    45   22   24 1    
    46   22  145 1    
    47   23  146 1    
    48   23  147 1    
    49   23  148 1    
    50   24   25 am   BACKBONE|DICT|INTERRES
    51   24  149 1    
    52   25   26 2    
    53   25   27 1    
    54   27   28 1    
    55   27   29 1    
    56   27  150 1    
    57   28  151 1    
    58   28  152 1    
    59   28  153 1    
    60   29   30 am   BACKBONE|DICT|INTERRES
    61   29  154 1    
    62   30   31 2    
    63   30   32 1    
    64   32   33 1    
    65   32   34 1    
    66   32  155 1    
    67   33  156 1    
    68   33  157 1    
    69   33  158 1    
    70   34   35 am   BACKBONE|DICT|INTERRES
    71   34  159 1    
    72   35   36 2    
    73   35   37 1    
    74   37   38 1    
    75   37   39 1    
    76   37  160 1    
    77   38  161 1    
    78   38  162 1    
    79   38  163 1    
    80   39   40 am   BACKBONE|DICT|INTERRES
    81   39  164 1    
    82   40   41 2    
    83   40   42 1    
    84   42   43 1    
    85   42   44 1    
    86   42  165 1    
    87   43  166 1    
    88   43  167 1    
    89   43  168 1    
    90   44   45 am   BACKBONE|DICT|INTERRES
    91   44  169 1    
    92   45   46 2    
    93   45   47 1    
    94   47   48 1    
    95   47   49 1    
    96   47  170 1    
    97   48  171 1    
    98   48  172 1    
    99   48  173 1    
   100   49   50 am   BACKBONE|DICT|INTERRES
   101   49  174 1    
   102   50   51 2    
   103   50   52 1    
   104   52   53 1    
   105   52   54 1    
   106   52  175 1    
   107   53  176 1    
   108   53  177 1    
   109   53  178 1    
   110   54   55 am   BACKBONE|DICT|INTERRES
   111   54  179 1    
   112   55   56 2    
   113   55   57 1    
   114   57   58 1    
   115   57   59 1    
   116   57  180 1    
   117   58  181 1    
   118   58  182 1    
   119   58  183 1    
   120   59   60 am   BACKBONE|DICT|INTERRES
   121   59  184 1    
   122   60   61 2    
   123   60   62 1    
   124   62   63 1    
   125   62   64 1    
   126   62  185 1    
   127   63  186 1    
   128   63  187 1    
   129   63  188 1    
   130   64   65 am   BACKBONE|DICT|INTERRES
   131   64  189 1    
   132   65   66 2    
   133   67   68 2    
   134   67   69 am   BACKBONE|DICT|INTERRES
   135   69   70 1    
   136   69  190 1    
   137   70   71 1    
   138   70   72 1    
   139   70  191 1    
   140   71  192 1    
   141   71  193 1    
   142   71  194 1    
   143   72   73 2    
   144   72   74 am   BACKBONE|DICT|INTERRES
   145   74   75 1    
   146   74  195 1    
   147   75   76 1    
   148   75   77 1    
   149   75  196 1    
   150   76  197 1    
   151   76  198 1    
   152   76  199 1    
   153   77   78 2    
   154   77   79 am   BACKBONE|DICT|INTERRES
   155   79   80 1    
   156   79  200 1    
   157   80   81 1    
   158   80   82 1    
   159   80  201 1    
   160   81  202 1    
   161   81  203 1    
   162   81  204 1    
   163   82   83 2    
   164   82   84 am   BACKBONE|DICT|INTERRES
   165   84   85 1    
   166   84  205 1    
   167   85   86 1    
   168   85   87 1    
   169   85  206 1    
   170   86  207 1    
   171   86  208 1    
   172   86  209 1    
   173   87   88 2    
   174   87   89 am   BACKBONE|DICT|INTERRES
   175   89   90 1    
   176   89  210 1    
   177   90   91 1    
   178   90   92 1    
   179   90  211 1    
   180   91  212 1    
   181   91  213 1    
   182   91  214 1    
   183   92   93 2    
   184   92   94 am   BACKBONE|DICT|INTERRES
   185   94   95 1    
   186   94  215 1    
   187   95   96 1    
   188   95   97 1    
   189   95  216 1    
   190   96  217 1    
   191   96  218 1    
   192   96  219 1    
   193   97   98 2    
   194   97   99 am   BACKBONE|DICT|INTERRES
   195   99  100 1    
   196   99  220 1    
   197  100  101 1    
   198  100  102 1    
   199  100  221 1    
   200  101  222 1    
   201  101  223 1    
   202  101  224 1    
   203  102  103 2    
   204  102  104 am   BACKBONE|DICT|INTERRES
   205  104  105 1    
   206  104  225 1    
   207  105  106 1    
   208  105  107 1    
   209  105  226 1    
   210  106  227 1    
   211  106  228 1    
   212  106  229 1    
   213  107  108 2    
   214  107  109 am   BACKBONE|DICT|INTERRES
   215  109  110 1    
   216  109  230 1    
   217  110  111 1    
   218  110  112 1    
   219  110  231 1    
   220  111  232 1    
   221  111  233 1    
   222  111  234 1    
   223  112  113 2    
   224  112  114 am   BACKBONE|DICT|INTERRES
   225  114  115 1    
   226  114  235 1    
   227  115  116 1    
   228  115  117 1    
   229  115  236 1    
   230  116  237 1    
   231  116  238 1    
   232  116  239 1    
   233  117  118 2    
   234  117  119 am   BACKBONE|DICT|INTERRES
   235  119  120 1    
   236  119  240 1    
   237  120  121 1    
   238  120  124 1    
   239  120  241 1    
   240  121  122 am   BACKBONE|DICT|INTERRES
   241  121  123 2    
   242  122  242 1    
   243  122  243 1    
   244  124  125 1    
   245  124  244 1    
   246  124  245 1    
   247  125  126 1    
   248  126  246 1    
   249  126  247 1    
@<TRIPOS>SUBSTRUCTURE
     1 UNK         1 GROUP             0       ****    0 ROOT    
