@<TRIPOS>MOLECULE
3R540
247   249    1
SMALL
USER_CHARGES


@<TRIPOS>ATOM
      1 CA          2.9483  -17.8369  -47.6053 C.3       0 UNK        -0.1800 
      2 C           2.3317  -17.2552  -48.8729 C.2       0 UNK         0.5000 
      3 O           2.5976  -17.7617  -49.9609 O.2       0 UNK        -0.5000 
      4 N           1.4998  -16.2102  -48.7917 N.am      1 UNK        -0.5000 
      5 CA          1.1491  -15.4247  -47.6029 C.3       1 UNK         0.1400 
      6 C6         -0.2404  -14.7417  -47.7468 C.3       23 UNK        -0.0398 
      7 S7         -0.5266  -13.9277  -49.3627 S.3       23 UNK        -0.2404 
      8 C8         -2.3212  -14.1878  -49.6176 C.3       23 UNK        -0.0205 
      9 C9         -2.8025  -15.6377  -49.7435 C.ar      23 UNK        -0.0193 
     10 C10        -4.1791  -15.8811  -49.7348 C.ar      23 UNK        -0.1150 
     11 C11        -4.6821  -17.1842  -49.8131 C.ar      23 UNK        -0.0193 
     12 C12        -3.7932  -18.2609  -49.8636 C.ar      23 UNK        -0.1150 
     13 C13        -2.4145  -18.0369  -49.8855 C.ar      23 UNK        -0.0193 
     14 C14        -1.9313  -16.7274  -49.8600 C.ar      23 UNK        -0.1150 
     15 C15        -1.4331  -19.1967  -49.8964 C.3       23 UNK        -0.0205 
     16 S16        -0.6860  -19.3959  -48.2508 S.3       23 UNK        -0.2404 
     17 C17         0.3338  -20.8863  -48.4730 C.3       23 UNK        -0.0398 
     18 CA         -0.1121  -22.0895  -47.6093 C.3       11 UNK         0.1400 
     19 N           0.0333  -21.8539  -46.1649 N.am      11 UNK        -0.5000 
     20 C           0.0178  -22.8291  -45.2418 C.2       10 UNK         0.5000 
     21 O          -0.1577  -24.0176  -45.5127 O.2       10 UNK        -0.5000 
     22 CA          0.1606  -22.4083  -43.7730 C.3       10 UNK         0.1400 
     23 CB          1.5959  -21.9616  -43.4525 C.3       10 UNK        -0.1800 
     24 N          -0.7887  -21.3476  -43.4444 N.am      10 UNK        -0.5000 
     25 C          -2.0829  -21.5591  -43.1641 C.2       9 UNK         0.5000 
     26 O          -2.5902  -22.6793  -43.1103 O.2       9 UNK        -0.5000 
     27 CA         -2.9663  -20.3245  -42.9000 C.3       9 UNK         0.1400 
     28 CB         -3.1710  -20.1223  -41.3909 C.3       9 UNK        -0.1800 
     29 N          -2.4139  -19.0992  -43.4773 N.am      9 UNK        -0.5000 
     30 C          -2.4964  -18.7770  -44.7773 C.2       8 UNK         0.5000 
     31 O          -3.0862  -19.4637  -45.6095 O.2       8 UNK        -0.5000 
     32 CA         -1.7644  -17.4947  -45.2274 C.3       8 UNK         0.1400 
     33 CB         -2.6948  -16.2783  -45.1093 C.3       8 UNK        -0.1800 
     34 N          -0.5360  -17.2357  -44.4724 N.am      8 UNK        -0.5000 
     35 C           0.5029  -18.0783  -44.3678 C.2       7 UNK         0.5000 
     36 O           0.5891  -19.1329  -44.9964 O.2       7 UNK        -0.5000 
     37 CA          1.5951  -17.7223  -43.3403 C.3       7 UNK         0.1400 
     38 CB          2.8509  -17.1812  -44.0360 C.3       7 UNK        -0.1800 
     39 N           1.1605  -16.7597  -42.3252 N.am      7 UNK        -0.5000 
     40 C           0.2112  -16.9620  -41.4031 C.2       6 UNK         0.5000 
     41 O          -0.4506  -17.9997  -41.3423 O.2       6 UNK        -0.5000 
     42 CA         -0.0518  -15.8044  -40.4112 C.3       6 UNK         0.1400 
     43 CB         -1.0153  -16.2088  -39.2806 C.3       6 UNK        -0.1800 
     44 N           1.1699  -15.2525  -39.8130 N.am      6 UNK        -0.5000 
     45 C           2.0648  -14.4724  -40.4310 C.2       5 UNK         0.5000 
     46 O           1.9921  -14.1608  -41.6228 O.2       5 UNK        -0.5000 
     47 CA          3.2578  -13.9932  -39.5964 C.3       5 UNK         0.1400 
     48 CB          4.3074  -15.1090  -39.4437 C.3       5 UNK        -0.1800 
     49 N           3.8486  -12.8468  -40.2749 N.am      5 UNK        -0.5000 
     50 C           4.5925  -11.8915  -39.7105 C.2       4 UNK         0.5000 
     51 O           4.8933  -11.8766  -38.5160 O.2       4 UNK        -0.5000 
     52 CA          5.0949  -10.7636  -40.6323 C.3       4 UNK         0.1400 
     53 CB          6.5523  -11.0235  -41.0449 C.3       4 UNK        -0.1800 
     54 N           4.2887  -10.5869  -41.8441 N.am      4 UNK        -0.5000 
     55 C           3.0838   -9.9987  -41.8851 C.2       3 UNK         0.5000 
     56 O           2.4962   -9.5827  -40.8860 O.2       3 UNK        -0.5000 
     57 CA          2.4314   -9.8275  -43.2710 C.3       3 UNK         0.1400 
     58 CB          2.6737   -8.4041  -43.7979 C.3       3 UNK        -0.1800 
     59 N           2.9487  -10.7878  -44.2501 N.am      3 UNK        -0.5000 
     60 C           2.3637  -11.9550  -44.5413 C.2       2 UNK         0.5000 
     61 O           1.2804  -12.3210  -44.0778 O.2       2 UNK        -0.5000 
     62 CA          3.1276  -12.8727  -45.5058 C.3       2 UNK         0.1400 
     63 CB          4.2837  -13.5879  -44.7827 C.3       2 UNK        -0.1800 
     64 N           2.2017  -13.8661  -46.0380 N.am      2 UNK        -0.5000 
     65 C           2.2587  -14.4059  -47.2594 C.2       1 UNK         0.5000 
     66 O           3.1355  -14.1330  -48.0836 O.2       1 UNK        -0.5000 
     67 C          -1.5084  -22.6217  -48.0016 C.2       11 UNK         0.5000 
     68 O          -1.6270  -23.2955  -49.0267 O.2       11 UNK        -0.5000 
     69 N          -2.5228  -22.3804  -47.1562 N.am      12 UNK        -0.5000 
     70 CA         -3.8558  -22.9824  -47.2411 C.3       12 UNK         0.1400 
     71 CB         -4.7493  -22.4304  -46.1221 C.3       12 UNK        -0.1800 
     72 C          -3.8360  -24.5234  -47.2074 C.2       12 UNK         0.5000 
     73 O          -4.6673  -25.1495  -47.8644 O.2       12 UNK        -0.5000 
     74 N          -2.8709  -25.0986  -46.4786 N.am      13 UNK        -0.5000 
     75 CA         -2.6193  -26.5343  -46.4260 C.3       13 UNK         0.1400 
     76 CB         -2.2966  -26.9384  -44.9782 C.3       13 UNK        -0.1800 
     77 C          -1.4708  -26.9207  -47.3713 C.2       13 UNK         0.5000 
     78 O          -1.6401  -27.8179  -48.1967 O.2       13 UNK        -0.5000 
     79 N          -0.3230  -26.2415  -47.2343 N.am      14 UNK        -0.5000 
     80 CA          0.9455  -26.6091  -47.8689 C.3       14 UNK         0.1400 
     81 CB          2.0860  -25.8193  -47.2082 C.3       14 UNK        -0.1800 
     82 C           0.9799  -26.4262  -49.3967 C.2       14 UNK         0.5000 
     83 O           1.6874  -27.1754  -50.0713 O.2       14 UNK        -0.5000 
     84 N           0.2276  -25.4470  -49.9129 N.am      15 UNK        -0.5000 
     85 CA          0.1276  -25.1340  -51.3408 C.3       15 UNK         0.1400 
     86 CB          0.6873  -23.7198  -51.5780 C.3       15 UNK        -0.1800 
     87 C          -1.3220  -25.2481  -51.8452 C.2       15 UNK         0.5000 
     88 O          -1.6058  -24.8041  -52.9588 O.2       15 UNK        -0.5000 
     89 N          -2.2230  -25.7954  -51.0133 N.am      16 UNK        -0.5000 
     90 CA         -3.6683  -25.9191  -51.2359 C.3       16 UNK         0.1400 
     91 CB         -3.9544  -26.9739  -52.3250 C.3       16 UNK        -0.1800 
     92 C          -4.3432  -24.5605  -51.5267 C.2       16 UNK         0.5000 
     93 O          -5.1747  -24.4657  -52.4293 O.2       16 UNK        -0.5000 
     94 N          -3.9263  -23.5209  -50.7883 N.am      17 UNK        -0.5000 
     95 CA         -4.3216  -22.1163  -50.9415 C.3       17 UNK         0.1400 
     96 CB         -5.8237  -21.9167  -50.6491 C.3       17 UNK        -0.1800 
     97 C          -3.8777  -21.5410  -52.2999 C.2       17 UNK         0.5000 
     98 O          -4.6549  -20.8678  -52.9767 O.2       17 UNK        -0.5000 
     99 N          -2.6308  -21.8605  -52.6793 N.am      18 UNK        -0.5000 
    100 CA        -1.9931  -21.5616  -53.9653 C.3       18 UNK         0.1400 
    101 CB        -1.7355  -20.0469  -54.1066 C.3       18 UNK        -0.1800 
    102 C         -2.7962  -22.1593  -55.1384 C.2       18 UNK         0.5000 
    103 O         -3.2002  -21.4353  -56.0485 O.2       18 UNK        -0.5000 
    104 N         -3.0686  -23.4701  -55.0466 N.am      19 UNK        -0.5000 
    105 CA        -3.9238  -24.2599  -55.9428 C.3       19 UNK         0.1400 
    106 CB        -3.2358  -24.4554  -57.3094 C.3       19 UNK        -0.1800 
    107 C         -5.3525  -23.6810  -56.0613 C.2       19 UNK         0.5000 
    108 O         -5.9022  -23.5891  -57.1602 O.2       19 UNK        -0.5000 
    109 N         -5.9005  -23.2659  -54.9111 N.am      20 UNK        -0.5000 
    110 CA        -7.1902  -22.6062  -54.6880 C.3       20 UNK         0.1400 
    111 CB        -8.3532  -23.5391  -55.0837 C.3       20 UNK        -0.1800 
    112 C         -7.3335  -21.2003  -55.3138 C.2       20 UNK         0.5000 
    113 O         -8.4302  -20.6399  -55.2635 O.2       20 UNK        -0.5000 
    114 N         -6.2579  -20.6393  -55.8839 N.am      21 UNK        -0.5000 
    115 CA        -6.2719  -19.3272  -56.5319 C.3       21 UNK         0.1400 
    116 CB        -5.2213  -19.3042  -57.6529 C.3       21 UNK        -0.1800 
    117 C         -6.0291  -18.1689  -55.5480 C.2       21 UNK         0.5000 
    118 O         -6.4603  -17.0503  -55.8339 O.2       21 UNK        -0.5000 
    119 N         -5.3493  -18.4473  -54.4262 N.am      22 UNK        -0.5000 
    120 CA        -4.8790  -17.4843  -53.4149 C.3       22 UNK         0.1400 
    121 C         -3.8430  -16.4427  -53.9423 C.2       22 UNK         0.5000 
    122 N         -3.2763  -15.6281  -53.0626 N.am      22 UNK        -0.7600 
    123 O         -3.5051  -16.3786  -55.1221 O.2       22 UNK        -0.5000 
    124 C124       -6.0527  -16.8342  -52.6238 C.3       23 UNK        -0.0398 
    125 S125       -6.7880  -18.0272  -51.4522 S.3       23 UNK        -0.2404 
    126 C126       -6.1870  -17.4224  -49.8368 C.3       23 UNK        -0.0205 
    127 H127        3.6410  -18.6420  -47.8504 H         1 UNK         0.0600 
    128 H128        2.1721  -18.2519  -46.9645 H         1 UNK         0.0600 
    129 H129        3.5025  -17.0782  -47.0540 H         1 UNK         0.0600 
    130 H130        1.1446  -15.8201  -49.6523 H         1 UNK         0.3000 
    131 H131        1.0782  -16.1076  -46.7550 H         1 UNK         0.0600 
    132 H132       -1.0080  -15.5001  -47.5998 H         1 UNK         0.0800 
    133 H133       -0.4157  -14.0118  -46.9546 H         1 UNK         0.0800 
    134 H134       -2.6134  -13.6501  -50.5205 H         1 UNK         0.0800 
    135 H135       -2.8509  -13.7096  -48.7922 H         1 UNK         0.0800 
    136 H136       -4.8651  -15.0480  -49.6653 H         1 UNK         0.1150 
    137 H137       -4.1807  -19.2680  -49.8898 H         1 UNK         0.1150 
    138 H138       -0.8650  -16.5782  -49.8917 H         1 UNK         0.1150 
    139 H139       -1.9272  -20.1218  -50.1901 H         1 UNK         0.0800 
    140 H140       -0.6496  -19.0102  -50.6327 H         1 UNK         0.0800 
    141 H141        0.3547  -21.1617  -49.5280 H         1 UNK         0.0800 
    142 H142        1.3622  -20.6223  -48.2231 H         1 UNK         0.0800 
    143 H143        0.5784  -22.8986  -47.8533 H         1 UNK         0.0600 
    144 H144        0.1654  -20.8902  -45.8695 H         1 UNK         0.3000 
    145 H145       -0.0567  -23.2801  -43.1517 H         1 UNK         0.0600 
    146 H146        1.6882  -21.6497  -42.4120 H         1 UNK         0.0600 
    147 H147        1.9242  -21.1340  -44.0802 H         1 UNK         0.0600 
    148 H148        2.2973  -22.7820  -43.6087 H         1 UNK         0.0600 
    149 H149       -0.4573  -20.3972  -43.5347 H         1 UNK         0.3000 
    150 H150       -3.9432  -20.5150  -43.3500 H         1 UNK         0.0600 
    151 H151       -3.6487  -20.9943  -40.9425 H         1 UNK         0.0600 
    152 H152       -3.8102  -19.2624  -41.1899 H         1 UNK         0.0600 
    153 H153       -2.2246  -19.9660  -40.8724 H         1 UNK         0.0600 
    154 H154       -1.8774  -18.5103  -42.8505 H         1 UNK         0.3000 
    155 H155       -1.4930  -17.6077  -46.2757 H         1 UNK         0.0600 
    156 H156       -3.5887  -16.4142  -45.7197 H         1 UNK         0.0600 
    157 H157       -2.2064  -15.3660  -45.4504 H         1 UNK         0.0600 
    158 H158       -3.0199  -16.1185  -44.0804 H         1 UNK         0.0600 
    159 H159       -0.5246  -16.4042  -43.9013 H         1 UNK         0.3000 
    160 H160        1.8640  -18.6457  -42.8234 H         1 UNK         0.0600 
    161 H161        2.6356  -16.2856  -44.6175 H         1 UNK         0.0600 
    162 H162        3.2704  -17.9267  -44.7117 H         1 UNK         0.0600 
    163 H163        3.6275  -16.9317  -43.3127 H         1 UNK         0.0600 
    164 H164        1.6323  -15.8587  -42.3078 H         1 UNK         0.3000 
    165 H165       -0.5351  -15.0104  -40.9842 H         1 UNK         0.0600 
    166 H166       -1.2332  -15.3645  -38.6263 H         1 UNK         0.0600 
    167 H167       -1.9681  -16.5583  -39.6809 H         1 UNK         0.0600 
    168 H168       -0.6017  -17.0111  -38.6684 H         1 UNK         0.0600 
    169 H169        1.3311  -15.4960  -38.8461 H         1 UNK         0.3000 
    170 H170        2.8926  -13.6870  -38.6139 H         1 UNK         0.0600 
    171 H171        4.6891  -15.4346  -40.4123 H         1 UNK         0.0600 
    172 H172        5.1556  -14.7764  -38.8453 H         1 UNK         0.0600 
    173 H173        3.8846  -15.9824  -38.9461 H         1 UNK         0.0600 
    174 H174        3.5866  -12.7661  -41.2494 H         1 UNK         0.3000 
    175 H175        5.0647   -9.8345  -40.0590 H         1 UNK         0.0600 
    176 H176        6.6471  -11.9361  -41.6348 H         1 UNK         0.0600 
    177 H177        6.9490  -10.1975  -41.6357 H         1 UNK         0.0600 
    178 H178        7.1936  -11.1312  -40.1690 H         1 UNK         0.0600 
    179 H179        4.7004  -10.9053  -42.7074 H         1 UNK         0.3000 
    180 H180        1.3544   -9.9602  -43.1466 H         1 UNK         0.0600 
    181 H181        3.7361   -8.1987  -43.9348 H         1 UNK         0.0600 
    182 H182        2.2818   -7.6585  -43.1047 H         1 UNK         0.0600 
    183 H183        2.1756   -8.2490  -44.7552 H         1 UNK         0.0600 
    184 H184        3.8159  -10.5439  -44.7071 H         1 UNK         0.3000 
    185 H185        3.5232  -12.2598  -46.3187 H         1 UNK         0.0600 
    186 H186        3.9267  -14.1655  -43.9288 H         1 UNK         0.0600 
    187 H187        4.8068  -14.2707  -45.4524 H         1 UNK         0.0600 
    188 H188        5.0190  -12.8737  -44.4111 H         1 UNK         0.0600 
    189 H189        1.4209  -14.0550  -45.4221 H         1 UNK         0.3000 
    190 H190       -2.3540  -21.7661  -46.3713 H         1 UNK         0.3000 
    191 H191       -4.2957  -22.6805  -48.1883 H         1 UNK         0.0600 
    192 H192       -4.8632  -21.3499  -46.2047 H         1 UNK         0.0600 
    193 H193       -4.3451  -22.6545  -45.1355 H         1 UNK         0.0600 
    194 H194       -5.7493  -22.8629  -46.1722 H         1 UNK         0.0600 
    195 H195       -2.2050  -24.5076  -45.9962 H         1 UNK         0.3000 
    196 H196       -3.5087  -27.0884  -46.7340 H         1 UNK         0.0600 
    197 H197       -3.1379  -26.7290  -44.3174 H         1 UNK         0.0600 
    198 H198       -1.4284  -26.4052  -44.5886 H         1 UNK         0.0600 
    199 H199       -2.0861  -28.0063  -44.9081 H         1 UNK         0.0600 
    200 H200       -0.2739  -25.4946  -46.5440 H         1 UNK         0.3000 
    201 H201        1.1156  -27.6692  -47.6689 H         1 UNK         0.0600 
    202 H202        2.1199  -25.9998  -46.1335 H         1 UNK         0.0600 
    203 H203        1.9776  -24.7461  -47.3629 H         1 UNK         0.0600 
    204 H204        3.0535  -26.1131  -47.6171 H         1 UNK         0.0600 
    205 H205       -0.3379  -24.8739  -49.2971 H         1 UNK         0.3000 
    206 H206        0.7157  -25.8359  -51.9349 H         1 UNK         0.0600 
    207 H207        1.7008  -23.6262  -51.1878 H         1 UNK         0.0600 
    208 H208        0.0726  -22.9571  -51.1013 H         1 UNK         0.0600 
    209 H209        0.7300  -23.4882  -52.6428 H         1 UNK         0.0600 
    210 H210       -1.8853  -26.1534  -50.1309 H         1 UNK         0.3000 
    211 H211       -4.0977  -26.2825  -50.3017 H         1 UNK         0.0600 
    212 H212       -3.5865  -26.6592  -53.3019 H         1 UNK         0.0600 
    213 H213       -5.0254  -27.1558  -52.4218 H         1 UNK         0.0600 
    214 H214       -3.4854  -27.9272  -52.0817 H         1 UNK         0.0600 
    215 H215       -3.1848  -23.6890  -50.1145 H         1 UNK         0.3000 
    216 H216       -3.7669  -21.5633  -50.1847 H         1 UNK         0.0600 
    217 H217       -6.0798  -20.8574  -50.6382 H         1 UNK         0.0600 
    218 H218       -6.0997  -22.3257  -49.6778 H         1 UNK         0.0600 
    219 H219       -6.4534  -22.3937  -51.3986 H         1 UNK         0.0600 
    220 H220       -2.1085  -22.4795  -52.0769 H         1 UNK         0.3000 
    221 H221       -1.0250  -22.0642  -53.9616 H         1 UNK         0.0600 
    222 H222       -2.6630  -19.4789  -54.1681 H         1 UNK         0.0600 
    223 H223       -1.1640  -19.6627  -53.2619 H         1 UNK         0.0600 
    224 H224       -1.1650  -19.8330  -55.0108 H         1 UNK         0.0600 
    225 H225       -2.6731  -23.9772  -54.2570 H         1 UNK         0.3000 
    226 H226       -4.0293  -25.2421  -55.4801 H         1 UNK         0.0600 
    227 H227       -2.2411  -24.8850  -57.1910 H         1 UNK         0.0600 
    228 H228       -3.8087  -25.1343  -57.9420 H         1 UNK         0.0600 
    229 H229       -3.1324  -23.5135  -57.8491 H         1 UNK         0.0600 
    230 H230       -5.3800  -23.4496  -54.0575 H         1 UNK         0.3000 
    231 H231       -7.2517  -22.4508  -53.6111 H         1 UNK         0.0600 
    232 H232       -9.3125  -23.1253  -54.7711 H         1 UNK         0.0600 
    233 H233       -8.2537  -24.5151  -54.6085 H         1 UNK         0.0600 
    234 H234       -8.4012  -23.6925  -56.1620 H         1 UNK         0.0600 
    235 H235       -5.3737  -21.1344  -55.8732 H         1 UNK         0.3000 
    236 H236       -7.2478  -19.1689  -56.9960 H         1 UNK         0.0600 
    237 H237       -4.2070  -19.3496  -57.2558 H         1 UNK         0.0600 
    238 H238       -5.3533  -20.1405  -58.3396 H         1 UNK         0.0600 
    239 H239       -5.2985  -18.3861  -58.2365 H         1 UNK         0.0600 
    240 H240       -5.0865  -19.4108  -54.2427 H         1 UNK         0.3000 
    241 H241       -4.2985  -18.0900  -52.7185 H         1 UNK         0.0600 
    242 H242       -2.5936  -14.9633  -53.3907 H         1 UNK         0.3800 
    243 H243       -3.4685  -15.6987  -52.0754 H         1 UNK         0.3800 
    244 H244       -6.8330  -16.4816  -53.2980 H         1 UNK         0.0800 
    245 H245       -5.7390  -15.9487  -52.0721 H         1 UNK         0.0800 
    246 H246       -6.4468  -18.1516  -49.0683 H         1 UNK         0.0800 
    247 H247       -6.7251  -16.5080  -49.5825 H         1 UNK         0.0800 
@<TRIPOS>BOND
     1    1    2 1    
     2    1  127 1    
     3    1  128 1    
     4    1  129 1    
     5    2    3 2    
     6    2    4 am   BACKBONE|DICT|INTERRES
     7    4    5 1    
     8    4  130 1    
     9    5    6 1    
    10    5   65 1    
    11    5  131 1    
    12    6    7 1    
    13    6  132 1    
    14    6  133 1    
    15    7    8 1    
    16    8    9 1    
    17    8  134 1    
    18    8  135 1    
    19    9   10 ar   
    20    9   14 ar   
    21   10   11 ar   
    22   10  136 1    
    23   11   12 ar   
    24   11  126 1    
    25   12   13 ar   
    26   12  137 1    
    27   13   14 ar   
    28   13   15 1    
    29   14  138 1    
    30   15   16 1    
    31   15  139 1    
    32   15  140 1    
    33   16   17 1    
    34   17   18 1    
    35   17  141 1    
    36   17  142 1    
    37   18   19 1    
    38   18   67 1    
    39   18  143 1    
    40   19   20 am   BACKBONE|DICT|INTERRES
    41   19  144 1    
    42   20   21 2    
    43   20   22 1    
    44   22   23 1    
    45   22   24 1    
    46   22  145 1    
    47   23  146 1    
    48   23  147 1    
    49   23  148 1    
    50   24   25 am   BACKBONE|DICT|INTERRES
    51   24  149 1    
    52   25   26 2    
    53   25   27 1    
    54   27   28 1    
    55   27   29 1    
    56   27  150 1    
    57   28  151 1    
    58   28  152 1    
    59   28  153 1    
    60   29   30 am   BACKBONE|DICT|INTERRES
    61   29  154 1    
    62   30   31 2    
    63   30   32 1    
    64   32   33 1    
    65   32   34 1    
    66   32  155 1    
    67   33  156 1    
    68   33  157 1    
    69   33  158 1    
    70   34   35 am   BACKBONE|DICT|INTERRES
    71   34  159 1    
    72   35   36 2    
    73   35   37 1    
    74   37   38 1    
    75   37   39 1    
    76   37  160 1    
    77   38  161 1    
    78   38  162 1    
    79   38  163 1    
    80   39   40 am   BACKBONE|DICT|INTERRES
    81   39  164 1    
    82   40   41 2    
    83   40   42 1    
    84   42   43 1    
    85   42   44 1    
    86   42  165 1    
    87   43  166 1    
    88   43  167 1    
    89   43  168 1    
    90   44   45 am   BACKBONE|DICT|INTERRES
    91   44  169 1    
    92   45   46 2    
    93   45   47 1    
    94   47   48 1    
    95   47   49 1    
    96   47  170 1    
    97   48  171 1    
    98   48  172 1    
    99   48  173 1    
   100   49   50 am   BACKBONE|DICT|INTERRES
   101   49  174 1    
   102   50   51 2    
   103   50   52 1    
   104   52   53 1    
   105   52   54 1    
   106   52  175 1    
   107   53  176 1    
   108   53  177 1    
   109   53  178 1    
   110   54   55 am   BACKBONE|DICT|INTERRES
   111   54  179 1    
   112   55   56 2    
   113   55   57 1    
   114   57   58 1    
   115   57   59 1    
   116   57  180 1    
   117   58  181 1    
   118   58  182 1    
   119   58  183 1    
   120   59   60 am   BACKBONE|DICT|INTERRES
   121   59  184 1    
   122   60   61 2    
   123   60   62 1    
   124   62   63 1    
   125   62   64 1    
   126   62  185 1    
   127   63  186 1    
   128   63  187 1    
   129   63  188 1    
   130   64   65 am   BACKBONE|DICT|INTERRES
   131   64  189 1    
   132   65   66 2    
   133   67   68 2    
   134   67   69 am   BACKBONE|DICT|INTERRES
   135   69   70 1    
   136   69  190 1    
   137   70   71 1    
   138   70   72 1    
   139   70  191 1    
   140   71  192 1    
   141   71  193 1    
   142   71  194 1    
   143   72   73 2    
   144   72   74 am   BACKBONE|DICT|INTERRES
   145   74   75 1    
   146   74  195 1    
   147   75   76 1    
   148   75   77 1    
   149   75  196 1    
   150   76  197 1    
   151   76  198 1    
   152   76  199 1    
   153   77   78 2    
   154   77   79 am   BACKBONE|DICT|INTERRES
   155   79   80 1    
   156   79  200 1    
   157   80   81 1    
   158   80   82 1    
   159   80  201 1    
   160   81  202 1    
   161   81  203 1    
   162   81  204 1    
   163   82   83 2    
   164   82   84 am   BACKBONE|DICT|INTERRES
   165   84   85 1    
   166   84  205 1    
   167   85   86 1    
   168   85   87 1    
   169   85  206 1    
   170   86  207 1    
   171   86  208 1    
   172   86  209 1    
   173   87   88 2    
   174   87   89 am   BACKBONE|DICT|INTERRES
   175   89   90 1    
   176   89  210 1    
   177   90   91 1    
   178   90   92 1    
   179   90  211 1    
   180   91  212 1    
   181   91  213 1    
   182   91  214 1    
   183   92   93 2    
   184   92   94 am   BACKBONE|DICT|INTERRES
   185   94   95 1    
   186   94  215 1    
   187   95   96 1    
   188   95   97 1    
   189   95  216 1    
   190   96  217 1    
   191   96  218 1    
   192   96  219 1    
   193   97   98 2    
   194   97   99 am   BACKBONE|DICT|INTERRES
   195   99  100 1    
   196   99  220 1    
   197  100  101 1    
   198  100  102 1    
   199  100  221 1    
   200  101  222 1    
   201  101  223 1    
   202  101  224 1    
   203  102  103 2    
   204  102  104 am   BACKBONE|DICT|INTERRES
   205  104  105 1    
   206  104  225 1    
   207  105  106 1    
   208  105  107 1    
   209  105  226 1    
   210  106  227 1    
   211  106  228 1    
   212  106  229 1    
   213  107  108 2    
   214  107  109 am   BACKBONE|DICT|INTERRES
   215  109  110 1    
   216  109  230 1    
   217  110  111 1    
   218  110  112 1    
   219  110  231 1    
   220  111  232 1    
   221  111  233 1    
   222  111  234 1    
   223  112  113 2    
   224  112  114 am   BACKBONE|DICT|INTERRES
   225  114  115 1    
   226  114  235 1    
   227  115  116 1    
   228  115  117 1    
   229  115  236 1    
   230  116  237 1    
   231  116  238 1    
   232  116  239 1    
   233  117  118 2    
   234  117  119 am   BACKBONE|DICT|INTERRES
   235  119  120 1    
   236  119  240 1    
   237  120  121 1    
   238  120  124 1    
   239  120  241 1    
   240  121  122 am   BACKBONE|DICT|INTERRES
   241  121  123 2    
   242  122  242 1    
   243  122  243 1    
   244  124  125 1    
   245  124  244 1    
   246  124  245 1    
   247  125  126 1    
   248  126  246 1    
   249  126  247 1    
@<TRIPOS>SUBSTRUCTURE
     1 UNK         1 GROUP             0       ****    0 ROOT    
