@<TRIPOS>MOLECULE
3R540
247   249    1
SMALL
USER_CHARGES


@<TRIPOS>ATOM
      1 CA          7.4137  -11.5082  -49.8868 C.3       0 UNK        -0.1800 
      2 C           6.7586  -11.5645  -48.5141 C.2       0 UNK         0.5000 
      3 O           7.1767  -10.8456  -47.6066 O.2       0 UNK        -0.5000 
      4 N           5.7402  -12.4200  -48.3606 N.am      1 UNK        -0.5000 
      5 CA          4.9418  -12.5881  -47.1406 C.3       1 UNK         0.1400 
      6 C6          4.0525  -13.8596  -47.1819 C.3       23 UNK        -0.0398 
      7 S7          3.1518  -14.0929  -48.7558 S.3       23 UNK        -0.2404 
      8 C8          1.7462  -15.1174  -48.2307 C.3       23 UNK        -0.0205 
      9 C9          1.3239  -16.0471  -49.3556 C.ar      23 UNK        -0.0193 
     10 C10         0.4066  -15.6232  -50.3215 C.ar      23 UNK        -0.1150 
     11 C11         0.0677  -16.4592  -51.3900 C.ar      23 UNK        -0.0193 
     12 C12         0.6329  -17.7363  -51.4705 C.ar      23 UNK        -0.1150 
     13 C13         1.5463  -18.1752  -50.5071 C.ar      23 UNK        -0.0193 
     14 C14         1.8881  -17.3222  -49.4530 C.ar      23 UNK        -0.1150 
     15 C15         2.2143  -19.5385  -50.6511 C.3       23 UNK        -0.0205 
     16 S16         2.1239  -20.5546  -49.1409 S.3       23 UNK        -0.2404 
     17 C17         0.3526  -20.9714  -49.1037 C.3       23 UNK        -0.0398 
     18 CA          0.0723  -22.2167  -48.2326 C.3       11 UNK         0.1400 
     19 N           0.2862  -21.9714  -46.8035 N.am      11 UNK        -0.5000 
     20 C           0.2897  -22.9268  -45.8634 C.2       10 UNK         0.5000 
     21 O           0.1780  -24.1277  -46.1120 O.2       10 UNK        -0.5000 
     22 CA          0.3680  -22.4621  -44.3972 C.3       10 UNK         0.1400 
     23 CB          1.8145  -22.1439  -43.9911 C.3       10 UNK        -0.1800 
     24 N          -0.4930  -21.3072  -44.1338 N.am      10 UNK        -0.5000 
     25 C          -1.8312  -21.3338  -44.2196 C.2       9 UNK         0.5000 
     26 O          -2.4763  -22.3543  -44.4595 O.2       9 UNK        -0.5000 
     27 CA         -2.5732  -19.9936  -44.0608 C.3       9 UNK         0.1400 
     28 CB         -2.7809  -19.6554  -42.5775 C.3       9 UNK        -0.1800 
     29 N          -1.8920  -18.8845  -44.7296 N.am      9 UNK        -0.5000 
     30 C          -1.6859  -18.7995  -46.0514 C.2       8 UNK         0.5000 
     31 O          -2.0979  -19.6304  -46.8575 O.2       8 UNK        -0.5000 
     32 CA         -0.8226  -17.6261  -46.5505 C.3       8 UNK         0.1400 
     33 CB         -1.6593  -16.3465  -46.6955 C.3       8 UNK        -0.1800 
     34 N           0.3290  -17.3818  -45.6789 N.am      8 UNK        -0.5000 
     35 C           1.3291  -18.2585  -45.5037 C.2       7 UNK         0.5000 
     36 O           1.4047  -19.3317  -46.0984 O.2       7 UNK        -0.5000 
     37 CA          2.3835  -17.9115  -44.4399 C.3       7 UNK         0.1400 
     38 CB          3.4751  -16.9956  -45.0115 C.3       7 UNK        -0.1800 
     39 N           1.7760  -17.2918  -43.2625 N.am      7 UNK        -0.5000 
     40 C           1.0437  -17.9673  -42.3637 C.2       6 UNK         0.5000 
     41 O           0.8561  -19.1828  -42.4165 O.2       6 UNK        -0.5000 
     42 CA          0.3721  -17.1466  -41.2447 C.3       6 UNK         0.1400 
     43 CB          1.3245  -16.9827  -40.0513 C.3       6 UNK        -0.1800 
     44 N          -0.0734  -15.8254  -41.6909 N.am      6 UNK        -0.5000 
     45 C          -0.9964  -15.6103  -42.6389 C.2       5 UNK         0.5000 
     46 O          -1.6298  -16.5134  -43.1817 O.2       5 UNK        -0.5000 
     47 CA         -1.2206  -14.1556  -43.0960 C.3       5 UNK         0.1400 
     48 CB         -2.4675  -13.5669  -42.4208 C.3       5 UNK        -0.1800 
     49 N          -0.0818  -13.2659  -42.8549 N.am      5 UNK        -0.5000 
     50 C           1.1501  -13.4095  -43.3585 C.2       4 UNK         0.5000 
     51 O           1.4778  -14.3384  -44.1001 O.2       4 UNK        -0.5000 
     52 CA          2.1755  -12.3363  -42.9417 C.3       4 UNK         0.1400 
     53 CB          3.6259  -12.8189  -43.1182 C.3       4 UNK        -0.1800 
     54 N           1.9771  -11.0814  -43.6715 N.am      4 UNK        -0.5000 
     55 C           0.9713  -10.2185  -43.4558 C.2       3 UNK         0.5000 
     56 O           0.1173  -10.3876  -42.5830 O.2       3 UNK        -0.5000 
     57 CA          0.8948   -8.9462  -44.3258 C.3       3 UNK         0.1400 
     58 CB          1.2479   -7.7046  -43.4913 C.3       3 UNK        -0.1800 
     59 N           1.7578   -8.9715  -45.5061 N.am      3 UNK        -0.5000 
     60 C           1.5243   -9.6650  -46.6276 C.2       2 UNK         0.5000 
     61 O           0.5313  -10.3725  -46.8004 O.2       2 UNK        -0.5000 
     62 CA          2.5909   -9.5698  -47.7413 C.3       2 UNK         0.1400 
     63 CB          3.4761   -8.3064  -47.6519 C.3       2 UNK        -0.1800 
     64 N           3.4328  -10.7680  -47.8054 N.am      2 UNK        -0.5000 
     65 C           4.1233  -11.3267  -46.7996 C.2       1 UNK         0.5000 
     66 O           4.1520  -10.8810  -45.6518 O.2       1 UNK        -0.5000 
     67 C          -1.3329  -22.7851  -48.5158 C.2       11 UNK         0.5000 
     68 O          -1.4479  -23.7092  -49.3171 O.2       11 UNK        -0.5000 
     69 N          -2.3700  -22.2653  -47.8436 N.am      12 UNK        -0.5000 
     70 CA         -3.7452  -22.7629  -47.9330 C.3       12 UNK         0.1400 
     71 CB         -4.7027  -21.8084  -47.2057 C.3       12 UNK        -0.1800 
     72 C          -3.8908  -24.1999  -47.4057 C.2       12 UNK         0.5000 
     73 O          -4.5687  -25.0101  -48.0368 O.2       12 UNK        -0.5000 
     74 N          -3.2171  -24.5089  -46.2891 N.am      13 UNK        -0.5000 
     75 CA         -3.1328  -25.8554  -45.7231 C.3       13 UNK         0.1400 
     76 CB         -2.4492  -25.8024  -44.3488 C.3       13 UNK        -0.1800 
     77 C          -2.4175  -26.8412  -46.6657 C.2       13 UNK         0.5000 
     78 O          -2.9277  -27.9390  -46.8922 O.2       13 UNK        -0.5000 
     79 N          -1.2857  -26.4134  -47.2452 N.am      14 UNK        -0.5000 
     80 CA         -0.5268  -27.1649  -48.2501 C.3       14 UNK         0.1400 
     81 CB          0.7978  -26.4426  -48.5377 C.3       14 UNK        -0.1800 
     82 C          -1.3159  -27.3999  -49.5543 C.2       14 UNK         0.5000 
     83 O          -1.1951  -28.4675  -50.1555 O.2       14 UNK        -0.5000 
     84 N          -2.1435  -26.4197  -49.9390 N.am      15 UNK        -0.5000 
     85 CA         -3.0668  -26.4698  -51.0739 C.3       15 UNK         0.1400 
     86 CB         -3.3488  -25.0331  -51.5485 C.3       15 UNK        -0.1800 
     87 C          -4.3785  -27.2316  -50.7746 C.2       15 UNK         0.5000 
     88 O          -5.2765  -27.2203  -51.6163 O.2       15 UNK        -0.5000 
     89 N          -4.4777  -27.8757  -49.6012 N.am      16 UNK        -0.5000 
     90 CA         -5.5894  -28.7094  -49.1328 C.3       16 UNK         0.1400 
     91 CB         -5.7442  -29.9675  -50.0135 C.3       16 UNK        -0.1800 
     92 C          -6.9033  -27.9214  -48.9550 C.2       16 UNK         0.5000 
     93 O          -7.9662  -28.3769  -49.3805 O.2       16 UNK        -0.5000 
     94 N          -6.7910  -26.7490  -48.3163 N.am      17 UNK        -0.5000 
     95 CA         -7.8559  -25.8027  -47.9655 C.3       17 UNK         0.1400 
     96 CB         -8.9643  -26.4651  -47.1197 C.3       17 UNK        -0.1800 
     97 C          -8.4063  -24.9995  -49.1611 C.2       17 UNK         0.5000 
     98 O          -9.4411  -24.3433  -49.0263 O.2       17 UNK        -0.5000 
     99 N          -7.6880  -25.0129  -50.2916 N.am      18 UNK        -0.5000 
    100 CA        -7.8742  -24.0709  -51.3950 C.3       18 UNK         0.1400 
    101 CB        -7.2423  -24.6597  -52.6649 C.3       18 UNK        -0.1800 
    102 C         -7.2499  -22.7038  -51.0483 C.2       18 UNK         0.5000 
    103 O         -6.5234  -22.5862  -50.0577 O.2       18 UNK        -0.5000 
    104 N         -7.5146  -21.6915  -51.8837 N.am      19 UNK        -0.5000 
    105 CA        -7.0850  -20.2961  -51.7179 C.3       19 UNK         0.1400 
    106 CB        -7.9679  -19.4051  -52.6109 C.3       19 UNK        -0.1800 
    107 C         -5.5734  -20.0564  -51.9554 C.2       19 UNK         0.5000 
    108 O         -5.2007  -19.1272  -52.6744 O.2       19 UNK        -0.5000 
    109 N         -4.7299  -20.9125  -51.3601 N.am      20 UNK        -0.5000 
    110 CA        -3.2628  -20.8536  -51.2807 C.3       20 UNK         0.1400 
    111 CB        -2.8481  -19.7022  -50.3415 C.3       20 UNK        -0.1800 
    112 C         -2.5136  -20.8292  -52.6321 C.2       20 UNK         0.5000 
    113 O         -1.3156  -20.5455  -52.6586 O.2       20 UNK        -0.5000 
    114 N         -3.2306  -21.1361  -53.7238 N.am      21 UNK        -0.5000 
    115 CA        -2.8163  -21.0303  -55.1265 C.3       21 UNK         0.1400 
    116 CB        -1.6984  -22.0445  -55.4479 C.3       21 UNK        -0.1800 
    117 C         -2.4640  -19.5856  -55.5538 C.2       21 UNK         0.5000 
    118 O         -1.6814  -19.3997  -56.4880 O.2       21 UNK        -0.5000 
    119 N         -3.0399  -18.5882  -54.8676 N.am      22 UNK        -0.5000 
    120 CA        -2.8248  -17.1584  -55.1327 C.3       22 UNK         0.1400 
    121 C         -3.5015  -16.6845  -56.4490 C.2       22 UNK         0.5000 
    122 N         -2.9189  -15.7111  -57.1363 N.am      22 UNK        -0.7600 
    123 O         -4.5681  -17.1595  -56.8340 O.2       22 UNK        -0.5000 
    124 C124       -3.2702  -16.2680  -53.9427 C.3       23 UNK        -0.0398 
    125 S125       -2.5064  -16.7372  -52.3535 S.3       23 UNK        -0.2404 
    126 C126       -0.8656  -15.9717  -52.4885 C.3       23 UNK        -0.0205 
    127 H127        6.9476  -12.2014  -50.5876 H         1 UNK         0.0600 
    128 H128        8.4707  -11.7629  -49.8092 H         1 UNK         0.0600 
    129 H129        7.3333  -10.5025  -50.2995 H         1 UNK         0.0600 
    130 H130        5.4435  -12.9847  -49.1448 H         1 UNK         0.3000 
    131 H131        5.6474  -12.7229  -46.3177 H         1 UNK         0.0600 
    132 H132        4.6801  -14.7395  -47.0346 H         1 UNK         0.0800 
    133 H133        3.3417  -13.8624  -46.3534 H         1 UNK         0.0800 
    134 H134        0.9206  -14.4707  -47.9312 H         1 UNK         0.0800 
    135 H135        2.0152  -15.7055  -47.3541 H         1 UNK         0.0800 
    136 H136       -0.0173  -14.6309  -50.2576 H         1 UNK         0.1150 
    137 H137        0.3727  -18.3801  -52.2996 H         1 UNK         0.1150 
    138 H138        2.6099  -17.6461  -48.7162 H         1 UNK         0.1150 
    139 H139        1.7840  -20.0977  -51.4838 H         1 UNK         0.0800 
    140 H140        3.2645  -19.3807  -50.8995 H         1 UNK         0.0800 
    141 H141        0.0280  -21.1420  -50.1322 H         1 UNK         0.0800 
    142 H142       -0.2016  -20.1070  -48.7374 H         1 UNK         0.0800 
    143 H143        0.7802  -22.9930  -48.5309 H         1 UNK         0.0600 
    144 H144        0.4511  -21.0075  -46.5277 H         1 UNK         0.3000 
    145 H145        0.0181  -23.2854  -43.7709 H         1 UNK         0.0600 
    146 H146        1.8755  -21.8609  -42.9401 H         1 UNK         0.0600 
    147 H147        2.4574  -23.0134  -44.1325 H         1 UNK         0.0600 
    148 H148        2.2330  -21.3293  -44.5812 H         1 UNK         0.0600 
    149 H149       -0.0335  -20.4394  -43.8835 H         1 UNK         0.3000 
    150 H150       -3.5563  -20.1021  -44.5227 H         1 UNK         0.0600 
    151 H151       -3.3272  -20.4508  -42.0693 H         1 UNK         0.0600 
    152 H152       -3.3568  -18.7373  -42.4593 H         1 UNK         0.0600 
    153 H153       -1.8326  -19.5244  -42.0569 H         1 UNK         0.0600 
    154 H154       -1.5846  -18.1157  -44.1393 H         1 UNK         0.3000 
    155 H155       -0.4415  -17.8908  -47.5392 H         1 UNK         0.0600 
    156 H156       -2.1087  -16.0432  -45.7505 H         1 UNK         0.0600 
    157 H157       -1.0574  -15.5166  -47.0629 H         1 UNK         0.0600 
    158 H158       -2.4710  -16.4973  -47.4083 H         1 UNK         0.0600 
    159 H159        0.3243  -16.5336  -45.1309 H         1 UNK         0.3000 
    160 H160        2.8613  -18.8444  -44.1326 H         1 UNK         0.0600 
    161 H161        3.0804  -16.0184  -45.2817 H         1 UNK         0.0600 
    162 H162        3.9219  -17.4299  -45.9068 H         1 UNK         0.0600 
    163 H163        4.2762  -16.8414  -44.2886 H         1 UNK         0.0600 
    164 H164        1.8362  -16.2830  -43.1979 H         1 UNK         0.3000 
    165 H165       -0.5066  -17.7006  -40.9085 H         1 UNK         0.0600 
    166 H166        0.8339  -16.4732  -39.2218 H         1 UNK         0.0600 
    167 H167        1.6584  -17.9537  -39.6828 H         1 UNK         0.0600 
    168 H168        2.2132  -16.4101  -40.3200 H         1 UNK         0.0600 
    169 H169        0.3926  -15.0261  -41.2885 H         1 UNK         0.3000 
    170 H170       -1.3937  -14.1789  -44.1736 H         1 UNK         0.0600 
    171 H171       -3.3443  -14.1887  -42.6075 H         1 UNK         0.0600 
    172 H172       -2.3414  -13.4917  -41.3401 H         1 UNK         0.0600 
    173 H173       -2.6898  -12.5705  -42.8034 H         1 UNK         0.0600 
    174 H174       -0.2702  -12.4222  -42.3246 H         1 UNK         0.3000 
    175 H175        2.0320  -12.1391  -41.8771 H         1 UNK         0.0600 
    176 H176        3.8489  -13.0723  -44.1534 H         1 UNK         0.0600 
    177 H177        4.3374  -12.0569  -42.8000 H         1 UNK         0.0600 
    178 H178        3.8138  -13.7107  -42.5192 H         1 UNK         0.0600 
    179 H179        2.6491  -10.8783  -44.4061 H         1 UNK         0.3000 
    180 H180       -0.1401   -8.8471  -44.6598 H         1 UNK         0.0600 
    181 H181        0.5988   -7.6202  -42.6186 H         1 UNK         0.0600 
    182 H182        1.1265   -6.7903  -44.0727 H         1 UNK         0.0600 
    183 H183        2.2772   -7.7412  -43.1322 H         1 UNK         0.0600 
    184 H184        2.6237   -8.4562  -45.4396 H         1 UNK         0.3000 
    185 H185        2.0440   -9.5212  -48.6841 H         1 UNK         0.0600 
    186 H186        4.1252   -8.3141  -46.7757 H         1 UNK         0.0600 
    187 H187        4.1167   -8.2214  -48.5298 H         1 UNK         0.0600 
    188 H188        2.8683   -7.4015  -47.6106 H         1 UNK         0.0600 
    189 H189        3.4574  -11.2351  -48.7010 H         1 UNK         0.3000 
    190 H190       -2.2153  -21.4504  -47.2545 H         1 UNK         0.3000 
    191 H191       -4.0265  -22.7772  -48.9861 H         1 UNK         0.0600 
    192 H192       -4.4803  -21.7441  -46.1413 H         1 UNK         0.0600 
    193 H193       -5.7350  -22.1463  -47.3058 H         1 UNK         0.0600 
    194 H194       -4.6505  -20.8024  -47.6214 H         1 UNK         0.0600 
    195 H195       -2.7282  -23.7697  -45.7923 H         1 UNK         0.3000 
    196 H196       -4.1527  -26.2175  -45.5774 H         1 UNK         0.0600 
    197 H197       -2.4079  -26.7935  -43.8955 H         1 UNK         0.0600 
    198 H198       -2.9943  -25.1530  -43.6636 H         1 UNK         0.0600 
    199 H199       -1.4272  -25.4303  -44.4174 H         1 UNK         0.0600 
    200 H200       -0.9102  -25.5088  -46.9739 H         1 UNK         0.3000 
    201 H201       -0.2941  -28.1433  -47.8248 H         1 UNK         0.0600 
    202 H202        1.3882  -26.3243  -47.6289 H         1 UNK         0.0600 
    203 H203        0.6324  -25.4516  -48.9601 H         1 UNK         0.0600 
    204 H204        1.4031  -27.0057  -49.2490 H         1 UNK         0.0600 
    205 H205       -2.1184  -25.5428  -49.4271 H         1 UNK         0.3000 
    206 H206       -2.5737  -26.9980  -51.8922 H         1 UNK         0.0600 
    207 H207       -2.4234  -24.4844  -51.7246 H         1 UNK         0.0600 
    208 H208       -3.8958  -25.0344  -52.4907 H         1 UNK         0.0600 
    209 H209       -3.9380  -24.4759  -50.8194 H         1 UNK         0.0600 
    210 H210       -3.7068  -27.7878  -48.9506 H         1 UNK         0.3000 
    211 H211       -5.3082  -29.0481  -48.1346 H         1 UNK         0.0600 
    212 H212       -6.0762  -29.7209  -51.0223 H         1 UNK         0.0600 
    213 H213       -6.4777  -30.6532  -49.5879 H         1 UNK         0.0600 
    214 H214       -4.8023  -30.5103  -50.0933 H         1 UNK         0.0600 
    215 H215       -5.8549  -26.4109  -48.1038 H         1 UNK         0.3000 
    216 H216       -7.3726  -25.0619  -47.3269 H         1 UNK         0.0600 
    217 H217       -9.6349  -25.7144  -46.7002 H         1 UNK         0.0600 
    218 H218       -8.5434  -27.0241  -46.2840 H         1 UNK         0.0600 
    219 H219       -9.5751  -27.1482  -47.7100 H         1 UNK         0.0600 
    220 H220       -6.8425  -25.5653  -50.3086 H         1 UNK         0.3000 
    221 H221       -8.9427  -23.9293  -51.5697 H         1 UNK         0.0600 
    222 H222       -6.1618  -24.7507  -52.5686 H         1 UNK         0.0600 
    223 H223       -7.6414  -25.6510  -52.8813 H         1 UNK         0.0600 
    224 H224       -7.4421  -24.0337  -53.5350 H         1 UNK         0.0600 
    225 H225       -8.0875  -21.8768  -52.6943 H         1 UNK         0.3000 
    226 H226       -7.2781  -20.0101  -50.6819 H         1 UNK         0.0600 
    227 H227       -9.0250  -19.5381  -52.3801 H         1 UNK         0.0600 
    228 H228       -7.7388  -18.3489  -52.4631 H         1 UNK         0.0600 
    229 H229       -7.8234  -19.6284  -53.6686 H         1 UNK         0.0600 
    230 H230       -5.1720  -21.6434  -50.8060 H         1 UNK         0.3000 
    231 H231       -2.9453  -21.7866  -50.8173 H         1 UNK         0.0600 
    232 H232       -1.7781  -19.5023  -50.3709 H         1 UNK         0.0600 
    233 H233       -3.1065  -19.9334  -49.3101 H         1 UNK         0.0600 
    234 H234       -3.3533  -18.7724  -50.5939 H         1 UNK         0.0600 
    235 H235       -4.2083  -21.3410  -53.5766 H         1 UNK         0.3000 
    236 H236       -3.6893  -21.3091  -55.7180 H         1 UNK         0.0600 
    237 H237       -1.5044  -22.0860  -56.5202 H         1 UNK         0.0600 
    238 H238       -0.7603  -21.7835  -54.9575 H         1 UNK         0.0600 
    239 H239       -1.9748  -23.0500  -55.1306 H         1 UNK         0.0600 
    240 H240       -3.6842  -18.8098  -54.1162 H         1 UNK         0.3000 
    241 H241       -1.7494  -17.0222  -55.2598 H         1 UNK         0.0600 
    242 H242       -3.3545  -15.3839  -57.9850 H         1 UNK         0.3800 
    243 H243       -2.0464  -15.3002  -56.8414 H         1 UNK         0.3800 
    244 H244       -3.0446  -15.2184  -54.1391 H         1 UNK         0.0800 
    245 H245       -4.3527  -16.3279  -53.8160 H         1 UNK         0.0800 
    246 H246       -0.9704  -14.8862  -52.4552 H         1 UNK         0.0800 
    247 H247       -0.4250  -16.2110  -53.4568 H         1 UNK         0.0800 
@<TRIPOS>BOND
     1    1    2 1    
     2    1  127 1    
     3    1  128 1    
     4    1  129 1    
     5    2    3 2    
     6    2    4 am   BACKBONE|DICT|INTERRES
     7    4    5 1    
     8    4  130 1    
     9    5    6 1    
    10    5   65 1    
    11    5  131 1    
    12    6    7 1    
    13    6  132 1    
    14    6  133 1    
    15    7    8 1    
    16    8    9 1    
    17    8  134 1    
    18    8  135 1    
    19    9   10 ar   
    20    9   14 ar   
    21   10   11 ar   
    22   10  136 1    
    23   11   12 ar   
    24   11  126 1    
    25   12   13 ar   
    26   12  137 1    
    27   13   14 ar   
    28   13   15 1    
    29   14  138 1    
    30   15   16 1    
    31   15  139 1    
    32   15  140 1    
    33   16   17 1    
    34   17   18 1    
    35   17  141 1    
    36   17  142 1    
    37   18   19 1    
    38   18   67 1    
    39   18  143 1    
    40   19   20 am   BACKBONE|DICT|INTERRES
    41   19  144 1    
    42   20   21 2    
    43   20   22 1    
    44   22   23 1    
    45   22   24 1    
    46   22  145 1    
    47   23  146 1    
    48   23  147 1    
    49   23  148 1    
    50   24   25 am   BACKBONE|DICT|INTERRES
    51   24  149 1    
    52   25   26 2    
    53   25   27 1    
    54   27   28 1    
    55   27   29 1    
    56   27  150 1    
    57   28  151 1    
    58   28  152 1    
    59   28  153 1    
    60   29   30 am   BACKBONE|DICT|INTERRES
    61   29  154 1    
    62   30   31 2    
    63   30   32 1    
    64   32   33 1    
    65   32   34 1    
    66   32  155 1    
    67   33  156 1    
    68   33  157 1    
    69   33  158 1    
    70   34   35 am   BACKBONE|DICT|INTERRES
    71   34  159 1    
    72   35   36 2    
    73   35   37 1    
    74   37   38 1    
    75   37   39 1    
    76   37  160 1    
    77   38  161 1    
    78   38  162 1    
    79   38  163 1    
    80   39   40 am   BACKBONE|DICT|INTERRES
    81   39  164 1    
    82   40   41 2    
    83   40   42 1    
    84   42   43 1    
    85   42   44 1    
    86   42  165 1    
    87   43  166 1    
    88   43  167 1    
    89   43  168 1    
    90   44   45 am   BACKBONE|DICT|INTERRES
    91   44  169 1    
    92   45   46 2    
    93   45   47 1    
    94   47   48 1    
    95   47   49 1    
    96   47  170 1    
    97   48  171 1    
    98   48  172 1    
    99   48  173 1    
   100   49   50 am   BACKBONE|DICT|INTERRES
   101   49  174 1    
   102   50   51 2    
   103   50   52 1    
   104   52   53 1    
   105   52   54 1    
   106   52  175 1    
   107   53  176 1    
   108   53  177 1    
   109   53  178 1    
   110   54   55 am   BACKBONE|DICT|INTERRES
   111   54  179 1    
   112   55   56 2    
   113   55   57 1    
   114   57   58 1    
   115   57   59 1    
   116   57  180 1    
   117   58  181 1    
   118   58  182 1    
   119   58  183 1    
   120   59   60 am   BACKBONE|DICT|INTERRES
   121   59  184 1    
   122   60   61 2    
   123   60   62 1    
   124   62   63 1    
   125   62   64 1    
   126   62  185 1    
   127   63  186 1    
   128   63  187 1    
   129   63  188 1    
   130   64   65 am   BACKBONE|DICT|INTERRES
   131   64  189 1    
   132   65   66 2    
   133   67   68 2    
   134   67   69 am   BACKBONE|DICT|INTERRES
   135   69   70 1    
   136   69  190 1    
   137   70   71 1    
   138   70   72 1    
   139   70  191 1    
   140   71  192 1    
   141   71  193 1    
   142   71  194 1    
   143   72   73 2    
   144   72   74 am   BACKBONE|DICT|INTERRES
   145   74   75 1    
   146   74  195 1    
   147   75   76 1    
   148   75   77 1    
   149   75  196 1    
   150   76  197 1    
   151   76  198 1    
   152   76  199 1    
   153   77   78 2    
   154   77   79 am   BACKBONE|DICT|INTERRES
   155   79   80 1    
   156   79  200 1    
   157   80   81 1    
   158   80   82 1    
   159   80  201 1    
   160   81  202 1    
   161   81  203 1    
   162   81  204 1    
   163   82   83 2    
   164   82   84 am   BACKBONE|DICT|INTERRES
   165   84   85 1    
   166   84  205 1    
   167   85   86 1    
   168   85   87 1    
   169   85  206 1    
   170   86  207 1    
   171   86  208 1    
   172   86  209 1    
   173   87   88 2    
   174   87   89 am   BACKBONE|DICT|INTERRES
   175   89   90 1    
   176   89  210 1    
   177   90   91 1    
   178   90   92 1    
   179   90  211 1    
   180   91  212 1    
   181   91  213 1    
   182   91  214 1    
   183   92   93 2    
   184   92   94 am   BACKBONE|DICT|INTERRES
   185   94   95 1    
   186   94  215 1    
   187   95   96 1    
   188   95   97 1    
   189   95  216 1    
   190   96  217 1    
   191   96  218 1    
   192   96  219 1    
   193   97   98 2    
   194   97   99 am   BACKBONE|DICT|INTERRES
   195   99  100 1    
   196   99  220 1    
   197  100  101 1    
   198  100  102 1    
   199  100  221 1    
   200  101  222 1    
   201  101  223 1    
   202  101  224 1    
   203  102  103 2    
   204  102  104 am   BACKBONE|DICT|INTERRES
   205  104  105 1    
   206  104  225 1    
   207  105  106 1    
   208  105  107 1    
   209  105  226 1    
   210  106  227 1    
   211  106  228 1    
   212  106  229 1    
   213  107  108 2    
   214  107  109 am   BACKBONE|DICT|INTERRES
   215  109  110 1    
   216  109  230 1    
   217  110  111 1    
   218  110  112 1    
   219  110  231 1    
   220  111  232 1    
   221  111  233 1    
   222  111  234 1    
   223  112  113 2    
   224  112  114 am   BACKBONE|DICT|INTERRES
   225  114  115 1    
   226  114  235 1    
   227  115  116 1    
   228  115  117 1    
   229  115  236 1    
   230  116  237 1    
   231  116  238 1    
   232  116  239 1    
   233  117  118 2    
   234  117  119 am   BACKBONE|DICT|INTERRES
   235  119  120 1    
   236  119  240 1    
   237  120  121 1    
   238  120  124 1    
   239  120  241 1    
   240  121  122 am   BACKBONE|DICT|INTERRES
   241  121  123 2    
   242  122  242 1    
   243  122  243 1    
   244  124  125 1    
   245  124  244 1    
   246  124  245 1    
   247  125  126 1    
   248  126  246 1    
   249  126  247 1    
@<TRIPOS>SUBSTRUCTURE
     1 UNK         1 GROUP             0       ****    0 ROOT    
