@<TRIPOS>MOLECULE
3R540
247   249    1
SMALL
USER_CHARGES


@<TRIPOS>ATOM
      1 CA         -1.6418  -14.8491  -49.2835 C.3       0 UNK        -0.1800 
      2 C          -1.1663  -14.2198  -47.9856 C.2       0 UNK         0.5000 
      3 O          -0.1076  -13.5922  -47.9714 O.2       0 UNK        -0.5000 
      4 N          -1.9493  -14.3828  -46.9114 N.am      1 UNK        -0.5000 
      5 CA         -1.7564  -13.8049  -45.5772 C.3       1 UNK         0.1400 
      6 C6         -2.8638  -14.2907  -44.6014 C.3       23 UNK        -0.0398 
      7 S7         -2.4775  -15.8783  -43.7897 S.3       23 UNK        -0.2404 
      8 C8         -3.1872  -17.1254  -44.9182 C.3       23 UNK        -0.0205 
      9 C9         -2.2937  -17.5006  -46.0995 C.ar      23 UNK        -0.0193 
     10 C10        -2.8850  -17.9236  -47.2941 C.ar      23 UNK        -0.1150 
     11 C11        -2.0988  -18.3253  -48.3784 C.ar      23 UNK        -0.0193 
     12 C12        -0.7069  -18.2821  -48.2699 C.ar      23 UNK        -0.1150 
     13 C13        -0.0998  -17.8554  -47.0879 C.ar      23 UNK        -0.0193 
     14 C14        -0.8964  -17.4795  -46.0045 C.ar      23 UNK        -0.1150 
     15 C15         1.4166  -17.8058  -46.9766 C.3       23 UNK        -0.0205 
     16 S16         2.1875  -19.4505  -47.1199 S.3       23 UNK        -0.2404 
     17 C17         1.4728  -20.3327  -45.6914 C.3       23 UNK        -0.0398 
     18 CA          0.9828  -21.7558  -46.0544 C.3       11 UNK         0.1400 
     19 N           0.8463  -22.5927  -44.8600 N.am      11 UNK        -0.5000 
     20 C           0.7374  -23.9288  -44.8717 C.2       10 UNK         0.5000 
     21 O           0.7634  -24.6082  -45.8968 O.2       10 UNK        -0.5000 
     22 CA          0.5263  -24.6182  -43.5103 C.3       10 UNK         0.1400 
     23 CB          1.8776  -24.9171  -42.8444 C.3       10 UNK        -0.1800 
     24 N          -0.2977  -23.8287  -42.5941 N.am      10 UNK        -0.5000 
     25 C          -1.5849  -23.5133  -42.7998 C.2       9 UNK         0.5000 
     26 O          -2.2346  -23.8977  -43.7701 O.2       9 UNK        -0.5000 
     27 CA         -2.2357  -22.5604  -41.7808 C.3       9 UNK         0.1400 
     28 CB         -2.8908  -23.3539  -40.6410 C.3       9 UNK        -0.1800 
     29 N          -1.2845  -21.5960  -41.2209 N.am      9 UNK        -0.5000 
     30 C          -0.6667  -20.6457  -41.9333 C.2       8 UNK         0.5000 
     31 O          -0.8479  -20.4618  -43.1407 O.2       8 UNK        -0.5000 
     32 CA          0.3758  -19.8075  -41.1884 C.3       8 UNK         0.1400 
     33 CB          1.7700  -20.4498  -41.3243 C.3       8 UNK        -0.1800 
     34 N           0.3737  -18.4661  -41.7556 N.am      8 UNK        -0.5000 
     35 C           0.9290  -17.3870  -41.1979 C.2       7 UNK         0.5000 
     36 O           1.5284  -17.3965  -40.1200 O.2       7 UNK        -0.5000 
     37 CA          0.7759  -16.0635  -41.9674 C.3       7 UNK         0.1400 
     38 CB         -0.1202  -15.0854  -41.1908 C.3       7 UNK        -0.1800 
     39 N           2.0673  -15.4318  -42.2324 N.am      7 UNK        -0.5000 
     40 C           3.0155  -15.9515  -43.0215 C.2       6 UNK         0.5000 
     41 O           2.9070  -17.0310  -43.6087 O.2       6 UNK        -0.5000 
     42 CA          4.3066  -15.1227  -43.1785 C.3       6 UNK         0.1400 
     43 CB          5.3668  -15.5805  -42.1653 C.3       6 UNK        -0.1800 
     44 N           4.8597  -15.2295  -44.5306 N.am      6 UNK        -0.5000 
     45 C           4.2269  -14.8110  -45.6335 C.2       5 UNK         0.5000 
     46 O           3.1659  -14.1799  -45.6074 O.2       5 UNK        -0.5000 
     47 CA          4.8682  -15.1620  -46.9875 C.3       5 UNK         0.1400 
     48 CB          5.1411  -16.6759  -47.1152 C.3       5 UNK        -0.1800 
     49 N           3.9438  -14.7058  -48.0184 N.am      5 UNK        -0.5000 
     50 C           4.1257  -14.6606  -49.3407 C.2       4 UNK         0.5000 
     51 O           5.1463  -15.0396  -49.9161 O.2       4 UNK        -0.5000 
     52 CA          2.9624  -14.0614  -50.1514 C.3       4 UNK         0.1400 
     53 CB          1.9015  -15.1339  -50.4443 C.3       4 UNK        -0.1800 
     54 N           2.3329  -12.9361  -49.4545 N.am      4 UNK        -0.5000 
     55 C           2.8741  -11.7108  -49.3644 C.2       3 UNK         0.5000 
     56 O           3.9414  -11.3990  -49.8942 O.2       3 UNK        -0.5000 
     57 CA          2.1110  -10.6540  -48.5473 C.3       3 UNK         0.1400 
     58 CB          1.1334   -9.8864  -49.4507 C.3       3 UNK        -0.1800 
     59 N           1.3607  -11.2683  -47.4561 N.am      3 UNK        -0.5000 
     60 C           1.6606  -11.1934  -46.1563 C.2       2 UNK         0.5000 
     61 O           2.5771  -10.5123  -45.6933 O.2       2 UNK        -0.5000 
     62 CA          0.7285  -11.9973  -45.2357 C.3       2 UNK         0.1400 
     63 CB          1.0797  -11.8745  -43.7431 C.3       2 UNK        -0.1800 
     64 N          -0.6450  -11.5401  -45.4582 N.am      2 UNK        -0.5000 
     65 C          -1.7588  -12.2564  -45.6685 C.2       1 UNK         0.5000 
     66 O          -2.8193  -11.6955  -45.9462 O.2       1 UNK        -0.5000 
     67 C          -0.3201  -21.7522  -46.8838 C.2       11 UNK         0.5000 
     68 O          -0.2643  -21.8661  -48.1090 O.2       11 UNK        -0.5000 
     69 N          -1.4712  -21.6985  -46.1966 N.am      12 UNK        -0.5000 
     70 CA         -2.7910  -21.8509  -46.8068 C.3       12 UNK         0.1400 
     71 CB         -3.8803  -21.4500  -45.8020 C.3       12 UNK        -0.1800 
     72 C          -3.0228  -23.2755  -47.3433 C.2       12 UNK         0.5000 
     73 O          -3.4944  -23.4275  -48.4708 O.2       12 UNK        -0.5000 
     74 N          -2.6608  -24.2959  -46.5522 N.am      13 UNK        -0.5000 
     75 CA         -2.7665  -25.7141  -46.9081 C.3       13 UNK         0.1400 
     76 CB         -2.3689  -26.5861  -45.7093 C.3       13 UNK        -0.1800 
     77 C          -1.9412  -26.0924  -48.1514 C.2       13 UNK         0.5000 
     78 O          -2.4365  -26.8346  -48.9998 O.2       13 UNK        -0.5000 
     79 N          -0.7319  -25.5254  -48.2722 N.am      14 UNK        -0.5000 
     80 CA          0.1532  -25.6636  -49.4336 C.3       14 UNK         0.1400 
     81 CB          1.5068  -25.0103  -49.1164 C.3       14 UNK        -0.1800 
     82 C          -0.4330  -25.0827  -50.7378 C.2       14 UNK         0.5000 
     83 O          -0.0554  -25.5279  -51.8215 O.2       14 UNK        -0.5000 
     84 N          -1.3681  -24.1332  -50.6110 N.am      15 UNK        -0.5000 
     85 CA         -2.1365  -23.5329  -51.7003 C.3       15 UNK         0.1400 
     86 CB         -2.2847  -22.0322  -51.4110 C.3       15 UNK        -0.1800 
     87 C          -3.5094  -24.2154  -51.8804 C.2       15 UNK         0.5000 
     88 O          -4.4366  -23.5805  -52.3849 O.2       15 UNK        -0.5000 
     89 N          -3.6257  -25.4810  -51.4486 N.am      16 UNK        -0.5000 
     90 CA         -4.8128  -26.3404  -51.5092 C.3       16 UNK         0.1400 
     91 CB         -5.1722  -26.6769  -52.9715 C.3       16 UNK        -0.1800 
     92 C          -5.9960  -25.7699  -50.7019 C.2       16 UNK         0.5000 
     93 O          -7.1244  -25.7321  -51.1938 O.2       16 UNK        -0.5000 
     94 N          -5.6926  -25.3270  -49.4730 N.am      17 UNK        -0.5000 
     95 CA         -6.5821  -24.6365  -48.5324 C.3       17 UNK         0.1400 
     96 CB         -7.7727  -25.5250  -48.1140 C.3       17 UNK        -0.1800 
     97 C          -6.9959  -23.2495  -49.0634 C.2       17 UNK         0.5000 
     98 O          -8.1786  -22.9037  -49.0623 O.2       17 UNK        -0.5000 
     99 N          -5.9826  -22.4895  -49.5034 N.am      18 UNK        -0.5000 
    100 CA        -6.0461  -21.1302  -50.0426 C.3       18 UNK         0.1400 
    101 CB        -6.4061  -20.1249  -48.9287 C.3       18 UNK        -0.1800 
    102 C         -6.9479  -21.0060  -51.2868 C.2       18 UNK         0.5000 
    103 O         -7.7432  -20.0700  -51.3884 O.2       18 UNK        -0.5000 
    104 N         -6.7850  -21.9298  -52.2426 N.am      19 UNK        -0.5000 
    105 CA        -7.5230  -21.9831  -53.5084 C.3       19 UNK         0.1400 
    106 CB        -7.5455  -23.4388  -54.0055 C.3       19 UNK        -0.1800 
    107 C         -6.9498  -21.0084  -54.5622 C.2       19 UNK         0.5000 
    108 O         -6.7462  -21.3921  -55.7146 O.2       19 UNK        -0.5000 
    109 N         -6.6639  -19.7703  -54.1335 N.am      20 UNK        -0.5000 
    110 CA        -6.1045  -18.6330  -54.8791 C.3       20 UNK         0.1400 
    111 CB        -7.0486  -18.2122  -56.0229 C.3       20 UNK        -0.1800 
    112 C         -4.6546  -18.8109  -55.3836 C.2       20 UNK         0.5000 
    113 O         -4.0903  -17.8570  -55.9220 O.2       20 UNK        -0.5000 
    114 N         -4.0535  -19.9926  -55.1854 N.am      21 UNK        -0.5000 
    115 CA        -2.7211  -20.3617  -55.6737 C.3       21 UNK         0.1400 
    116 CB        -2.5082  -21.8681  -55.4591 C.3       21 UNK        -0.1800 
    117 C         -1.5672  -19.5427  -55.0602 C.2       21 UNK         0.5000 
    118 O         -0.5097  -19.4354  -55.6825 O.2       21 UNK        -0.5000 
    119 N         -1.7953  -18.9600  -53.8765 N.am      22 UNK        -0.5000 
    120 CA        -0.9032  -17.9791  -53.2390 C.3       22 UNK         0.1400 
    121 C         -1.0157  -16.5313  -53.8076 C.2       22 UNK         0.5000 
    122 N         -1.9346  -16.2300  -54.7188 N.am      22 UNK        -0.7600 
    123 O         -0.2344  -15.6633  -53.4296 O.2       22 UNK        -0.5000 
    124 C124       -1.0149  -18.0150  -51.6931 C.3       23 UNK        -0.0398 
    125 S125       -2.7076  -17.7430  -51.0526 S.3       23 UNK        -0.2404 
    126 C126       -2.7538  -18.8812  -49.6327 C.3       23 UNK        -0.0205 
    127 H127       -0.9700  -15.6556  -49.5700 H         1 UNK         0.0600 
    128 H128       -1.6486  -14.1096  -50.0838 H         1 UNK         0.0600 
    129 H129       -2.6470  -15.2603  -49.1898 H         1 UNK         0.0600 
    130 H130       -2.7896  -14.9308  -47.0166 H         1 UNK         0.3000 
    131 H131       -0.8098  -14.1715  -45.1883 H         1 UNK         0.0600 
    132 H132       -2.9947  -13.5797  -43.7830 H         1 UNK         0.0800 
    133 H133       -3.8361  -14.3450  -45.0938 H         1 UNK         0.0800 
    134 H134       -4.1615  -16.7794  -45.2664 H         1 UNK         0.0800 
    135 H135       -3.3721  -18.0335  -44.3431 H         1 UNK         0.0800 
    136 H136       -3.9623  -17.9697  -47.3698 H         1 UNK         0.1150 
    137 H137       -0.0883  -18.6068  -49.0930 H         1 UNK         0.1150 
    138 H138       -0.4193  -17.1720  -45.0864 H         1 UNK         0.1150 
    139 H139        1.8082  -17.1640  -47.7661 H         1 UNK         0.0800 
    140 H140        1.7240  -17.3494  -46.0344 H         1 UNK         0.0800 
    141 H141        0.6738  -19.7497  -45.2330 H         1 UNK         0.0800 
    142 H142        2.2609  -20.3919  -44.9396 H         1 UNK         0.0800 
    143 H143        1.7527  -22.2221  -46.6739 H         1 UNK         0.0600 
    144 H144        0.7522  -22.1078  -43.9800 H         1 UNK         0.3000 
    145 H145        0.0172  -25.5667  -43.6889 H         1 UNK         0.0600 
    146 H146        1.7455  -25.4737  -41.9164 H         1 UNK         0.0600 
    147 H147        2.5086  -25.5218  -43.4973 H         1 UNK         0.0600 
    148 H148        2.4253  -24.0026  -42.6131 H         1 UNK         0.0600 
    149 H149        0.1543  -23.4775  -41.7632 H         1 UNK         0.3000 
    150 H150       -3.0158  -22.0022  -42.3031 H         1 UNK         0.0600 
    151 H151       -3.6193  -24.0663  -41.0306 H         1 UNK         0.0600 
    152 H152       -3.4201  -22.6934  -39.9539 H         1 UNK         0.0600 
    153 H153       -2.1550  -23.9178  -40.0663 H         1 UNK         0.0600 
    154 H154       -1.0790  -21.6867  -40.2361 H         1 UNK         0.3000 
    155 H155        0.0968  -19.7489  -40.1343 H         1 UNK         0.0600 
    156 H156        2.5201  -19.8993  -40.7566 H         1 UNK         0.0600 
    157 H157        2.0980  -20.4797  -42.3640 H         1 UNK         0.0600 
    158 H158        1.7713  -21.4733  -40.9477 H         1 UNK         0.0600 
    159 H159       -0.1178  -18.3938  -42.6376 H         1 UNK         0.3000 
    160 H160        0.3067  -16.2684  -42.9308 H         1 UNK         0.0600 
    161 H161        0.3425  -14.7680  -40.2556 H         1 UNK         0.0600 
    162 H162       -1.0768  -15.5470  -40.9422 H         1 UNK         0.0600 
    163 H163       -0.3394  -14.1958  -41.7792 H         1 UNK         0.0600 
    164 H164        2.2475  -14.5633  -41.7514 H         1 UNK         0.3000 
    165 H165        4.0756  -14.0718  -42.9915 H         1 UNK         0.0600 
    166 H166        6.2698  -14.9739  -42.2361 H         1 UNK         0.0600 
    167 H167        4.9951  -15.4911  -41.1436 H         1 UNK         0.0600 
    168 H168        5.6477  -16.6230  -42.3213 H         1 UNK         0.0600 
    169 H169        5.7098  -15.7645  -44.6261 H         1 UNK         0.3000 
    170 H170        5.8022  -14.6058  -47.0827 H         1 UNK         0.0600 
    171 H171        4.2361  -17.2591  -46.9531 H         1 UNK         0.0600 
    172 H172        5.5345  -16.9382  -48.0966 H         1 UNK         0.0600 
    173 H173        5.8780  -17.0090  -46.3842 H         1 UNK         0.0600 
    174 H174        3.0894  -14.3243  -47.6282 H         1 UNK         0.3000 
    175 H175        3.3601  -13.7072  -51.1048 H         1 UNK         0.0600 
    176 H176        1.0907  -14.7310  -51.0516 H         1 UNK         0.0600 
    177 H177        1.4667  -15.5305  -49.5268 H         1 UNK         0.0600 
    178 H178        2.3325  -15.9722  -50.9929 H         1 UNK         0.0600 
    179 H179        1.4559  -13.1309  -48.9810 H         1 UNK         0.3000 
    180 H180        2.8428   -9.9451  -48.1545 H         1 UNK         0.0600 
    181 H181        0.3758  -10.5455  -49.8768 H         1 UNK         0.0600 
    182 H182        1.6588   -9.4089  -50.2788 H         1 UNK         0.0600 
    183 H183        0.6199   -9.1012  -48.8955 H         1 UNK         0.0600 
    184 H184        0.6151  -11.9073  -47.7210 H         1 UNK         0.3000 
    185 H185        0.8673  -13.0322  -45.5380 H         1 UNK         0.0600 
    186 H186        1.0196  -10.8416  -43.3984 H         1 UNK         0.0600 
    187 H187        0.4039  -12.4699  -43.1318 H         1 UNK         0.0600 
    188 H188        2.0928  -12.2308  -43.5521 H         1 UNK         0.0600 
    189 H189       -0.7226  -10.5377  -45.5560 H         1 UNK         0.3000 
    190 H190       -1.4362  -21.5973  -45.1909 H         1 UNK         0.3000 
    191 H191       -2.8518  -21.1677  -47.6559 H         1 UNK         0.0600 
    192 H192       -3.8484  -22.0628  -44.9013 H         1 UNK         0.0600 
    193 H193       -3.7707  -20.4079  -45.5013 H         1 UNK         0.0600 
    194 H194       -4.8739  -21.5613  -46.2375 H         1 UNK         0.0600 
    195 H195       -2.3364  -24.0910  -45.6098 H         1 UNK         0.3000 
    196 H196       -3.8151  -25.9161  -47.1340 H         1 UNK         0.0600 
    197 H197       -2.4954  -27.6449  -45.9384 H         1 UNK         0.0600 
    198 H198       -2.9857  -26.3665  -44.8379 H         1 UNK         0.0600 
    199 H199       -1.3265  -26.4343  -45.4314 H         1 UNK         0.0600 
    200 H200       -0.3762  -24.9692  -47.5004 H         1 UNK         0.3000 
    201 H201        0.3191  -26.7299  -49.5988 H         1 UNK         0.0600 
    202 H202        1.9806  -25.4830  -48.2560 H         1 UNK         0.0600 
    203 H203        1.3977  -23.9477  -48.8969 H         1 UNK         0.0600 
    204 H204        2.1952  -25.1040  -49.9573 H         1 UNK         0.0600 
    205 H205       -1.6350  -23.8449  -49.6779 H         1 UNK         0.3000 
    206 H206       -1.5969  -23.6443  -52.6425 H         1 UNK         0.0600 
    207 H207       -1.3098  -21.5547  -51.3113 H         1 UNK         0.0600 
    208 H208       -2.8223  -21.5112  -52.2029 H         1 UNK         0.0600 
    209 H209       -2.8351  -21.8747  -50.4854 H         1 UNK         0.0600 
    210 H210       -2.8268  -25.8921  -50.9823 H         1 UNK         0.3000 
    211 H211       -4.5370  -27.2753  -51.0191 H         1 UNK         0.0600 
    212 H212       -5.4890  -25.7945  -53.5262 H         1 UNK         0.0600 
    213 H213       -5.9867  -27.4006  -53.0169 H         1 UNK         0.0600 
    214 H214       -4.3217  -27.1133  -53.4949 H         1 UNK         0.0600 
    215 H215       -4.7180  -25.3504  -49.2057 H         1 UNK         0.3000 
    216 H216       -5.9915  -24.4522  -47.6340 H         1 UNK         0.0600 
    217 H217       -8.3416  -25.0554  -47.3108 H         1 UNK         0.0600 
    218 H218       -7.4321  -26.4932  -47.7472 H         1 UNK         0.0600 
    219 H219       -8.4638  -25.7018  -48.9382 H         1 UNK         0.0600 
    220 H220       -5.0490  -22.8825  -49.4206 H         1 UNK         0.3000 
    221 H221       -5.0395  -20.8952  -50.3869 H         1 UNK         0.0600 
    222 H222       -7.4136  -20.2890  -48.5454 H         1 UNK         0.0600 
    223 H223       -5.7128  -20.1985  -48.0915 H         1 UNK         0.0600 
    224 H224       -6.3596  -19.0988  -49.2957 H         1 UNK         0.0600 
    225 H225       -6.0529  -22.6281  -52.1304 H         1 UNK         0.3000 
    226 H226       -8.5566  -21.6826  -53.3251 H         1 UNK         0.0600 
    227 H227       -7.9611  -24.1072  -53.2516 H         1 UNK         0.0600 
    228 H228       -8.1595  -23.5401  -54.9011 H         1 UNK         0.0600 
    229 H229       -6.5433  -23.7908  -54.2511 H         1 UNK         0.0600 
    230 H230       -6.8936  -19.5764  -53.1642 H         1 UNK         0.3000 
    231 H231       -6.0679  -17.8076  -54.1667 H         1 UNK         0.0600 
    232 H232       -7.0995  -18.9677  -56.8073 H         1 UNK         0.0600 
    233 H233       -6.7113  -17.2850  -56.4879 H         1 UNK         0.0600 
    234 H234       -8.0605  -18.0395  -55.6562 H         1 UNK         0.0600 
    235 H235       -4.5972  -20.7283  -54.7587 H         1 UNK         0.3000 
    236 H236       -2.7048  -20.1721  -56.7490 H         1 UNK         0.0600 
    237 H237       -3.2535  -22.4512  -56.0006 H         1 UNK         0.0600 
    238 H238       -1.5274  -22.1818  -55.8189 H         1 UNK         0.0600 
    239 H239       -2.5747  -22.1401  -54.4075 H         1 UNK         0.0600 
    240 H240       -2.6971  -19.0830  -53.4412 H         1 UNK         0.3000 
    241 H241        0.1207  -18.2800  -53.4691 H         1 UNK         0.0600 
    242 H242       -1.9776  -15.2885  -55.0743 H         1 UNK         0.3800 
    243 H243       -2.5909  -16.9210  -55.0669 H         1 UNK         0.3800 
    244 H244       -0.6594  -18.9871  -51.3510 H         1 UNK         0.0800 
    245 H245       -0.3446  -17.2835  -51.2394 H         1 UNK         0.0800 
    246 H246       -3.7943  -19.1255  -49.4277 H         1 UNK         0.0800 
    247 H247       -2.2642  -19.8163  -49.8882 H         1 UNK         0.0800 
@<TRIPOS>BOND
     1    1    2 1    
     2    1  127 1    
     3    1  128 1    
     4    1  129 1    
     5    2    3 2    
     6    2    4 am   BACKBONE|DICT|INTERRES
     7    4    5 1    
     8    4  130 1    
     9    5    6 1    
    10    5   65 1    
    11    5  131 1    
    12    6    7 1    
    13    6  132 1    
    14    6  133 1    
    15    7    8 1    
    16    8    9 1    
    17    8  134 1    
    18    8  135 1    
    19    9   10 ar   
    20    9   14 ar   
    21   10   11 ar   
    22   10  136 1    
    23   11   12 ar   
    24   11  126 1    
    25   12   13 ar   
    26   12  137 1    
    27   13   14 ar   
    28   13   15 1    
    29   14  138 1    
    30   15   16 1    
    31   15  139 1    
    32   15  140 1    
    33   16   17 1    
    34   17   18 1    
    35   17  141 1    
    36   17  142 1    
    37   18   19 1    
    38   18   67 1    
    39   18  143 1    
    40   19   20 am   BACKBONE|DICT|INTERRES
    41   19  144 1    
    42   20   21 2    
    43   20   22 1    
    44   22   23 1    
    45   22   24 1    
    46   22  145 1    
    47   23  146 1    
    48   23  147 1    
    49   23  148 1    
    50   24   25 am   BACKBONE|DICT|INTERRES
    51   24  149 1    
    52   25   26 2    
    53   25   27 1    
    54   27   28 1    
    55   27   29 1    
    56   27  150 1    
    57   28  151 1    
    58   28  152 1    
    59   28  153 1    
    60   29   30 am   BACKBONE|DICT|INTERRES
    61   29  154 1    
    62   30   31 2    
    63   30   32 1    
    64   32   33 1    
    65   32   34 1    
    66   32  155 1    
    67   33  156 1    
    68   33  157 1    
    69   33  158 1    
    70   34   35 am   BACKBONE|DICT|INTERRES
    71   34  159 1    
    72   35   36 2    
    73   35   37 1    
    74   37   38 1    
    75   37   39 1    
    76   37  160 1    
    77   38  161 1    
    78   38  162 1    
    79   38  163 1    
    80   39   40 am   BACKBONE|DICT|INTERRES
    81   39  164 1    
    82   40   41 2    
    83   40   42 1    
    84   42   43 1    
    85   42   44 1    
    86   42  165 1    
    87   43  166 1    
    88   43  167 1    
    89   43  168 1    
    90   44   45 am   BACKBONE|DICT|INTERRES
    91   44  169 1    
    92   45   46 2    
    93   45   47 1    
    94   47   48 1    
    95   47   49 1    
    96   47  170 1    
    97   48  171 1    
    98   48  172 1    
    99   48  173 1    
   100   49   50 am   BACKBONE|DICT|INTERRES
   101   49  174 1    
   102   50   51 2    
   103   50   52 1    
   104   52   53 1    
   105   52   54 1    
   106   52  175 1    
   107   53  176 1    
   108   53  177 1    
   109   53  178 1    
   110   54   55 am   BACKBONE|DICT|INTERRES
   111   54  179 1    
   112   55   56 2    
   113   55   57 1    
   114   57   58 1    
   115   57   59 1    
   116   57  180 1    
   117   58  181 1    
   118   58  182 1    
   119   58  183 1    
   120   59   60 am   BACKBONE|DICT|INTERRES
   121   59  184 1    
   122   60   61 2    
   123   60   62 1    
   124   62   63 1    
   125   62   64 1    
   126   62  185 1    
   127   63  186 1    
   128   63  187 1    
   129   63  188 1    
   130   64   65 am   BACKBONE|DICT|INTERRES
   131   64  189 1    
   132   65   66 2    
   133   67   68 2    
   134   67   69 am   BACKBONE|DICT|INTERRES
   135   69   70 1    
   136   69  190 1    
   137   70   71 1    
   138   70   72 1    
   139   70  191 1    
   140   71  192 1    
   141   71  193 1    
   142   71  194 1    
   143   72   73 2    
   144   72   74 am   BACKBONE|DICT|INTERRES
   145   74   75 1    
   146   74  195 1    
   147   75   76 1    
   148   75   77 1    
   149   75  196 1    
   150   76  197 1    
   151   76  198 1    
   152   76  199 1    
   153   77   78 2    
   154   77   79 am   BACKBONE|DICT|INTERRES
   155   79   80 1    
   156   79  200 1    
   157   80   81 1    
   158   80   82 1    
   159   80  201 1    
   160   81  202 1    
   161   81  203 1    
   162   81  204 1    
   163   82   83 2    
   164   82   84 am   BACKBONE|DICT|INTERRES
   165   84   85 1    
   166   84  205 1    
   167   85   86 1    
   168   85   87 1    
   169   85  206 1    
   170   86  207 1    
   171   86  208 1    
   172   86  209 1    
   173   87   88 2    
   174   87   89 am   BACKBONE|DICT|INTERRES
   175   89   90 1    
   176   89  210 1    
   177   90   91 1    
   178   90   92 1    
   179   90  211 1    
   180   91  212 1    
   181   91  213 1    
   182   91  214 1    
   183   92   93 2    
   184   92   94 am   BACKBONE|DICT|INTERRES
   185   94   95 1    
   186   94  215 1    
   187   95   96 1    
   188   95   97 1    
   189   95  216 1    
   190   96  217 1    
   191   96  218 1    
   192   96  219 1    
   193   97   98 2    
   194   97   99 am   BACKBONE|DICT|INTERRES
   195   99  100 1    
   196   99  220 1    
   197  100  101 1    
   198  100  102 1    
   199  100  221 1    
   200  101  222 1    
   201  101  223 1    
   202  101  224 1    
   203  102  103 2    
   204  102  104 am   BACKBONE|DICT|INTERRES
   205  104  105 1    
   206  104  225 1    
   207  105  106 1    
   208  105  107 1    
   209  105  226 1    
   210  106  227 1    
   211  106  228 1    
   212  106  229 1    
   213  107  108 2    
   214  107  109 am   BACKBONE|DICT|INTERRES
   215  109  110 1    
   216  109  230 1    
   217  110  111 1    
   218  110  112 1    
   219  110  231 1    
   220  111  232 1    
   221  111  233 1    
   222  111  234 1    
   223  112  113 2    
   224  112  114 am   BACKBONE|DICT|INTERRES
   225  114  115 1    
   226  114  235 1    
   227  115  116 1    
   228  115  117 1    
   229  115  236 1    
   230  116  237 1    
   231  116  238 1    
   232  116  239 1    
   233  117  118 2    
   234  117  119 am   BACKBONE|DICT|INTERRES
   235  119  120 1    
   236  119  240 1    
   237  120  121 1    
   238  120  124 1    
   239  120  241 1    
   240  121  122 am   BACKBONE|DICT|INTERRES
   241  121  123 2    
   242  122  242 1    
   243  122  243 1    
   244  124  125 1    
   245  124  244 1    
   246  124  245 1    
   247  125  126 1    
   248  126  246 1    
   249  126  247 1    
@<TRIPOS>SUBSTRUCTURE
     1 UNK         1 GROUP             0       ****    0 ROOT    
