@<TRIPOS>MOLECULE
3R540
247   249    1
SMALL
USER_CHARGES


@<TRIPOS>ATOM
      1 CA         -4.4132  -17.7445  -47.9222 C.3       0 UNK        -0.1800 
      2 C          -4.2257  -16.2443  -48.0989 C.2       0 UNK         0.5000 
      3 O          -5.1359  -15.4711  -47.7983 O.2       0 UNK        -0.5000 
      4 N          -3.0443  -15.8331  -48.5757 N.am      1 UNK        -0.5000 
      5 CA         -2.6154  -14.4333  -48.6766 C.3       1 UNK         0.1400 
      6 C6         -1.3325  -14.2919  -49.5363 C.3       23 UNK        -0.0398 
      7 S7         -1.5230  -14.8961  -51.2481 S.3       23 UNK        -0.2404 
      8 C8          0.2056  -15.2790  -51.6825 C.3       23 UNK        -0.0205 
      9 C9          0.5174  -16.7597  -51.5196 C.ar      23 UNK        -0.0193 
     10 C10         0.5762  -17.5894  -52.6424 C.ar      23 UNK        -0.1150 
     11 C11         0.8480  -18.9528  -52.5043 C.ar      23 UNK        -0.0193 
     12 C12         1.0576  -19.4887  -51.2309 C.ar      23 UNK        -0.1150 
     13 C13         1.0129  -18.6699  -50.0968 C.ar      23 UNK        -0.0193 
     14 C14         0.7493  -17.3050  -50.2532 C.ar      23 UNK        -0.1150 
     15 C15         1.1861  -19.2375  -48.6913 C.3       23 UNK        -0.0205 
     16 S16         2.4720  -20.5214  -48.5363 S.3       23 UNK        -0.2404 
     17 C17         2.3621  -20.8639  -46.7443 C.3       23 UNK        -0.0398 
     18 CA          1.6395  -22.1909  -46.4024 C.3       11 UNK         0.1400 
     19 N           1.8133  -22.5628  -44.9986 N.am      11 UNK        -0.5000 
     20 C           1.5946  -23.7910  -44.5032 C.2       10 UNK         0.5000 
     21 O           1.3356  -24.7710  -45.2018 O.2       10 UNK        -0.5000 
     22 CA          1.6318  -23.9470  -42.9676 C.3       10 UNK         0.1400 
     23 CB          3.0413  -24.3378  -42.4998 C.3       10 UNK        -0.1800 
     24 N           1.2089  -22.7389  -42.2555 N.am      10 UNK        -0.5000 
     25 C          -0.0087  -22.1862  -42.3484 C.2       9 UNK         0.5000 
     26 O          -0.9437  -22.7137  -42.9496 O.2       9 UNK        -0.5000 
     27 CA         -0.2088  -20.7899  -41.7243 C.3       9 UNK         0.1400 
     28 CB         -0.9788  -20.9009  -40.4013 C.3       9 UNK        -0.1800 
     29 N           1.0234  -20.0163  -41.5159 N.am      9 UNK        -0.5000 
     30 C           1.9008  -19.6734  -42.4743 C.2       8 UNK         0.5000 
     31 O           1.7703  -20.0112  -43.6517 O.2       8 UNK        -0.5000 
     32 CA          3.1460  -18.8562  -42.0714 C.3       8 UNK         0.1400 
     33 CB          3.3450  -17.6352  -42.9807 C.3       8 UNK        -0.1800 
     34 N           3.1248  -18.4127  -40.6781 N.am      8 UNK        -0.5000 
     35 C           3.5541  -19.1416  -39.6388 C.2       7 UNK         0.5000 
     36 O           4.0288  -20.2720  -39.7535 O.2       7 UNK        -0.5000 
     37 CA          3.4159  -18.5218  -38.2330 C.3       7 UNK         0.1400 
     38 CB          4.7665  -17.9648  -37.7575 C.3       7 UNK        -0.1800 
     39 N           2.4083  -17.4618  -38.1390 N.am      7 UNK        -0.5000 
     40 C           1.0920  -17.6275  -38.3256 C.2       6 UNK         0.5000 
     41 O           0.5831  -18.7104  -38.6151 O.2       6 UNK        -0.5000 
     42 CA          0.1871  -16.3858  -38.1810 C.3       6 UNK         0.1400 
     43 CB          0.9167  -15.1270  -37.6582 C.3       6 UNK        -0.1800 
     44 N          -0.5318  -16.0732  -39.4209 N.am      6 UNK        -0.5000 
     45 C           0.0025  -15.8191  -40.6243 C.2       5 UNK         0.5000 
     46 O           1.2121  -15.8649  -40.8654 O.2       5 UNK        -0.5000 
     47 CA         -0.9959  -15.3822  -41.7153 C.3       5 UNK         0.1400 
     48 CB         -1.4102  -13.9168  -41.5064 C.3       5 UNK        -0.1800 
     49 N          -0.4461  -15.5158  -43.0629 N.am      5 UNK        -0.5000 
     50 C          -0.3226  -16.6729  -43.7255 C.2       4 UNK         0.5000 
     51 O          -0.7232  -17.7460  -43.2779 O.2       4 UNK        -0.5000 
     52 CA          0.3262  -16.6349  -45.1258 C.3       4 UNK         0.1400 
     53 CB         -0.5454  -17.3728  -46.1586 C.3       4 UNK        -0.1800 
     54 N           0.5491  -15.2658  -45.5958 N.am      4 UNK        -0.5000 
     55 C           1.7014  -14.5868  -45.4973 C.2       3 UNK         0.5000 
     56 O           2.7209  -15.0532  -44.9911 O.2       3 UNK        -0.5000 
     57 CA          1.7432  -13.1499  -46.0632 C.3       3 UNK         0.1400 
     58 CB          2.5733  -13.1125  -47.3565 C.3       3 UNK        -0.1800 
     59 N           0.4239  -12.5834  -46.3464 N.am      3 UNK        -0.5000 
     60 C          -0.4696  -12.1905  -45.4279 C.2       2 UNK         0.5000 
     61 O          -0.2495  -12.1942  -44.2172 O.2       2 UNK        -0.5000 
     62 CA         -1.8641  -11.7876  -45.9577 C.3       2 UNK         0.1400 
     63 CB         -1.9276  -10.2742  -46.2116 C.3       2 UNK        -0.1800 
     64 N          -2.2529  -12.5022  -47.1836 N.am      2 UNK        -0.5000 
     65 C          -2.3637  -13.8359  -47.2728 C.2       1 UNK         0.5000 
     66 O          -2.1858  -14.5816  -46.3074 O.2       1 UNK        -0.5000 
     67 C           0.1392  -22.1456  -46.7483 C.2       11 UNK         0.5000 
     68 O          -0.2681  -22.7700  -47.7255 O.2       11 UNK        -0.5000 
     69 N          -0.6635  -21.4557  -45.9206 N.am      12 UNK        -0.5000 
     70 CA         -2.1161  -21.3170  -46.0903 C.3       12 UNK         0.1400 
     71 CB         -2.6924  -20.4075  -44.9941 C.3       12 UNK        -0.1800 
     72 C          -2.8620  -22.6642  -46.1069 C.2       12 UNK         0.5000 
     73 O          -3.7838  -22.8378  -46.9020 O.2       12 UNK        -0.5000 
     74 N          -2.4192  -23.6075  -45.2653 N.am      13 UNK        -0.5000 
     75 CA         -2.9321  -24.9762  -45.1916 C.3       13 UNK         0.1400 
     76 CB         -2.2551  -25.7000  -44.0179 C.3       13 UNK        -0.1800 
     77 C          -2.7537  -25.7802  -46.4960 C.2       13 UNK         0.5000 
     78 O          -3.5941  -26.6280  -46.7990 O.2       13 UNK        -0.5000 
     79 N          -1.6781  -25.4990  -47.2432 N.am      14 UNK        -0.5000 
     80 CA         -1.3898  -26.1120  -48.5385 C.3       14 UNK         0.1400 
     81 CB          0.1336  -26.2130  -48.7171 C.3       14 UNK        -0.1800 
     82 C          -2.0197  -25.3172  -49.6959 C.2       14 UNK         0.5000 
     83 O          -2.5718  -25.9167  -50.6189 O.2       14 UNK        -0.5000 
     84 N          -1.9097  -23.9846  -49.6320 N.am      15 UNK        -0.5000 
     85 CA         -2.3293  -23.0477  -50.6733 C.3       15 UNK         0.1400 
     86 CB         -1.6221  -21.7090  -50.4203 C.3       15 UNK        -0.1800 
     87 C          -3.8539  -22.8464  -50.7609 C.2       15 UNK         0.5000 
     88 O          -4.3420  -22.4310  -51.8135 O.2       15 UNK        -0.5000 
     89 N          -4.5739  -23.1238  -49.6636 N.am      16 UNK        -0.5000 
     90 CA         -6.0148  -22.9442  -49.4738 C.3       16 UNK         0.1400 
     91 CB         -6.8194  -23.8952  -50.3888 C.3       16 UNK        -0.1800 
     92 C          -6.4000  -21.4577  -49.6032 C.2       16 UNK         0.5000 
     93 O          -6.0890  -20.6783  -48.7026 O.2       16 UNK        -0.5000 
     94 N          -7.0406  -21.0820  -50.7182 N.am      17 UNK        -0.5000 
     95 CA         -7.3531  -19.6936  -51.0681 C.3       17 UNK         0.1400 
     96 CB         -8.4044  -19.6886  -52.1883 C.3       17 UNK        -0.1800 
     97 C          -6.1111  -18.8759  -51.4830 C.2       17 UNK         0.5000 
     98 O          -6.1521  -17.6472  -51.4096 O.2       17 UNK        -0.5000 
     99 N          -5.0401  -19.5739  -51.8899 N.am      18 UNK        -0.5000 
    100 CA        -3.7444  -19.0617  -52.3363 C.3       18 UNK         0.1400 
    101 CB        -3.0093  -18.3754  -51.1677 C.3       18 UNK        -0.1800 
    102 C         -3.8190  -18.1917  -53.6078 C.2       18 UNK         0.5000 
    103 O         -4.8274  -18.2137  -54.3196 O.2       18 UNK        -0.5000 
    104 N         -2.7165  -17.4878  -53.9035 N.am      19 UNK        -0.5000 
    105 CA        -2.4875  -16.6624  -55.0919 C.3       19 UNK         0.1400 
    106 CB        -3.3427  -15.3775  -55.0285 C.3       19 UNK        -0.1800 
    107 C         -2.6725  -17.4854  -56.3839 C.2       19 UNK         0.5000 
    108 O         -1.8435  -18.3502  -56.6687 O.2       19 UNK        -0.5000 
    109 N         -3.7671  -17.2420  -57.1166 N.am      20 UNK        -0.5000 
    110 CA        -4.1523  -17.9746  -58.3241 C.3       20 UNK         0.1400 
    111 CB        -5.3539  -17.2715  -58.9731 C.3       20 UNK        -0.1800 
    112 C         -4.4687  -19.4639  -58.0769 C.2       20 UNK         0.5000 
    113 O         -4.2807  -20.2753  -58.9850 O.2       20 UNK        -0.5000 
    114 N         -4.9079  -19.8130  -56.8568 N.am      21 UNK        -0.5000 
    115 CA        -5.2139  -21.1900  -56.4528 C.3       21 UNK         0.1400 
    116 CB        -5.9924  -21.1784  -55.1295 C.3       21 UNK        -0.1800 
    117 C         -3.9675  -22.0907  -56.3394 C.2       21 UNK         0.5000 
    118 O         -4.1102  -23.3141  -56.3416 O.2       21 UNK        -0.5000 
    119 N         -2.7753  -21.4836  -56.2669 N.am      22 UNK        -0.5000 
    120 CA        -1.4798  -22.1786  -56.2974 C.3       22 UNK         0.1400 
    121 C         -1.0930  -22.7403  -57.6994 C.2       22 UNK         0.5000 
    122 N         -1.7824  -22.3884  -58.7800 N.am      22 UNK        -0.7600 
    123 O         -0.1487  -23.5177  -57.8080 O.2       22 UNK        -0.5000 
    124 C124       -0.3362  -21.2956  -55.7384 C.3       23 UNK        -0.0398 
    125 S125       -0.6699  -20.6458  -54.0679 S.3       23 UNK        -0.2404 
    126 C126        0.9233  -19.8415  -53.7335 C.3       23 UNK        -0.0205 
    127 H127       -4.8646  -17.9586  -46.9535 H         1 UNK         0.0600 
    128 H128       -5.0718  -18.1322  -48.6984 H         1 UNK         0.0600 
    129 H129       -3.4654  -18.2807  -47.9740 H         1 UNK         0.0600 
    130 H130       -2.3433  -16.5176  -48.8134 H         1 UNK         0.3000 
    131 H131       -3.4187  -13.8625  -49.1471 H         1 UNK         0.0600 
    132 H132       -0.5031  -14.8136  -49.0585 H         1 UNK         0.0800 
    133 H133       -1.0294  -13.2458  -49.6061 H         1 UNK         0.0800 
    134 H134        0.8934  -14.6832  -51.0807 H         1 UNK         0.0800 
    135 H135        0.3740  -14.9733  -52.7163 H         1 UNK         0.0800 
    136 H136        0.4133  -17.1751  -53.6272 H         1 UNK         0.1150 
    137 H137        1.2530  -20.5461  -51.1268 H         1 UNK         0.1150 
    138 H138        0.7131  -16.6674  -49.3833 H         1 UNK         0.1150 
    139 H139        1.4467  -18.4332  -48.0029 H         1 UNK         0.0800 
    140 H140        0.2269  -19.6408  -48.3652 H         1 UNK         0.0800 
    141 H141        1.8964  -20.0194  -46.2348 H         1 UNK         0.0800 
    142 H142        3.3847  -20.9037  -46.3667 H         1 UNK         0.0800 
    143 H143        2.0926  -22.9782  -47.0094 H         1 UNK         0.0600 
    144 H144        1.9700  -21.7927  -44.3550 H         1 UNK         0.3000 
    145 H145        0.9439  -24.7520  -42.7008 H         1 UNK         0.0600 
    146 H146        3.0627  -24.5265  -41.4263 H         1 UNK         0.0600 
    147 H147        3.3786  -25.2490  -42.9957 H         1 UNK         0.0600 
    148 H148        3.7694  -23.5556  -42.7185 H         1 UNK         0.0600 
    149 H149        1.9184  -22.2432  -41.7360 H         1 UNK         0.3000 
    150 H150       -0.8278  -20.2267  -42.4234 H         1 UNK         0.0600 
    151 H151       -1.8761  -21.5107  -40.5159 H         1 UNK         0.0600 
    152 H152       -1.3029  -19.9196  -40.0551 H         1 UNK         0.0600 
    153 H153       -0.3696  -21.3529  -39.6177 H         1 UNK         0.0600 
    154 H154        1.1798  -19.6757  -40.5756 H         1 UNK         0.3000 
    155 H155        4.0057  -19.5123  -42.2220 H         1 UNK         0.0600 
    156 H156        2.5221  -16.9280  -42.8905 H         1 UNK         0.0600 
    157 H157        3.4158  -17.9274  -44.0291 H         1 UNK         0.0600 
    158 H158        4.2648  -17.1054  -42.7332 H         1 UNK         0.0600 
    159 H159        2.7025  -17.5077  -40.5033 H         1 UNK         0.3000 
    160 H160        3.1190  -19.3239  -37.5542 H         1 UNK         0.0600 
    161 H161        4.7057  -17.6028  -36.7310 H         1 UNK         0.0600 
    162 H162        5.1047  -17.1401  -38.3863 H         1 UNK         0.0600 
    163 H163        5.5387  -18.7350  -37.7830 H         1 UNK         0.0600 
    164 H164        2.7482  -16.5351  -37.9269 H         1 UNK         0.3000 
    165 H165       -0.5713  -16.6536  -37.4439 H         1 UNK         0.0600 
    166 H166        0.2142  -14.3069  -37.5098 H         1 UNK         0.0600 
    167 H167        1.3910  -15.3159  -36.6943 H         1 UNK         0.0600 
    168 H168        1.6851  -14.7771  -38.3486 H         1 UNK         0.0600 
    169 H169       -1.5374  -16.0369  -39.3314 H         1 UNK         0.3000 
    170 H170       -1.8867  -16.0095  -41.6393 H         1 UNK         0.0600 
    171 H171       -1.8816  -13.7727  -40.5336 H         1 UNK         0.0600 
    172 H172       -0.5510  -13.2465  -41.5572 H         1 UNK         0.0600 
    173 H173       -2.1269  -13.5977  -42.2637 H         1 UNK         0.0600 
    174 H174       -0.0816  -14.6750  -43.4871 H         1 UNK         0.3000 
    175 H175        1.2806  -17.1602  -45.0643 H         1 UNK         0.0600 
    176 H176       -1.6057  -17.1525  -46.0295 H         1 UNK         0.0600 
    177 H177       -0.2791  -17.1023  -47.1790 H         1 UNK         0.0600 
    178 H178       -0.4194  -18.4507  -46.0624 H         1 UNK         0.0600 
    179 H179       -0.2759  -14.8014  -45.9617 H         1 UNK         0.3000 
    180 H180        2.2355  -12.5199  -45.3194 H         1 UNK         0.0600 
    181 H181        2.1244  -13.7231  -48.1411 H         1 UNK         0.0600 
    182 H182        3.5827  -13.4892  -47.1854 H         1 UNK         0.0600 
    183 H183        2.6695  -12.0947  -47.7352 H         1 UNK         0.0600 
    184 H184        0.1603  -12.5260  -47.3179 H         1 UNK         0.3000 
    185 H185       -2.5917  -12.0361  -45.1822 H         1 UNK         0.0600 
    186 H186       -1.6653   -9.7162  -45.3116 H         1 UNK         0.0600 
    187 H187       -1.2386   -9.9683  -46.9999 H         1 UNK         0.0600 
    188 H188       -2.9314   -9.9644  -46.5027 H         1 UNK         0.0600 
    189 H189       -2.4148  -11.9332  -48.0025 H         1 UNK         0.3000 
    190 H190       -0.2562  -21.0050  -45.1138 H         1 UNK         0.3000 
    191 H191       -2.2860  -20.8338  -47.0545 H         1 UNK         0.0600 
    192 H192       -2.5933  -20.8529  -44.0045 H         1 UNK         0.0600 
    193 H193       -3.7547  -20.2267  -45.1629 H         1 UNK         0.0600 
    194 H194       -2.2025  -19.4363  -44.9724 H         1 UNK         0.0600 
    195 H195       -1.7052  -23.3517  -44.5884 H         1 UNK         0.3000 
    196 H196       -4.0027  -24.9167  -44.9861 H         1 UNK         0.0600 
    197 H197       -2.6312  -26.7187  -43.9157 H         1 UNK         0.0600 
    198 H198       -2.4457  -25.1868  -43.0751 H         1 UNK         0.0600 
    199 H199       -1.1745  -25.7594  -44.1536 H         1 UNK         0.0600 
    200 H200       -1.0519  -24.7649  -46.9388 H         1 UNK         0.3000 
    201 H201       -1.7961  -27.1254  -48.5648 H         1 UNK         0.0600 
    202 H202        0.5818  -26.8192  -47.9297 H         1 UNK         0.0600 
    203 H203        0.6111  -25.2326  -48.6939 H         1 UNK         0.0600 
    204 H204        0.3850  -26.6789  -49.6707 H         1 UNK         0.0600 
    205 H205       -1.3964  -23.5766  -48.8526 H         1 UNK         0.3000 
    206 H206       -1.9904  -23.4348  -51.6365 H         1 UNK         0.0600 
    207 H207       -0.5469  -21.8484  -50.3127 H         1 UNK         0.0600 
    208 H208       -1.7695  -21.0232  -51.2509 H         1 UNK         0.0600 
    209 H209       -1.9873  -21.2223  -49.5155 H         1 UNK         0.0600 
    210 H210       -4.0663  -23.3496  -48.8139 H         1 UNK         0.3000 
    211 H211       -6.2258  -23.2265  -48.4413 H         1 UNK         0.0600 
    212 H212       -6.6340  -23.7188  -51.4485 H         1 UNK         0.0600 
    213 H213       -7.8912  -23.7883  -50.2171 H         1 UNK         0.0600 
    214 H214       -6.5643  -24.9347  -50.1824 H         1 UNK         0.0600 
    215 H215       -7.2435  -21.7838  -51.4151 H         1 UNK         0.3000 
    216 H216       -7.7870  -19.2066  -50.1921 H         1 UNK         0.0600 
    217 H217       -8.6709  -18.6690  -52.4700 H         1 UNK         0.0600 
    218 H218       -9.3205  -20.1877  -51.8721 H         1 UNK         0.0600 
    219 H219       -8.0395  -20.1912  -53.0839 H         1 UNK         0.0600 
    220 H220       -5.1151  -20.5859  -51.9065 H         1 UNK         0.3000 
    221 H221       -3.1768  -19.9446  -52.6250 H         1 UNK         0.0600 
    222 H222       -3.4455  -17.4032  -50.9387 H         1 UNK         0.0600 
    223 H223       -3.0506  -18.9860  -50.2667 H         1 UNK         0.0600 
    224 H224       -1.9557  -18.2225  -51.3939 H         1 UNK         0.0600 
    225 H225       -1.9291  -17.5654  -53.2758 H         1 UNK         0.3000 
    226 H226       -1.4396  -16.3611  -55.0684 H         1 UNK         0.0600 
    227 H227       -3.0909  -14.7915  -54.1444 H         1 UNK         0.0600 
    228 H228       -3.1622  -14.7414  -55.8959 H         1 UNK         0.0600 
    229 H229       -4.4115  -15.5891  -54.9847 H         1 UNK         0.0600 
    230 H230       -4.4161  -16.5429  -56.7859 H         1 UNK         0.3000 
    231 H231       -3.3132  -17.9313  -59.0216 H         1 UNK         0.0600 
    232 H232       -5.1153  -16.2398  -59.2325 H         1 UNK         0.0600 
    233 H233       -6.2196  -17.2606  -58.3095 H         1 UNK         0.0600 
    234 H234       -5.6517  -17.7759  -59.8933 H         1 UNK         0.0600 
    235 H235       -4.9966  -19.1003  -56.1384 H         1 UNK         0.3000 
    236 H236       -5.8606  -21.6242  -57.2180 H         1 UNK         0.0600 
    237 H237       -6.3625  -22.1751  -54.8863 H         1 UNK         0.0600 
    238 H238       -5.3635  -20.8581  -54.3006 H         1 UNK         0.0600 
    239 H239       -6.8534  -20.5124  -55.1816 H         1 UNK         0.0600 
    240 H240       -2.7342  -20.4730  -56.2803 H         1 UNK         0.3000 
    241 H241       -1.5642  -23.0471  -55.6413 H         1 UNK         0.0600 
    242 H242       -1.5200  -22.7650  -59.6773 H         1 UNK         0.3800 
    243 H243       -2.5644  -21.7506  -58.7156 H         1 UNK         0.3800 
    244 H244        0.5940  -21.8653  -55.6974 H         1 UNK         0.0800 
    245 H245       -0.1503  -20.4514  -56.4044 H         1 UNK         0.0800 
    246 H246        1.6929  -20.6030  -53.5986 H         1 UNK         0.0800 
    247 H247        1.2219  -19.2501  -54.6006 H         1 UNK         0.0800 
@<TRIPOS>BOND
     1    1    2 1    
     2    1  127 1    
     3    1  128 1    
     4    1  129 1    
     5    2    3 2    
     6    2    4 am   BACKBONE|DICT|INTERRES
     7    4    5 1    
     8    4  130 1    
     9    5    6 1    
    10    5   65 1    
    11    5  131 1    
    12    6    7 1    
    13    6  132 1    
    14    6  133 1    
    15    7    8 1    
    16    8    9 1    
    17    8  134 1    
    18    8  135 1    
    19    9   10 ar   
    20    9   14 ar   
    21   10   11 ar   
    22   10  136 1    
    23   11   12 ar   
    24   11  126 1    
    25   12   13 ar   
    26   12  137 1    
    27   13   14 ar   
    28   13   15 1    
    29   14  138 1    
    30   15   16 1    
    31   15  139 1    
    32   15  140 1    
    33   16   17 1    
    34   17   18 1    
    35   17  141 1    
    36   17  142 1    
    37   18   19 1    
    38   18   67 1    
    39   18  143 1    
    40   19   20 am   BACKBONE|DICT|INTERRES
    41   19  144 1    
    42   20   21 2    
    43   20   22 1    
    44   22   23 1    
    45   22   24 1    
    46   22  145 1    
    47   23  146 1    
    48   23  147 1    
    49   23  148 1    
    50   24   25 am   BACKBONE|DICT|INTERRES
    51   24  149 1    
    52   25   26 2    
    53   25   27 1    
    54   27   28 1    
    55   27   29 1    
    56   27  150 1    
    57   28  151 1    
    58   28  152 1    
    59   28  153 1    
    60   29   30 am   BACKBONE|DICT|INTERRES
    61   29  154 1    
    62   30   31 2    
    63   30   32 1    
    64   32   33 1    
    65   32   34 1    
    66   32  155 1    
    67   33  156 1    
    68   33  157 1    
    69   33  158 1    
    70   34   35 am   BACKBONE|DICT|INTERRES
    71   34  159 1    
    72   35   36 2    
    73   35   37 1    
    74   37   38 1    
    75   37   39 1    
    76   37  160 1    
    77   38  161 1    
    78   38  162 1    
    79   38  163 1    
    80   39   40 am   BACKBONE|DICT|INTERRES
    81   39  164 1    
    82   40   41 2    
    83   40   42 1    
    84   42   43 1    
    85   42   44 1    
    86   42  165 1    
    87   43  166 1    
    88   43  167 1    
    89   43  168 1    
    90   44   45 am   BACKBONE|DICT|INTERRES
    91   44  169 1    
    92   45   46 2    
    93   45   47 1    
    94   47   48 1    
    95   47   49 1    
    96   47  170 1    
    97   48  171 1    
    98   48  172 1    
    99   48  173 1    
   100   49   50 am   BACKBONE|DICT|INTERRES
   101   49  174 1    
   102   50   51 2    
   103   50   52 1    
   104   52   53 1    
   105   52   54 1    
   106   52  175 1    
   107   53  176 1    
   108   53  177 1    
   109   53  178 1    
   110   54   55 am   BACKBONE|DICT|INTERRES
   111   54  179 1    
   112   55   56 2    
   113   55   57 1    
   114   57   58 1    
   115   57   59 1    
   116   57  180 1    
   117   58  181 1    
   118   58  182 1    
   119   58  183 1    
   120   59   60 am   BACKBONE|DICT|INTERRES
   121   59  184 1    
   122   60   61 2    
   123   60   62 1    
   124   62   63 1    
   125   62   64 1    
   126   62  185 1    
   127   63  186 1    
   128   63  187 1    
   129   63  188 1    
   130   64   65 am   BACKBONE|DICT|INTERRES
   131   64  189 1    
   132   65   66 2    
   133   67   68 2    
   134   67   69 am   BACKBONE|DICT|INTERRES
   135   69   70 1    
   136   69  190 1    
   137   70   71 1    
   138   70   72 1    
   139   70  191 1    
   140   71  192 1    
   141   71  193 1    
   142   71  194 1    
   143   72   73 2    
   144   72   74 am   BACKBONE|DICT|INTERRES
   145   74   75 1    
   146   74  195 1    
   147   75   76 1    
   148   75   77 1    
   149   75  196 1    
   150   76  197 1    
   151   76  198 1    
   152   76  199 1    
   153   77   78 2    
   154   77   79 am   BACKBONE|DICT|INTERRES
   155   79   80 1    
   156   79  200 1    
   157   80   81 1    
   158   80   82 1    
   159   80  201 1    
   160   81  202 1    
   161   81  203 1    
   162   81  204 1    
   163   82   83 2    
   164   82   84 am   BACKBONE|DICT|INTERRES
   165   84   85 1    
   166   84  205 1    
   167   85   86 1    
   168   85   87 1    
   169   85  206 1    
   170   86  207 1    
   171   86  208 1    
   172   86  209 1    
   173   87   88 2    
   174   87   89 am   BACKBONE|DICT|INTERRES
   175   89   90 1    
   176   89  210 1    
   177   90   91 1    
   178   90   92 1    
   179   90  211 1    
   180   91  212 1    
   181   91  213 1    
   182   91  214 1    
   183   92   93 2    
   184   92   94 am   BACKBONE|DICT|INTERRES
   185   94   95 1    
   186   94  215 1    
   187   95   96 1    
   188   95   97 1    
   189   95  216 1    
   190   96  217 1    
   191   96  218 1    
   192   96  219 1    
   193   97   98 2    
   194   97   99 am   BACKBONE|DICT|INTERRES
   195   99  100 1    
   196   99  220 1    
   197  100  101 1    
   198  100  102 1    
   199  100  221 1    
   200  101  222 1    
   201  101  223 1    
   202  101  224 1    
   203  102  103 2    
   204  102  104 am   BACKBONE|DICT|INTERRES
   205  104  105 1    
   206  104  225 1    
   207  105  106 1    
   208  105  107 1    
   209  105  226 1    
   210  106  227 1    
   211  106  228 1    
   212  106  229 1    
   213  107  108 2    
   214  107  109 am   BACKBONE|DICT|INTERRES
   215  109  110 1    
   216  109  230 1    
   217  110  111 1    
   218  110  112 1    
   219  110  231 1    
   220  111  232 1    
   221  111  233 1    
   222  111  234 1    
   223  112  113 2    
   224  112  114 am   BACKBONE|DICT|INTERRES
   225  114  115 1    
   226  114  235 1    
   227  115  116 1    
   228  115  117 1    
   229  115  236 1    
   230  116  237 1    
   231  116  238 1    
   232  116  239 1    
   233  117  118 2    
   234  117  119 am   BACKBONE|DICT|INTERRES
   235  119  120 1    
   236  119  240 1    
   237  120  121 1    
   238  120  124 1    
   239  120  241 1    
   240  121  122 am   BACKBONE|DICT|INTERRES
   241  121  123 2    
   242  122  242 1    
   243  122  243 1    
   244  124  125 1    
   245  124  244 1    
   246  124  245 1    
   247  125  126 1    
   248  126  246 1    
   249  126  247 1    
@<TRIPOS>SUBSTRUCTURE
     1 UNK         1 GROUP             0       ****    0 ROOT    
