@<TRIPOS>MOLECULE
3R540
247   249    1
SMALL
USER_CHARGES


@<TRIPOS>ATOM
      1 CA          5.2443  -14.1332  -47.3576 C.3       0 UNK        -0.1800 
      2 C           3.7277  -14.0958  -47.2476 C.2       0 UNK         0.5000 
      3 O           3.1961  -13.7581  -46.1895 O.2       0 UNK        -0.5000 
      4 N           3.0208  -14.4123  -48.3425 N.am      1 UNK        -0.5000 
      5 CA          1.5544  -14.5114  -48.4162 C.3       1 UNK         0.1400 
      6 C6          1.0896  -15.3595  -49.6269 C.3       23 UNK        -0.0398 
      7 S7         -0.5210  -16.1698  -49.3395 S.3       23 UNK        -0.2404 
      8 C8         -0.0516  -17.7236  -48.5134 C.3       23 UNK        -0.0205 
      9 C9          0.5944  -18.7461  -49.4387 C.ar      23 UNK        -0.0193 
     10 C10         0.0318  -19.0377  -50.6838 C.ar      23 UNK        -0.1150 
     11 C11         0.5990  -20.0038  -51.5174 C.ar      23 UNK        -0.0193 
     12 C12         1.7419  -20.6882  -51.0897 C.ar      23 UNK        -0.1150 
     13 C13         2.3173  -20.4177  -49.8422 C.ar      23 UNK        -0.0193 
     14 C14         1.7379  -19.4363  -49.0266 C.ar      23 UNK        -0.1150 
     15 C15         3.5908  -21.1630  -49.4368 C.3       23 UNK        -0.0205 
     16 S16         3.8548  -21.3488  -47.6371 S.3       23 UNK        -0.2404 
     17 C17         2.7947  -22.7750  -47.2179 C.3       23 UNK        -0.0398 
     18 CA          3.2991  -23.4930  -45.9383 C.3       11 UNK         0.1400 
     19 N           3.1443  -22.6529  -44.7422 N.am      11 UNK        -0.5000 
     20 C           3.7878  -22.8258  -43.5791 C.2       10 UNK         0.5000 
     21 O           4.6714  -23.6656  -43.4057 O.2       10 UNK        -0.5000 
     22 CA          3.3263  -21.9535  -42.3937 C.3       10 UNK         0.1400 
     23 CB          4.0670  -20.6080  -42.3755 C.3       10 UNK        -0.1800 
     24 N           1.8767  -21.7278  -42.3903 N.am      10 UNK        -0.5000 
     25 C           0.9648  -22.6865  -42.1677 C.2       9 UNK         0.5000 
     26 O           1.2570  -23.8469  -41.8813 O.2       9 UNK        -0.5000 
     27 CA         -0.5194  -22.3115  -42.3380 C.3       9 UNK         0.1400 
     28 CB         -1.0812  -21.7081  -41.0424 C.3       9 UNK        -0.1800 
     29 N          -0.7547  -21.3916  -43.4499 N.am      9 UNK        -0.5000 
     30 C          -0.5305  -21.6735  -44.7422 C.2       8 UNK         0.5000 
     31 O          -0.1456  -22.7698  -45.1498 O.2       8 UNK        -0.5000 
     32 CA         -0.6928  -20.5032  -45.7324 C.3       8 UNK         0.1400 
     33 CB         -2.1716  -20.2912  -46.0895 C.3       8 UNK        -0.1800 
     34 N          -0.1112  -19.2596  -45.2200 N.am      8 UNK        -0.5000 
     35 C           1.1895  -19.1148  -44.9258 C.2       7 UNK         0.5000 
     36 O           2.0276  -19.9926  -45.1170 O.2       7 UNK        -0.5000 
     37 CA          1.6241  -17.8049  -44.2522 C.3       7 UNK         0.1400 
     38 CB          1.9282  -16.7176  -45.2847 C.3       7 UNK        -0.1800 
     39 N           0.6237  -17.3183  -43.3069 N.am      7 UNK        -0.5000 
     40 C           0.4183  -17.8519  -42.0963 C.2       6 UNK         0.5000 
     41 O           1.0929  -18.7705  -41.6309 O.2       6 UNK        -0.5000 
     42 CA         -0.7712  -17.2932  -41.2949 C.3       6 UNK         0.1400 
     43 CB         -0.3619  -16.0359  -40.5149 C.3       6 UNK        -0.1800 
     44 N          -1.9213  -16.9867  -42.1483 N.am      6 UNK        -0.5000 
     45 C          -2.6491  -17.9194  -42.7790 C.2       5 UNK         0.5000 
     46 O          -2.4355  -19.1274  -42.6842 O.2       5 UNK        -0.5000 
     47 CA         -3.7791  -17.4287  -43.7019 C.3       5 UNK         0.1400 
     48 CB         -5.0950  -17.3065  -42.9201 C.3       5 UNK        -0.1800 
     49 N          -3.4979  -16.1574  -44.3708 N.am      5 UNK        -0.5000 
     50 C          -2.4754  -15.9246  -45.2046 C.2       4 UNK         0.5000 
     51 O          -1.6139  -16.7616  -45.4762 O.2       4 UNK        -0.5000 
     52 CA         -2.4085  -14.5347  -45.8667 C.3       4 UNK         0.1400 
     53 CB         -3.7009  -13.7021  -45.7244 C.3       4 UNK        -0.1800 
     54 N          -1.2532  -13.7484  -45.4365 N.am      4 UNK        -0.5000 
     55 C          -0.8894  -13.4222  -44.1864 C.2       3 UNK         0.5000 
     56 O          -1.4698  -13.8329  -43.1802 O.2       3 UNK        -0.5000 
     57 CA          0.3262  -12.4797  -44.0232 C.3       3 UNK         0.1400 
     58 CB          1.4409  -13.1578  -43.2123 C.3       3 UNK        -0.1800 
     59 N           0.8833  -12.0245  -45.3014 N.am      3 UNK        -0.5000 
     60 C           0.3942  -11.0154  -46.0416 C.2       2 UNK         0.5000 
     61 O          -0.5228  -10.2828  -45.6706 O.2       2 UNK        -0.5000 
     62 CA          0.9938  -10.8220  -47.4545 C.3       2 UNK         0.1400 
     63 CB          2.1087   -9.7661  -47.4276 C.3       2 UNK        -0.1800 
     64 N           1.5273  -12.0652  -48.0189 N.am      2 UNK        -0.5000 
     65 C           0.8000  -13.1648  -48.2611 C.2       1 UNK         0.5000 
     66 O          -0.4305  -13.1512  -48.2542 O.2       1 UNK        -0.5000 
     67 C           2.6505  -24.8910  -45.7734 C.2       11 UNK         0.5000 
     68 O           2.9231  -25.7742  -46.5871 O.2       11 UNK        -0.5000 
     69 N           1.8349  -25.0761  -44.7226 N.am      12 UNK        -0.5000 
     70 CA          1.1974  -26.3179  -44.2665 C.3       12 UNK         0.1400 
     71 CB          2.2625  -27.3441  -43.8274 C.3       12 UNK        -0.1800 
     72 C           0.1691  -26.9099  -45.2531 C.2       12 UNK         0.5000 
     73 O          -0.1223  -28.1057  -45.1893 O.2       12 UNK        -0.5000 
     74 N          -0.3780  -26.0618  -46.1284 N.am      13 UNK        -0.5000 
     75 CA         -1.3605  -26.3789  -47.1596 C.3       13 UNK         0.1400 
     76 CB         -0.7732  -27.3505  -48.2132 C.3       13 UNK        -0.1800 
     77 C          -1.8161  -25.0301  -47.7350 C.2       13 UNK         0.5000 
     78 O          -2.3668  -24.2229  -46.9846 O.2       13 UNK        -0.5000 
     79 N          -1.5222  -24.7872  -49.0207 N.am      14 UNK        -0.5000 
     80 CA         -1.6570  -23.5109  -49.7259 C.3       14 UNK         0.1400 
     81 CB         -0.6120  -22.5213  -49.1695 C.3       14 UNK        -0.1800 
     82 C          -3.1004  -22.9585  -49.7334 C.2       14 UNK         0.5000 
     83 O          -4.0550  -23.7388  -49.7756 O.2       14 UNK        -0.5000 
     84 N          -3.2339  -21.6294  -49.7248 N.am      15 UNK        -0.5000 
     85 CA         -4.4864  -20.8944  -49.7357 C.3       15 UNK         0.1400 
     86 CB         -5.0005  -20.7726  -51.1781 C.3       15 UNK        -0.1800 
     87 C          -4.2020  -19.5101  -49.1502 C.2       15 UNK         0.5000 
     88 O          -3.1697  -18.9170  -49.4750 O.2       15 UNK        -0.5000 
     89 N          -5.1189  -19.0058  -48.3170 N.am      16 UNK        -0.5000 
     90 CA         -5.0338  -17.6747  -47.7203 C.3       16 UNK         0.1400 
     91 CB         -6.1534  -17.5029  -46.6831 C.3       16 UNK        -0.1800 
     92 C          -5.1034  -16.5832  -48.8027 C.2       16 UNK         0.5000 
     93 O          -6.0755  -16.5397  -49.5589 O.2       16 UNK        -0.5000 
     94 N          -4.0477  -15.7622  -48.8730 N.am      17 UNK        -0.5000 
     95 CA         -3.8209  -14.6965  -49.8568 C.3       17 UNK         0.1400 
     96 CB         -4.8915  -13.5915  -49.7372 C.3       17 UNK        -0.1800 
     97 C          -3.6464  -15.2201  -51.3011 C.2       17 UNK         0.5000 
     98 O          -3.8881  -14.4741  -52.2514 O.2       17 UNK        -0.5000 
     99 N          -3.2085  -16.4833  -51.4342 N.am      18 UNK        -0.5000 
    100 CA        -2.9070  -17.1938  -52.6796 C.3       18 UNK         0.1400 
    101 CB        -1.6590  -16.5966  -53.3616 C.3       18 UNK        -0.1800 
    102 C         -4.1236  -17.3167  -53.6177 C.2       18 UNK         0.5000 
    103 O         -4.0113  -17.0883  -54.8243 O.2       18 UNK        -0.5000 
    104 N         -5.2707  -17.6864  -53.0319 N.am      19 UNK        -0.5000 
    105 CA        -6.5029  -18.0411  -53.7371 C.3       19 UNK         0.1400 
    106 CB        -7.6489  -18.1126  -52.7126 C.3       19 UNK        -0.1800 
    107 C         -6.3696  -19.3548  -54.5431 C.2       19 UNK         0.5000 
    108 O         -5.3310  -20.0169  -54.4960 O.2       19 UNK        -0.5000 
    109 N         -7.4392  -19.7144  -55.2654 N.am      20 UNK        -0.5000 
    110 CA        -7.5130  -20.7921  -56.2631 C.3       20 UNK         0.1400 
    111 CB        -8.9415  -20.8283  -56.8302 C.3       20 UNK        -0.1800 
    112 C         -7.0809  -22.2075  -55.8159 C.2       20 UNK         0.5000 
    113 O         -6.8295  -23.0498  -56.6789 O.2       20 UNK        -0.5000 
    114 N         -6.9964  -22.4584  -54.5022 N.am      21 UNK        -0.5000 
    115 CA        -6.4537  -23.6955  -53.9363 C.3       21 UNK         0.1400 
    116 CB        -6.9330  -23.8555  -52.4841 C.3       21 UNK        -0.1800 
    117 C         -4.9169  -23.8178  -54.0653 C.2       21 UNK         0.5000 
    118 O         -4.4087  -24.9388  -54.0091 O.2       21 UNK        -0.5000 
    119 N         -4.2036  -22.6994  -54.2716 N.am      22 UNK        -0.5000 
    120 CA        -2.7945  -22.6909  -54.6985 C.3       22 UNK         0.1400 
    121 C         -2.6765  -23.1054  -56.1912 C.2       22 UNK         0.5000 
    122 N         -1.8424  -24.0857  -56.5101 N.am      22 UNK        -0.7600 
    123 O         -3.3023  -22.5145  -57.0680 O.2       22 UNK        -0.5000 
    124 C124       -2.1183  -21.3131  -54.4680 C.3       23 UNK        -0.0398 
    125 S125       -1.6815  -21.0404  -52.7197 S.3       23 UNK        -0.2404 
    126 C126       -0.0235  -20.3003  -52.8751 C.3       23 UNK        -0.0205 
    127 H127        5.6526  -14.8437  -46.6390 H         1 UNK         0.0600 
    128 H128        5.6603  -13.1495  -47.1403 H         1 UNK         0.0600 
    129 H129        5.5716  -14.4301  -48.3541 H         1 UNK         0.0600 
    130 H130        3.5167  -14.6445  -49.1917 H         1 UNK         0.3000 
    131 H131        1.2702  -15.0711  -47.5268 H         1 UNK         0.0600 
    132 H132        1.8167  -16.1422  -49.8481 H         1 UNK         0.0800 
    133 H133        1.0247  -14.7491  -50.5289 H         1 UNK         0.0800 
    134 H134        0.6003  -17.4958  -47.6726 H         1 UNK         0.0800 
    135 H135       -0.9508  -18.1677  -48.0898 H         1 UNK         0.0800 
    136 H136       -0.8611  -18.5194  -50.9978 H         1 UNK         0.1150 
    137 H137        2.1878  -21.4342  -51.7324 H         1 UNK         0.1150 
    138 H138        2.1724  -19.2076  -48.0642 H         1 UNK         0.1150 
    139 H139        3.6178  -22.1490  -49.9030 H         1 UNK         0.0800 
    140 H140        4.4388  -20.6118  -49.8444 H         1 UNK         0.0800 
    141 H141        1.7675  -22.4300  -47.0942 H         1 UNK         0.0800 
    142 H142        2.7922  -23.4593  -48.0680 H         1 UNK         0.0800 
    143 H143        4.3670  -23.6819  -46.0679 H         1 UNK         0.0600 
    144 H144        2.5015  -21.8702  -44.8261 H         1 UNK         0.3000 
    145 H145        3.5803  -22.4854  -41.4743 H         1 UNK         0.0600 
    146 H146        3.7461  -19.9905  -41.5364 H         1 UNK         0.0600 
    147 H147        3.9043  -20.0413  -43.2913 H         1 UNK         0.0600 
    148 H148        5.1423  -20.7603  -42.2757 H         1 UNK         0.0600 
    149 H149        1.5597  -20.7869  -42.5860 H         1 UNK         0.3000 
    150 H150       -1.0690  -23.2311  -42.5495 H         1 UNK         0.0600 
    151 H151       -0.9357  -22.3854  -40.2000 H         1 UNK         0.0600 
    152 H152       -2.1516  -21.5203  -41.1276 H         1 UNK         0.0600 
    153 H153       -0.5958  -20.7642  -40.7935 H         1 UNK         0.0600 
    154 H154       -1.1270  -20.4777  -43.2085 H         1 UNK         0.3000 
    155 H155       -0.1487  -20.7504  -46.6448 H         1 UNK         0.0600 
    156 H156       -2.5705  -21.1619  -46.6117 H         1 UNK         0.0600 
    157 H157       -2.3081  -19.4294  -46.7401 H         1 UNK         0.0600 
    158 H158       -2.7835  -20.1385  -45.2014 H         1 UNK         0.0600 
    159 H159       -0.7348  -18.4689  -45.0916 H         1 UNK         0.3000 
    160 H160        2.5490  -18.0112  -43.7096 H         1 UNK         0.0600 
    161 H161        1.0128  -16.2821  -45.6814 H         1 UNK         0.0600 
    162 H162        2.5121  -17.1068  -46.1201 H         1 UNK         0.0600 
    163 H163        2.5126  -15.9186  -44.8328 H         1 UNK         0.0600 
    164 H164       -0.0180  -16.6141  -43.6422 H         1 UNK         0.3000 
    165 H165       -1.0739  -18.0565  -40.5747 H         1 UNK         0.0600 
    166 H166       -1.1788  -15.6774  -39.8884 H         1 UNK         0.0600 
    167 H167        0.4854  -16.2411  -39.8594 H         1 UNK         0.0600 
    168 H168       -0.0723  -15.2253  -41.1830 H         1 UNK         0.0600 
    169 H169       -2.1323  -16.0093  -42.3052 H         1 UNK         0.3000 
    170 H170       -3.9161  -18.1818  -44.4793 H         1 UNK         0.0600 
    171 H171       -5.3513  -18.2507  -42.4374 H         1 UNK         0.0600 
    172 H172       -5.0304  -16.5462  -42.1407 H         1 UNK         0.0600 
    173 H173       -5.9246  -17.0441  -43.5766 H         1 UNK         0.0600 
    174 H174       -4.1363  -15.3994  -44.1776 H         1 UNK         0.3000 
    175 H175       -2.2571  -14.7216  -46.9296 H         1 UNK         0.0600 
    176 H176       -3.6320  -12.7837  -46.3079 H         1 UNK         0.0600 
    177 H177       -4.5694  -14.2480  -46.0957 H         1 UNK         0.0600 
    178 H178       -3.8966  -13.4175  -44.6899 H         1 UNK         0.0600 
    179 H179       -0.7104  -13.3635  -46.1992 H         1 UNK         0.3000 
    180 H180       -0.0156  -11.6096  -43.4592 H         1 UNK         0.0600 
    181 H181        2.3033  -12.5006  -43.0998 H         1 UNK         0.0600 
    182 H182        1.7812  -14.0767  -43.6871 H         1 UNK         0.0600 
    183 H183        1.0975  -13.4121  -42.2095 H         1 UNK         0.0600 
    184 H184        1.6604  -12.5687  -45.6659 H         1 UNK         0.3000 
    185 H185        0.1955  -10.4670  -48.1095 H         1 UNK         0.0600 
    186 H186        2.4941   -9.5733  -48.4290 H         1 UNK         0.0600 
    187 H187        1.7390   -8.8181  -47.0344 H         1 UNK         0.0600 
    188 H188        2.9440  -10.0791  -46.7997 H         1 UNK         0.0600 
    189 H189        2.5322  -12.1616  -48.0206 H         1 UNK         0.3000 
    190 H190        1.6530  -24.2703  -44.1389 H         1 UNK         0.3000 
    191 H191        0.6245  -26.0471  -43.3791 H         1 UNK         0.0600 
    192 H192        1.8028  -28.2025  -43.3365 H         1 UNK         0.0600 
    193 H193        2.9626  -26.9038  -43.1171 H         1 UNK         0.0600 
    194 H194        2.8355  -27.7206  -44.6752 H         1 UNK         0.0600 
    195 H195       -0.1403  -25.0790  -46.0526 H         1 UNK         0.3000 
    196 H196       -2.2283  -26.8447  -46.6893 H         1 UNK         0.0600 
    197 H197       -1.4791  -27.5280  -49.0256 H         1 UNK         0.0600 
    198 H198       -0.5546  -28.3252  -47.7782 H         1 UNK         0.0600 
    199 H199        0.1542  -26.9708  -48.6442 H         1 UNK         0.0600 
    200 H200       -1.1029  -25.5349  -49.5544 H         1 UNK         0.3000 
    201 H201       -1.4079  -23.7032  -50.7704 H         1 UNK         0.0600 
    202 H202       -0.7858  -22.3111  -48.1164 H         1 UNK         0.0600 
    203 H203       -0.6292  -21.5737  -49.6999 H         1 UNK         0.0600 
    204 H204        0.3972  -22.9206  -49.2672 H         1 UNK         0.0600 
    205 H205       -2.4121  -21.0387  -49.7031 H         1 UNK         0.3000 
    206 H206       -5.2188  -21.4182  -49.1179 H         1 UNK         0.0600 
    207 H207       -4.9354  -21.7220  -51.7039 H         1 UNK         0.0600 
    208 H208       -6.0408  -20.4536  -51.1934 H         1 UNK         0.0600 
    209 H209       -4.4184  -20.0551  -51.7562 H         1 UNK         0.0600 
    210 H210       -5.9589  -19.5318  -48.1255 H         1 UNK         0.3000 
    211 H211       -4.0768  -17.6044  -47.1992 H         1 UNK         0.0600 
    212 H212       -7.1412  -17.5781  -47.1396 H         1 UNK         0.0600 
    213 H213       -6.0889  -16.5278  -46.1988 H         1 UNK         0.0600 
    214 H214       -6.0874  -18.2598  -45.9015 H         1 UNK         0.0600 
    215 H215       -3.2600  -15.9531  -48.2719 H         1 UNK         0.3000 
    216 H216       -2.8650  -14.2428  -49.5908 H         1 UNK         0.0600 
    217 H217       -4.6261  -12.7242  -50.3425 H         1 UNK         0.0600 
    218 H218       -4.9901  -13.2475  -48.7076 H         1 UNK         0.0600 
    219 H219       -5.8702  -13.9347  -50.0731 H         1 UNK         0.0600 
    220 H220       -3.0544  -17.0218  -50.5890 H         1 UNK         0.3000 
    221 H221       -2.6621  -18.2153  -52.3897 H         1 UNK         0.0600 
    222 H222       -1.3611  -17.1960  -54.2225 H         1 UNK         0.0600 
    223 H223       -1.8371  -15.5807  -53.7149 H         1 UNK         0.0600 
    224 H224       -0.8113  -16.5701  -52.6767 H         1 UNK         0.0600 
    225 H225       -5.2740  -17.8152  -52.0312 H         1 UNK         0.3000 
    226 H226       -6.7243  -17.2412  -54.4464 H         1 UNK         0.0600 
    227 H227       -7.7180  -17.1894  -52.1363 H         1 UNK         0.0600 
    228 H228       -8.6131  -18.2545  -53.2014 H         1 UNK         0.0600 
    229 H229       -7.5169  -18.9323  -52.0080 H         1 UNK         0.0600 
    230 H230       -8.2584  -19.1267  -55.2133 H         1 UNK         0.3000 
    231 H231       -6.8375  -20.5112  -57.0734 H         1 UNK         0.0600 
    232 H232       -9.0386  -21.5867  -57.6083 H         1 UNK         0.0600 
    233 H233       -9.2144  -19.8728  -57.2787 H         1 UNK         0.0600 
    234 H234       -9.6735  -21.0584  -56.0551 H         1 UNK         0.0600 
    235 H235       -7.2051  -21.7101  -53.8585 H         1 UNK         0.3000 
    236 H236       -6.8702  -24.5331  -54.5002 H         1 UNK         0.0600 
    237 H237       -6.7400  -22.9705  -51.8823 H         1 UNK         0.0600 
    238 H238       -8.0062  -24.0434  -52.4506 H         1 UNK         0.0600 
    239 H239       -6.4429  -24.6990  -51.9958 H         1 UNK         0.0600 
    240 H240       -4.6868  -21.8070  -54.3331 H         1 UNK         0.3000 
    241 H241       -2.2567  -23.4304  -54.1014 H         1 UNK         0.0600 
    242 H242       -1.7466  -24.3518  -57.4780 H         1 UNK         0.3800 
    243 H243       -1.3186  -24.5844  -55.8073 H         1 UNK         0.3800 
    244 H244       -2.7581  -20.4984  -54.8096 H         1 UNK         0.0800 
    245 H245       -1.2022  -21.2366  -55.0566 H         1 UNK         0.0800 
    246 H246       -0.0941  -19.3733  -53.4456 H         1 UNK         0.0800 
    247 H247        0.6170  -20.9722  -53.4484 H         1 UNK         0.0800 
@<TRIPOS>BOND
     1    1    2 1    
     2    1  127 1    
     3    1  128 1    
     4    1  129 1    
     5    2    3 2    
     6    2    4 am   BACKBONE|DICT|INTERRES
     7    4    5 1    
     8    4  130 1    
     9    5    6 1    
    10    5   65 1    
    11    5  131 1    
    12    6    7 1    
    13    6  132 1    
    14    6  133 1    
    15    7    8 1    
    16    8    9 1    
    17    8  134 1    
    18    8  135 1    
    19    9   10 ar   
    20    9   14 ar   
    21   10   11 ar   
    22   10  136 1    
    23   11   12 ar   
    24   11  126 1    
    25   12   13 ar   
    26   12  137 1    
    27   13   14 ar   
    28   13   15 1    
    29   14  138 1    
    30   15   16 1    
    31   15  139 1    
    32   15  140 1    
    33   16   17 1    
    34   17   18 1    
    35   17  141 1    
    36   17  142 1    
    37   18   19 1    
    38   18   67 1    
    39   18  143 1    
    40   19   20 am   BACKBONE|DICT|INTERRES
    41   19  144 1    
    42   20   21 2    
    43   20   22 1    
    44   22   23 1    
    45   22   24 1    
    46   22  145 1    
    47   23  146 1    
    48   23  147 1    
    49   23  148 1    
    50   24   25 am   BACKBONE|DICT|INTERRES
    51   24  149 1    
    52   25   26 2    
    53   25   27 1    
    54   27   28 1    
    55   27   29 1    
    56   27  150 1    
    57   28  151 1    
    58   28  152 1    
    59   28  153 1    
    60   29   30 am   BACKBONE|DICT|INTERRES
    61   29  154 1    
    62   30   31 2    
    63   30   32 1    
    64   32   33 1    
    65   32   34 1    
    66   32  155 1    
    67   33  156 1    
    68   33  157 1    
    69   33  158 1    
    70   34   35 am   BACKBONE|DICT|INTERRES
    71   34  159 1    
    72   35   36 2    
    73   35   37 1    
    74   37   38 1    
    75   37   39 1    
    76   37  160 1    
    77   38  161 1    
    78   38  162 1    
    79   38  163 1    
    80   39   40 am   BACKBONE|DICT|INTERRES
    81   39  164 1    
    82   40   41 2    
    83   40   42 1    
    84   42   43 1    
    85   42   44 1    
    86   42  165 1    
    87   43  166 1    
    88   43  167 1    
    89   43  168 1    
    90   44   45 am   BACKBONE|DICT|INTERRES
    91   44  169 1    
    92   45   46 2    
    93   45   47 1    
    94   47   48 1    
    95   47   49 1    
    96   47  170 1    
    97   48  171 1    
    98   48  172 1    
    99   48  173 1    
   100   49   50 am   BACKBONE|DICT|INTERRES
   101   49  174 1    
   102   50   51 2    
   103   50   52 1    
   104   52   53 1    
   105   52   54 1    
   106   52  175 1    
   107   53  176 1    
   108   53  177 1    
   109   53  178 1    
   110   54   55 am   BACKBONE|DICT|INTERRES
   111   54  179 1    
   112   55   56 2    
   113   55   57 1    
   114   57   58 1    
   115   57   59 1    
   116   57  180 1    
   117   58  181 1    
   118   58  182 1    
   119   58  183 1    
   120   59   60 am   BACKBONE|DICT|INTERRES
   121   59  184 1    
   122   60   61 2    
   123   60   62 1    
   124   62   63 1    
   125   62   64 1    
   126   62  185 1    
   127   63  186 1    
   128   63  187 1    
   129   63  188 1    
   130   64   65 am   BACKBONE|DICT|INTERRES
   131   64  189 1    
   132   65   66 2    
   133   67   68 2    
   134   67   69 am   BACKBONE|DICT|INTERRES
   135   69   70 1    
   136   69  190 1    
   137   70   71 1    
   138   70   72 1    
   139   70  191 1    
   140   71  192 1    
   141   71  193 1    
   142   71  194 1    
   143   72   73 2    
   144   72   74 am   BACKBONE|DICT|INTERRES
   145   74   75 1    
   146   74  195 1    
   147   75   76 1    
   148   75   77 1    
   149   75  196 1    
   150   76  197 1    
   151   76  198 1    
   152   76  199 1    
   153   77   78 2    
   154   77   79 am   BACKBONE|DICT|INTERRES
   155   79   80 1    
   156   79  200 1    
   157   80   81 1    
   158   80   82 1    
   159   80  201 1    
   160   81  202 1    
   161   81  203 1    
   162   81  204 1    
   163   82   83 2    
   164   82   84 am   BACKBONE|DICT|INTERRES
   165   84   85 1    
   166   84  205 1    
   167   85   86 1    
   168   85   87 1    
   169   85  206 1    
   170   86  207 1    
   171   86  208 1    
   172   86  209 1    
   173   87   88 2    
   174   87   89 am   BACKBONE|DICT|INTERRES
   175   89   90 1    
   176   89  210 1    
   177   90   91 1    
   178   90   92 1    
   179   90  211 1    
   180   91  212 1    
   181   91  213 1    
   182   91  214 1    
   183   92   93 2    
   184   92   94 am   BACKBONE|DICT|INTERRES
   185   94   95 1    
   186   94  215 1    
   187   95   96 1    
   188   95   97 1    
   189   95  216 1    
   190   96  217 1    
   191   96  218 1    
   192   96  219 1    
   193   97   98 2    
   194   97   99 am   BACKBONE|DICT|INTERRES
   195   99  100 1    
   196   99  220 1    
   197  100  101 1    
   198  100  102 1    
   199  100  221 1    
   200  101  222 1    
   201  101  223 1    
   202  101  224 1    
   203  102  103 2    
   204  102  104 am   BACKBONE|DICT|INTERRES
   205  104  105 1    
   206  104  225 1    
   207  105  106 1    
   208  105  107 1    
   209  105  226 1    
   210  106  227 1    
   211  106  228 1    
   212  106  229 1    
   213  107  108 2    
   214  107  109 am   BACKBONE|DICT|INTERRES
   215  109  110 1    
   216  109  230 1    
   217  110  111 1    
   218  110  112 1    
   219  110  231 1    
   220  111  232 1    
   221  111  233 1    
   222  111  234 1    
   223  112  113 2    
   224  112  114 am   BACKBONE|DICT|INTERRES
   225  114  115 1    
   226  114  235 1    
   227  115  116 1    
   228  115  117 1    
   229  115  236 1    
   230  116  237 1    
   231  116  238 1    
   232  116  239 1    
   233  117  118 2    
   234  117  119 am   BACKBONE|DICT|INTERRES
   235  119  120 1    
   236  119  240 1    
   237  120  121 1    
   238  120  124 1    
   239  120  241 1    
   240  121  122 am   BACKBONE|DICT|INTERRES
   241  121  123 2    
   242  122  242 1    
   243  122  243 1    
   244  124  125 1    
   245  124  244 1    
   246  124  245 1    
   247  125  126 1    
   248  126  246 1    
   249  126  247 1    
@<TRIPOS>SUBSTRUCTURE
     1 UNK         1 GROUP             0       ****    0 ROOT    
