@<TRIPOS>MOLECULE
3R540
247   249    1
SMALL
USER_CHARGES


@<TRIPOS>ATOM
      1 CA          1.9480  -10.9220  -44.8059 C.3       0 UNK        -0.1800 
      2 C           1.1215  -12.0141  -45.4688 C.2       0 UNK         0.5000 
      3 O           0.7486  -12.9827  -44.8060 O.2       0 UNK        -0.5000 
      4 N           0.8323  -11.8641  -46.7686 N.am      1 UNK        -0.5000 
      5 CA          0.0250  -12.8032  -47.5551 C.3       1 UNK         0.1400 
      6 C6          0.2239  -12.6093  -49.0815 C.3       23 UNK        -0.0398 
      7 S7          0.0458  -14.1855  -49.9927 S.3       23 UNK        -0.2404 
      8 C8          1.7861  -14.6062  -50.3345 C.3       23 UNK        -0.0205 
      9 C9          1.9557  -16.0101  -50.9079 C.ar      23 UNK        -0.0193 
     10 C10         1.1911  -16.4354  -52.0007 C.ar      23 UNK        -0.1150 
     11 C11         1.3632  -17.7146  -52.5359 C.ar      23 UNK        -0.0193 
     12 C12         2.3301  -18.5628  -51.9906 C.ar      23 UNK        -0.1150 
     13 C13         3.1109  -18.1509  -50.9057 C.ar      23 UNK        -0.0193 
     14 C14         2.9108  -16.8767  -50.3641 C.ar      23 UNK        -0.1150 
     15 C15         4.2104  -19.0550  -50.3589 C.3       23 UNK        -0.0205 
     16 S16         3.6207  -20.7185  -49.9059 S.3       23 UNK        -0.2404 
     17 C17         2.8594  -20.4083  -48.2798 C.3       23 UNK        -0.0398 
     18 CA          2.1463  -21.6689  -47.7254 C.3       11 UNK         0.1400 
     19 N           2.1125  -21.6834  -46.2604 N.am      11 UNK        -0.5000 
     20 C           1.8162  -22.7575  -45.5139 C.2       10 UNK         0.5000 
     21 O           1.6085  -23.8788  -45.9778 O.2       10 UNK        -0.5000 
     22 CA          1.6987  -22.5372  -43.9929 C.3       10 UNK         0.1400 
     23 CB          3.0754  -22.6232  -43.3172 C.3       10 UNK        -0.1800 
     24 N           1.0668  -21.2616  -43.6545 N.am      10 UNK        -0.5000 
     25 C          -0.1976  -20.9371  -43.9601 C.2       9 UNK         0.5000 
     26 O          -0.9926  -21.7091  -44.4983 O.2       9 UNK        -0.5000 
     27 CA         -0.6204  -19.4840  -43.6777 C.3       9 UNK         0.1400 
     28 CB         -0.9998  -19.2929  -42.2020 C.3       9 UNK        -0.1800 
     29 N           0.4154  -18.5182  -44.0514 N.am      9 UNK        -0.5000 
     30 C           0.8612  -18.3329  -45.3019 C.2       8 UNK         0.5000 
     31 O           0.4067  -18.9183  -46.2790 O.2       8 UNK        -0.5000 
     32 CA          2.0369  -17.3678  -45.5006 C.3       8 UNK         0.1400 
     33 CB          1.5307  -15.9279  -45.6137 C.3       8 UNK        -0.1800 
     34 N           3.0216  -17.4792  -44.4278 N.am      8 UNK        -0.5000 
     35 C           3.8295  -18.5367  -44.2665 C.2       7 UNK         0.5000 
     36 O           3.8577  -19.4968  -45.0364 O.2       7 UNK        -0.5000 
     37 CA          4.7172  -18.5409  -43.0093 C.3       7 UNK         0.1400 
     38 CB          6.0040  -17.7384  -43.2515 C.3       7 UNK        -0.1800 
     39 N           4.0229  -18.0048  -41.8375 N.am      7 UNK        -0.5000 
     40 C           2.9712  -18.5913  -41.2480 C.2       6 UNK         0.5000 
     41 O           2.5054  -19.6740  -41.6034 O.2       6 UNK        -0.5000 
     42 CA          2.2975  -17.8081  -40.1049 C.3       6 UNK         0.1400 
     43 CB          2.9899  -18.1029  -38.7663 C.3       6 UNK        -0.1800 
     44 N           2.2746  -16.3591  -40.3346 N.am      6 UNK        -0.5000 
     45 C           1.6112  -15.7646  -41.3347 C.2       5 UNK         0.5000 
     46 O           0.9649  -16.3836  -42.1837 O.2       5 UNK        -0.5000 
     47 CA          1.7468  -14.2366  -41.4409 C.3       5 UNK         0.1400 
     48 CB          2.9432  -13.8714  -42.3333 C.3       5 UNK        -0.1800 
     49 N           0.5342  -13.6624  -42.0167 N.am      5 UNK        -0.5000 
     50 C          -0.5662  -13.3561  -41.3184 C.2       4 UNK         0.5000 
     51 O          -0.6273  -13.3810  -40.0881 O.2       4 UNK        -0.5000 
     52 CA         -1.8223  -13.0041  -42.1360 C.3       4 UNK         0.1400 
     53 CB         -1.7544  -11.5746  -42.6944 C.3       4 UNK        -0.1800 
     54 N          -2.0338  -13.9584  -43.2257 N.am      4 UNK        -0.5000 
     55 C          -2.4799  -15.2104  -43.0400 C.2       3 UNK         0.5000 
     56 O          -2.8268  -15.6458  -41.9405 O.2       3 UNK        -0.5000 
     57 CA         -2.5387  -16.1350  -44.2753 C.3       3 UNK         0.1400 
     58 CB         -3.5924  -17.2559  -44.1418 C.3       3 UNK        -0.1800 
     59 N          -2.6971  -15.4306  -45.5510 N.am      3 UNK        -0.5000 
     60 C          -3.7351  -14.6786  -45.9512 C.2       2 UNK         0.5000 
     61 O          -4.7314  -14.4506  -45.2635 O.2       2 UNK        -0.5000 
     62 CA         -3.6171  -14.0926  -47.3749 C.3       2 UNK         0.1400 
     63 CB         -4.5799  -12.9149  -47.6368 C.3       2 UNK        -0.1800 
     64 N          -2.2304  -13.7457  -47.7137 N.am      2 UNK        -0.5000 
     65 C          -1.4664  -12.8074  -47.1356 C.2       1 UNK         0.5000 
     66 O          -1.8869  -12.0058  -46.2979 O.2       1 UNK        -0.5000 
     67 C           0.7389  -21.8409  -48.3384 C.2       11 UNK         0.5000 
     68 O           0.5882  -22.5838  -49.3068 O.2       11 UNK        -0.5000 
     69 N          -0.2584  -21.1563  -47.7602 N.am      12 UNK        -0.5000 
     70 CA         -1.6536  -21.1532  -48.1954 C.3       12 UNK         0.1400 
     71 CB         -2.4160  -20.0360  -47.4636 C.3       12 UNK        -0.1800 
     72 C          -2.3639  -22.5013  -48.0055 C.2       12 UNK         0.5000 
     73 O          -3.1676  -22.8795  -48.8601 O.2       12 UNK        -0.5000 
     74 N          -2.0390  -23.1950  -46.9065 N.am      13 UNK        -0.5000 
     75 CA         -2.5430  -24.5132  -46.5171 C.3       13 UNK         0.1400 
     76 CB         -2.1021  -25.5802  -47.5453 C.3       13 UNK        -0.1800 
     77 C          -4.0643  -24.5254  -46.2395 C.2       13 UNK         0.5000 
     78 O          -4.6642  -23.4737  -45.9958 O.2       13 UNK        -0.5000 
     79 N          -4.6556  -25.7285  -46.2341 N.am      14 UNK        -0.5000 
     80 CA         -6.0717  -25.9836  -45.9668 C.3       14 UNK         0.1400 
     81 CB         -6.3287  -27.4974  -46.0118 C.3       14 UNK        -0.1800 
     82 C          -6.9923  -25.2475  -46.9559 C.2       14 UNK         0.5000 
     83 O          -6.7910  -25.3497  -48.1682 O.2       14 UNK        -0.5000 
     84 N          -7.9575  -24.4924  -46.4111 N.am      15 UNK        -0.5000 
     85 CA         -8.9502  -23.6677  -47.1167 C.3       15 UNK         0.1400 
     86 CB         -9.9413  -24.5696  -47.8821 C.3       15 UNK        -0.1800 
     87 C          -8.3454  -22.5710  -48.0252 C.2       15 UNK         0.5000 
     88 O          -9.0455  -22.0551  -48.8977 O.2       15 UNK        -0.5000 
     89 N          -7.0573  -22.2505  -47.8199 N.am      16 UNK        -0.5000 
     90 CA         -6.2127  -21.3850  -48.6483 C.3       16 UNK         0.1400 
     91 CB         -6.6862  -19.9184  -48.5784 C.3       16 UNK        -0.1800 
     92 C          -6.0445  -21.8958  -50.0989 C.2       16 UNK         0.5000 
     93 O          -5.7911  -21.0980  -51.0033 O.2       16 UNK        -0.5000 
     94 N          -6.1821  -23.2143  -50.3080 N.am      17 UNK        -0.5000 
     95 CA         -6.1767  -23.8534  -51.6247 C.3       17 UNK         0.1400 
     96 CB         -6.5548  -25.3336  -51.4726 C.3       17 UNK        -0.1800 
     97 C          -4.8455  -23.7111  -52.3826 C.2       17 UNK         0.5000 
     98 O          -4.8592  -23.5173  -53.5989 O.2       17 UNK        -0.5000 
     99 N          -3.7198  -23.7745  -51.6596 N.am      18 UNK        -0.5000 
    100 CA        -2.3891  -23.6056  -52.2409 C.3       18 UNK         0.1400 
    101 CB        -1.3402  -24.3064  -51.3686 C.3       18 UNK        -0.1800 
    102 C         -2.0451  -22.1265  -52.4953 C.2       18 UNK         0.5000 
    103 O         -1.2671  -21.8495  -53.4076 O.2       18 UNK        -0.5000 
    104 N         -2.6686  -21.2013  -51.7477 N.am      19 UNK        -0.5000 
    105 CA        -2.6022  -19.7609  -52.0146 C.3       19 UNK         0.1400 
    106 CB        -3.0520  -18.9419  -50.7945 C.3       19 UNK        -0.1800 
    107 C         -3.4090  -19.3722  -53.2637 C.2       19 UNK         0.5000 
    108 O         -2.9493  -18.5432  -54.0482 O.2       19 UNK        -0.5000 
    109 N         -4.5829  -19.9955  -53.4365 N.am      20 UNK        -0.5000 
    110 CA        -5.4354  -19.8409  -54.6148 C.3       20 UNK         0.1400 
    111 CB        -6.7853  -20.5301  -54.3636 C.3       20 UNK        -0.1800 
    112 C         -4.7718  -20.3742  -55.8994 C.2       20 UNK         0.5000 
    113 O         -4.9062  -19.7501  -56.9526 O.2       20 UNK        -0.5000 
    114 N         -4.0574  -21.5028  -55.7850 N.am      21 UNK        -0.5000 
    115 CA        -3.2771  -22.1012  -56.8661 C.3       21 UNK         0.1400 
    116 CB        -2.9500  -23.5620  -56.5144 C.3       21 UNK        -0.1800 
    117 C         -1.9990  -21.2968  -57.1718 C.2       21 UNK         0.5000 
    118 O         -1.8361  -20.8157  -58.2937 O.2       21 UNK        -0.5000 
    119 N         -1.1192  -21.1725  -56.1684 N.am      22 UNK        -0.5000 
    120 CA         0.1901  -20.4994  -56.2275 C.3       22 UNK         0.1400 
    121 C          1.2141  -21.1114  -57.2357 C.2       22 UNK         0.5000 
    122 N          1.0818  -22.3775  -57.6135 N.am      22 UNK        -0.7600 
    123 O          2.1541  -20.4496  -57.6677 O.2       22 UNK        -0.5000 
    124 C124        0.0548  -18.9504  -56.3188 C.3       23 UNK        -0.0398 
    125 S125        1.2941  -18.0776  -55.2961 S.3       23 UNK        -0.2404 
    126 C126        0.4813  -18.1984  -53.6754 C.3       23 UNK        -0.0205 
    127 H127        1.4442  -10.5628  -43.9086 H         1 UNK         0.0600 
    128 H128        2.1059  -10.0729  -45.4710 H         1 UNK         0.0600 
    129 H129        2.9220  -11.3158  -44.5162 H         1 UNK         0.0600 
    130 H130        1.1320  -11.0273  -47.2475 H         1 UNK         0.3000 
    131 H131        0.4107  -13.7907  -47.3017 H         1 UNK         0.0600 
    132 H132       -0.4765  -11.8760  -49.4858 H         1 UNK         0.0800 
    133 H133        1.2173  -12.2090  -49.2894 H         1 UNK         0.0800 
    134 H134        2.3576  -14.5034  -49.4104 H         1 UNK         0.0800 
    135 H135        2.1988  -13.8843  -51.0405 H         1 UNK         0.0800 
    136 H136        0.4522  -15.7723  -52.4284 H         1 UNK         0.1150 
    137 H137        2.4766  -19.5469  -52.4138 H         1 UNK         0.1150 
    138 H138        3.5182  -16.5491  -49.5320 H         1 UNK         0.1150 
    139 H139        4.9781  -19.1590  -51.1266 H         1 UNK         0.0800 
    140 H140        4.7018  -18.6010  -49.4969 H         1 UNK         0.0800 
    141 H141        2.1841  -19.5525  -48.3407 H         1 UNK         0.0800 
    142 H142        3.6665  -20.1093  -47.6105 H         1 UNK         0.0800 
    143 H143        2.7320  -22.5430  -48.0197 H         1 UNK         0.0600 
    144 H144        2.3240  -20.8110  -45.7915 H         1 UNK         0.3000 
    145 H145        1.0725  -23.3358  -43.5898 H         1 UNK         0.0600 
    146 H146        2.9887  -22.5330  -42.2342 H         1 UNK         0.0600 
    147 H147        3.5544  -23.5802  -43.5275 H         1 UNK         0.0600 
    148 H148        3.7459  -21.8369  -43.6642 H         1 UNK         0.0600 
    149 H149        1.6381  -20.5851  -43.1573 H         1 UNK         0.3000 
    150 H150       -1.5015  -19.2747  -44.2859 H         1 UNK         0.0600 
    151 H151       -1.8435  -19.9294  -41.9331 H         1 UNK         0.0600 
    152 H152       -1.2893  -18.2621  -41.9962 H         1 UNK         0.0600 
    153 H153       -0.1753  -19.5452  -41.5360 H         1 UNK         0.0600 
    154 H154        0.7972  -17.9416  -43.3068 H         1 UNK         0.3000 
    155 H155        2.5259  -17.6259  -46.4427 H         1 UNK         0.0600 
    156 H156        1.0218  -15.6058  -44.7057 H         1 UNK         0.0600 
    157 H157        0.8189  -15.8423  -46.4342 H         1 UNK         0.0600 
    158 H158        2.3456  -15.2314  -45.8114 H         1 UNK         0.0600 
    159 H159        3.0185  -16.7544  -43.7266 H         1 UNK         0.3000 
    160 H160        4.9927  -19.5765  -42.7989 H         1 UNK         0.0600 
    161 H161        5.7942  -16.6855  -43.4444 H         1 UNK         0.0600 
    162 H162        6.5498  -18.1276  -44.1121 H         1 UNK         0.0600 
    163 H163        6.6719  -17.7959  -42.3918 H         1 UNK         0.0600 
    164 H164        4.3447  -17.1183  -41.4788 H         1 UNK         0.3000 
    165 H165        1.2634  -18.1514  -40.0354 H         1 UNK         0.0600 
    166 H166        2.4685  -17.6222  -37.9383 H         1 UNK         0.0600 
    167 H167        3.0030  -19.1744  -38.5617 H         1 UNK         0.0600 
    168 H168        4.0236  -17.7549  -38.7605 H         1 UNK         0.0600 
    169 H169        2.7932  -15.7906  -39.6804 H         1 UNK         0.3000 
    170 H170        1.9133  -13.8205  -40.4451 H         1 UNK         0.0600 
    171 H171        3.8734  -14.2732  -41.9299 H         1 UNK         0.0600 
    172 H172        2.8271  -14.2603  -43.3455 H         1 UNK         0.0600 
    173 H173        3.0614  -12.7902  -42.4046 H         1 UNK         0.0600 
    174 H174        0.5031  -13.6052  -43.0316 H         1 UNK         0.3000 
    175 H175       -2.6817  -13.0528  -41.4637 H         1 UNK         0.0600 
    176 H176       -0.9244  -11.4456  -43.3869 H         1 UNK         0.0600 
    177 H177       -2.6712  -11.3166  -43.2250 H         1 UNK         0.0600 
    178 H178       -1.6266  -10.8486  -41.8908 H         1 UNK         0.0600 
    179 H179       -1.7569  -13.6620  -44.1516 H         1 UNK         0.3000 
    180 H180       -1.5599  -16.6108  -44.3208 H         1 UNK         0.0600 
    181 H181       -4.6011  -16.8539  -44.0460 H         1 UNK         0.0600 
    182 H182       -3.4074  -17.8721  -43.2619 H         1 UNK         0.0600 
    183 H183       -3.5760  -17.9174  -45.0081 H         1 UNK         0.0600 
    184 H184       -1.9311  -15.5359  -46.1994 H         1 UNK         0.3000 
    185 H185       -3.9008  -14.8982  -48.0536 H         1 UNK         0.0600 
    186 H186       -4.4509  -12.5162  -48.6430 H         1 UNK         0.0600 
    187 H187       -5.6184  -13.2352  -47.5461 H         1 UNK         0.0600 
    188 H188       -4.4309  -12.0986  -46.9298 H         1 UNK         0.0600 
    189 H189       -1.8020  -14.3228  -48.4269 H         1 UNK         0.3000 
    190 H190       -0.0238  -20.5011  -47.0175 H         1 UNK         0.3000 
    191 H191       -1.6500  -20.9369  -49.2621 H         1 UNK         0.0600 
    192 H192       -3.4407  -19.9560  -47.8247 H         1 UNK         0.0600 
    193 H193       -1.9450  -19.0653  -47.6182 H         1 UNK         0.0600 
    194 H194       -2.4605  -20.2173  -46.3896 H         1 UNK         0.0600 
    195 H195       -1.4385  -22.7405  -46.2263 H         1 UNK         0.3000 
    196 H196       -2.0574  -24.7436  -45.5679 H         1 UNK         0.0600 
    197 H197       -2.6639  -25.5035  -48.4772 H         1 UNK         0.0600 
    198 H198       -1.0441  -25.4760  -47.7877 H         1 UNK         0.0600 
    199 H199       -2.2395  -26.5901  -47.1584 H         1 UNK         0.0600 
    200 H200       -4.0978  -26.5365  -46.4667 H         1 UNK         0.3000 
    201 H201       -6.2825  -25.6310  -44.9551 H         1 UNK         0.0600 
    202 H202       -6.0985  -27.9152  -46.9928 H         1 UNK         0.0600 
    203 H203       -7.3743  -27.7221  -45.7970 H         1 UNK         0.0600 
    204 H204       -5.7256  -28.0238  -45.2718 H         1 UNK         0.0600 
    205 H205       -8.0149  -24.4548  -45.4026 H         1 UNK         0.3000 
    206 H206       -9.5116  -23.1401  -46.3445 H         1 UNK         0.0600 
    207 H207      -10.3671  -25.3314  -47.2291 H         1 UNK         0.0600 
    208 H208      -10.7727  -23.9894  -48.2838 H         1 UNK         0.0600 
    209 H209       -9.4619  -25.0762  -48.7205 H         1 UNK         0.0600 
    210 H210       -6.5645  -22.7415  -47.0832 H         1 UNK         0.3000 
    211 H211       -5.2243  -21.4274  -48.1951 H         1 UNK         0.0600 
    212 H212       -5.9699  -19.2501  -49.0562 H         1 UNK         0.0600 
    213 H213       -6.7943  -19.5880  -47.5454 H         1 UNK         0.0600 
    214 H214       -7.6443  -19.7773  -49.0790 H         1 UNK         0.0600 
    215 H215       -6.3676  -23.8195  -49.5147 H         1 UNK         0.3000 
    216 H216       -6.9476  -23.3680  -52.2266 H         1 UNK         0.0600 
    217 H217       -5.8375  -25.8687  -50.8489 H         1 UNK         0.0600 
    218 H218       -6.5861  -25.8322  -52.4423 H         1 UNK         0.0600 
    219 H219       -7.5395  -25.4436  -51.0177 H         1 UNK         0.0600 
    220 H220       -3.7746  -23.8472  -50.6492 H         1 UNK         0.3000 
    221 H221       -2.3705  -24.1043  -53.2120 H         1 UNK         0.0600 
    222 H222       -1.5166  -25.3813  -51.3313 H         1 UNK         0.0600 
    223 H223       -1.3478  -23.9367  -50.3466 H         1 UNK         0.0600 
    224 H224       -0.3352  -24.1539  -51.7640 H         1 UNK         0.0600 
    225 H225       -3.3286  -21.5140  -51.0492 H         1 UNK         0.3000 
    226 H226       -1.5627  -19.4990  -52.2034 H         1 UNK         0.0600 
    227 H227       -3.9457  -19.3526  -50.3287 H         1 UNK         0.0600 
    228 H228       -2.2636  -18.8951  -50.0463 H         1 UNK         0.0600 
    229 H229       -3.2719  -17.9093  -51.0698 H         1 UNK         0.0600 
    230 H230       -4.9279  -20.5994  -52.6964 H         1 UNK         0.3000 
    231 H231       -5.6206  -18.7739  -54.7545 H         1 UNK         0.0600 
    232 H232       -6.6696  -21.6032  -54.2118 H         1 UNK         0.0600 
    233 H233       -7.4582  -20.3892  -55.2103 H         1 UNK         0.0600 
    234 H234       -7.2791  -20.1201  -53.4823 H         1 UNK         0.0600 
    235 H235       -4.0597  -21.9884  -54.8962 H         1 UNK         0.3000 
    236 H236       -3.8914  -22.1078  -57.7692 H         1 UNK         0.0600 
    237 H237       -3.8610  -24.1442  -56.3734 H         1 UNK         0.0600 
    238 H238       -2.3807  -24.0380  -57.3136 H         1 UNK         0.0600 
    239 H239       -2.3628  -23.6402  -55.5995 H         1 UNK         0.0600 
    240 H240       -1.3405  -21.5736  -55.2606 H         1 UNK         0.3000 
    241 H241        0.6277  -20.7354  -55.2577 H         1 UNK         0.0600 
    242 H242        0.3263  -22.9427  -57.2616 H         1 UNK         0.3800 
    243 H243        1.7468  -22.7739  -58.2592 H         1 UNK         0.3800 
    244 H244       -0.9331  -18.6310  -55.9831 H         1 UNK         0.0800 
    245 H245        0.1314  -18.6083  -57.3521 H         1 UNK         0.0800 
    246 H246       -0.4517  -17.6337  -53.6974 H         1 UNK         0.0800 
    247 H247        0.2143  -19.2396  -53.4967 H         1 UNK         0.0800 
@<TRIPOS>BOND
     1    1    2 1    
     2    1  127 1    
     3    1  128 1    
     4    1  129 1    
     5    2    3 2    
     6    2    4 am   BACKBONE|DICT|INTERRES
     7    4    5 1    
     8    4  130 1    
     9    5    6 1    
    10    5   65 1    
    11    5  131 1    
    12    6    7 1    
    13    6  132 1    
    14    6  133 1    
    15    7    8 1    
    16    8    9 1    
    17    8  134 1    
    18    8  135 1    
    19    9   10 ar   
    20    9   14 ar   
    21   10   11 ar   
    22   10  136 1    
    23   11   12 ar   
    24   11  126 1    
    25   12   13 ar   
    26   12  137 1    
    27   13   14 ar   
    28   13   15 1    
    29   14  138 1    
    30   15   16 1    
    31   15  139 1    
    32   15  140 1    
    33   16   17 1    
    34   17   18 1    
    35   17  141 1    
    36   17  142 1    
    37   18   19 1    
    38   18   67 1    
    39   18  143 1    
    40   19   20 am   BACKBONE|DICT|INTERRES
    41   19  144 1    
    42   20   21 2    
    43   20   22 1    
    44   22   23 1    
    45   22   24 1    
    46   22  145 1    
    47   23  146 1    
    48   23  147 1    
    49   23  148 1    
    50   24   25 am   BACKBONE|DICT|INTERRES
    51   24  149 1    
    52   25   26 2    
    53   25   27 1    
    54   27   28 1    
    55   27   29 1    
    56   27  150 1    
    57   28  151 1    
    58   28  152 1    
    59   28  153 1    
    60   29   30 am   BACKBONE|DICT|INTERRES
    61   29  154 1    
    62   30   31 2    
    63   30   32 1    
    64   32   33 1    
    65   32   34 1    
    66   32  155 1    
    67   33  156 1    
    68   33  157 1    
    69   33  158 1    
    70   34   35 am   BACKBONE|DICT|INTERRES
    71   34  159 1    
    72   35   36 2    
    73   35   37 1    
    74   37   38 1    
    75   37   39 1    
    76   37  160 1    
    77   38  161 1    
    78   38  162 1    
    79   38  163 1    
    80   39   40 am   BACKBONE|DICT|INTERRES
    81   39  164 1    
    82   40   41 2    
    83   40   42 1    
    84   42   43 1    
    85   42   44 1    
    86   42  165 1    
    87   43  166 1    
    88   43  167 1    
    89   43  168 1    
    90   44   45 am   BACKBONE|DICT|INTERRES
    91   44  169 1    
    92   45   46 2    
    93   45   47 1    
    94   47   48 1    
    95   47   49 1    
    96   47  170 1    
    97   48  171 1    
    98   48  172 1    
    99   48  173 1    
   100   49   50 am   BACKBONE|DICT|INTERRES
   101   49  174 1    
   102   50   51 2    
   103   50   52 1    
   104   52   53 1    
   105   52   54 1    
   106   52  175 1    
   107   53  176 1    
   108   53  177 1    
   109   53  178 1    
   110   54   55 am   BACKBONE|DICT|INTERRES
   111   54  179 1    
   112   55   56 2    
   113   55   57 1    
   114   57   58 1    
   115   57   59 1    
   116   57  180 1    
   117   58  181 1    
   118   58  182 1    
   119   58  183 1    
   120   59   60 am   BACKBONE|DICT|INTERRES
   121   59  184 1    
   122   60   61 2    
   123   60   62 1    
   124   62   63 1    
   125   62   64 1    
   126   62  185 1    
   127   63  186 1    
   128   63  187 1    
   129   63  188 1    
   130   64   65 am   BACKBONE|DICT|INTERRES
   131   64  189 1    
   132   65   66 2    
   133   67   68 2    
   134   67   69 am   BACKBONE|DICT|INTERRES
   135   69   70 1    
   136   69  190 1    
   137   70   71 1    
   138   70   72 1    
   139   70  191 1    
   140   71  192 1    
   141   71  193 1    
   142   71  194 1    
   143   72   73 2    
   144   72   74 am   BACKBONE|DICT|INTERRES
   145   74   75 1    
   146   74  195 1    
   147   75   76 1    
   148   75   77 1    
   149   75  196 1    
   150   76  197 1    
   151   76  198 1    
   152   76  199 1    
   153   77   78 2    
   154   77   79 am   BACKBONE|DICT|INTERRES
   155   79   80 1    
   156   79  200 1    
   157   80   81 1    
   158   80   82 1    
   159   80  201 1    
   160   81  202 1    
   161   81  203 1    
   162   81  204 1    
   163   82   83 2    
   164   82   84 am   BACKBONE|DICT|INTERRES
   165   84   85 1    
   166   84  205 1    
   167   85   86 1    
   168   85   87 1    
   169   85  206 1    
   170   86  207 1    
   171   86  208 1    
   172   86  209 1    
   173   87   88 2    
   174   87   89 am   BACKBONE|DICT|INTERRES
   175   89   90 1    
   176   89  210 1    
   177   90   91 1    
   178   90   92 1    
   179   90  211 1    
   180   91  212 1    
   181   91  213 1    
   182   91  214 1    
   183   92   93 2    
   184   92   94 am   BACKBONE|DICT|INTERRES
   185   94   95 1    
   186   94  215 1    
   187   95   96 1    
   188   95   97 1    
   189   95  216 1    
   190   96  217 1    
   191   96  218 1    
   192   96  219 1    
   193   97   98 2    
   194   97   99 am   BACKBONE|DICT|INTERRES
   195   99  100 1    
   196   99  220 1    
   197  100  101 1    
   198  100  102 1    
   199  100  221 1    
   200  101  222 1    
   201  101  223 1    
   202  101  224 1    
   203  102  103 2    
   204  102  104 am   BACKBONE|DICT|INTERRES
   205  104  105 1    
   206  104  225 1    
   207  105  106 1    
   208  105  107 1    
   209  105  226 1    
   210  106  227 1    
   211  106  228 1    
   212  106  229 1    
   213  107  108 2    
   214  107  109 am   BACKBONE|DICT|INTERRES
   215  109  110 1    
   216  109  230 1    
   217  110  111 1    
   218  110  112 1    
   219  110  231 1    
   220  111  232 1    
   221  111  233 1    
   222  111  234 1    
   223  112  113 2    
   224  112  114 am   BACKBONE|DICT|INTERRES
   225  114  115 1    
   226  114  235 1    
   227  115  116 1    
   228  115  117 1    
   229  115  236 1    
   230  116  237 1    
   231  116  238 1    
   232  116  239 1    
   233  117  118 2    
   234  117  119 am   BACKBONE|DICT|INTERRES
   235  119  120 1    
   236  119  240 1    
   237  120  121 1    
   238  120  124 1    
   239  120  241 1    
   240  121  122 am   BACKBONE|DICT|INTERRES
   241  121  123 2    
   242  122  242 1    
   243  122  243 1    
   244  124  125 1    
   245  124  244 1    
   246  124  245 1    
   247  125  126 1    
   248  126  246 1    
   249  126  247 1    
@<TRIPOS>SUBSTRUCTURE
     1 UNK         1 GROUP             0       ****    0 ROOT    
