@<TRIPOS>MOLECULE
3R540
247   249    1
SMALL
USER_CHARGES


@<TRIPOS>ATOM
      1 CA         -0.6183   -7.5619  -49.1547 C.3       0 UNK        -0.1800 
      2 C           0.2872   -8.7347  -48.8049 C.2       0 UNK         0.5000 
      3 O           1.4663   -8.7255  -49.1602 O.2       0 UNK        -0.5000 
      4 N          -0.2607   -9.7455  -48.1200 N.am      1 UNK        -0.5000 
      5 CA          0.4609  -10.9316  -47.6510 C.3       1 UNK         0.1400 
      6 C6         -0.5063  -12.0241  -47.1310 C.3       23 UNK        -0.0398 
      7 S7         -1.3884  -12.8707  -48.4829 S.3       23 UNK        -0.2404 
      8 C8         -0.6789  -14.5409  -48.3272 C.3       23 UNK        -0.0205 
      9 C9         -1.3062  -15.5342  -49.2929 C.ar      23 UNK        -0.0193 
     10 C10        -0.5213  -16.1701  -50.2584 C.ar      23 UNK        -0.1150 
     11 C11        -1.0682  -17.1319  -51.1133 C.ar      23 UNK        -0.0193 
     12 C12        -2.4366  -17.4249  -51.0117 C.ar      23 UNK        -0.1150 
     13 C13        -3.2375  -16.7881  -50.0564 C.ar      23 UNK        -0.0193 
     14 C14        -2.6615  -15.8560  -49.1904 C.ar      23 UNK        -0.1150 
     15 C15        -4.7351  -17.0600  -49.9926 C.3       23 UNK        -0.0205 
     16 S16        -5.1421  -18.8175  -49.7559 S.3       23 UNK        -0.2404 
     17 C17        -4.8658  -19.0631  -47.9705 C.3       23 UNK        -0.0398 
     18 CA         -4.3969  -20.5112  -47.6943 C.3       11 UNK         0.1400 
     19 N          -3.0226  -20.7385  -48.1523 N.am      11 UNK        -0.5000 
     20 C          -2.4304  -21.9351  -48.2467 C.2       10 UNK         0.5000 
     21 O          -2.9907  -22.9976  -47.9746 O.2       10 UNK        -0.5000 
     22 CA         -0.9502  -21.9471  -48.6693 C.3       10 UNK         0.1400 
     23 CB         -0.8473  -22.0650  -50.1967 C.3       10 UNK        -0.1800 
     24 N          -0.1666  -20.7881  -48.2233 N.am      10 UNK        -0.5000 
     25 C          -0.0531  -20.3484  -46.9618 C.2       9 UNK         0.5000 
     26 O          -0.6897  -20.8110  -46.0126 O.2       9 UNK        -0.5000 
     27 CA          0.8947  -19.1599  -46.7384 C.3       9 UNK         0.1400 
     28 CB          0.1846  -17.8476  -47.0911 C.3       9 UNK        -0.1800 
     29 N           1.3518  -19.1029  -45.3513 N.am      9 UNK        -0.5000 
     30 C           2.3206  -19.8762  -44.8410 C.2       8 UNK         0.5000 
     31 O           2.9794  -20.6677  -45.5168 O.2       8 UNK        -0.5000 
     32 CA          2.6228  -19.7459  -43.3347 C.3       8 UNK         0.1400 
     33 CB          4.0529  -19.2294  -43.1048 C.3       8 UNK        -0.1800 
     34 N           1.6828  -18.8551  -42.6524 N.am      8 UNK        -0.5000 
     35 C           0.5810  -19.2617  -42.0085 C.2       7 UNK         0.5000 
     36 O           0.2635  -20.4439  -41.8775 O.2       7 UNK        -0.5000 
     37 CA         -0.3273  -18.1678  -41.4156 C.3       7 UNK         0.1400 
     38 CB          0.0517  -17.8906  -39.9544 C.3       7 UNK        -0.1800 
     39 N          -0.2971  -16.9157  -42.1760 N.am      7 UNK        -0.5000 
     40 C          -0.8510  -16.7567  -43.3861 C.2       6 UNK         0.5000 
     41 O          -1.4292  -17.6680  -43.9760 O.2       6 UNK        -0.5000 
     42 CA         -0.7190  -15.3875  -44.0880 C.3       6 UNK         0.1400 
     43 CB         -2.0481  -14.9416  -44.7332 C.3       6 UNK        -0.1800 
     44 N          -0.1484  -14.3166  -43.2657 N.am      6 UNK        -0.5000 
     45 C          -0.6712  -13.7288  -42.1807 C.2       5 UNK         0.5000 
     46 O          -1.7659  -14.0164  -41.6945 O.2       5 UNK        -0.5000 
     47 CA          0.2240  -12.6557  -41.5264 C.3       5 UNK         0.1400 
     48 CB         -0.3570  -12.0845  -40.2156 C.3       5 UNK        -0.1800 
     49 N           1.5969  -13.1399  -41.3343 N.am      5 UNK        -0.5000 
     50 C           1.9916  -14.1768  -40.5792 C.2       4 UNK         0.5000 
     51 O           1.2347  -14.8304  -39.8617 O.2       4 UNK        -0.5000 
     52 CA          3.4843  -14.5594  -40.6889 C.3       4 UNK         0.1400 
     53 CB          3.8254  -15.8880  -39.9798 C.3       4 UNK        -0.1800 
     54 N           3.9552  -14.5817  -42.0799 N.am      4 UNK        -0.5000 
     55 C           3.4781  -15.3479  -43.0726 C.2       3 UNK         0.5000 
     56 O           2.5708  -16.1698  -42.9327 O.2       3 UNK        -0.5000 
     57 CA          4.1002  -15.1142  -44.4652 C.3       3 UNK         0.1400 
     58 CB          3.3429  -15.8601  -45.5846 C.3       3 UNK        -0.1800 
     59 N           4.2299  -13.6931  -44.8182 N.am      3 UNK        -0.5000 
     60 C           3.2462  -12.7810  -44.8421 C.2       2 UNK         0.5000 
     61 O           2.1054  -13.0012  -44.4295 O.2       2 UNK        -0.5000 
     62 CA          3.5528  -11.4087  -45.4733 C.3       2 UNK         0.1400 
     63 CB          4.9978  -11.2517  -45.9879 C.3       2 UNK        -0.1800 
     64 N           2.6285  -11.2513  -46.5916 N.am      2 UNK        -0.5000 
     65 C           1.4726  -10.5806  -46.5424 C.2       1 UNK         0.5000 
     66 O           1.1619   -9.7896  -45.6478 O.2       1 UNK        -0.5000 
     67 C          -4.6433  -20.9294  -46.2266 C.2       11 UNK         0.5000 
     68 O          -5.7943  -21.1893  -45.8740 O.2       11 UNK        -0.5000 
     69 N          -3.5820  -21.0265  -45.4152 N.am      12 UNK        -0.5000 
     70 CA         -3.6303  -21.5377  -44.0480 C.3       12 UNK         0.1400 
     71 CB         -3.0458  -20.4866  -43.0935 C.3       12 UNK        -0.1800 
     72 C          -2.8599  -22.8623  -43.9414 C.2       12 UNK         0.5000 
     73 O          -3.4224  -23.8582  -43.4862 O.2       12 UNK        -0.5000 
     74 N          -1.5917  -22.8580  -44.3725 N.am      13 UNK        -0.5000 
     75 CA         -0.6294  -23.9444  -44.1789 C.3       13 UNK         0.1400 
     76 CB          0.7789  -23.4260  -44.5058 C.3       13 UNK        -0.1800 
     77 C          -0.9341  -25.2169  -44.9879 C.2       13 UNK         0.5000 
     78 O          -0.5630  -26.3068  -44.5507 O.2       13 UNK        -0.5000 
     79 N          -1.6044  -25.0625  -46.1359 N.am      14 UNK        -0.5000 
     80 CA         -2.0368  -26.1572  -47.0065 C.3       14 UNK         0.1400 
     81 CB         -1.3765  -25.9915  -48.3869 C.3       14 UNK        -0.1800 
     82 C          -3.5717  -26.2089  -47.1141 C.2       14 UNK         0.5000 
     83 O          -4.0882  -26.8458  -48.0323 O.2       14 UNK        -0.5000 
     84 N          -4.2783  -25.5117  -46.2081 N.am      15 UNK        -0.5000 
     85 CA         -5.7407  -25.3981  -46.1164 C.3       15 UNK         0.1400 
     86 CB         -6.3394  -26.7243  -45.6051 C.3       15 UNK        -0.1800 
     87 C          -6.4167  -24.9069  -47.4181 C.2       15 UNK         0.5000 
     88 O          -7.5555  -25.2824  -47.7007 O.2       15 UNK        -0.5000 
     89 N          -5.6842  -24.0965  -48.1958 N.am      16 UNK        -0.5000 
     90 CA         -6.0300  -23.5625  -49.5140 C.3       16 UNK         0.1400 
     91 CB         -7.3023  -22.6906  -49.4600 C.3       16 UNK        -0.1800 
     92 C          -6.0734  -24.6105  -50.6460 C.2       16 UNK         0.5000 
     93 O          -6.5433  -24.2853  -51.7366 O.2       16 UNK        -0.5000 
     94 N          -5.5457  -25.8235  -50.4175 N.am      17 UNK        -0.5000 
     95 CA         -5.4443  -26.8667  -51.4430 C.3       17 UNK         0.1400 
     96 CB         -5.1900  -28.2290  -50.7805 C.3       17 UNK        -0.1800 
     97 C          -4.3480  -26.5502  -52.4768 C.2       17 UNK         0.5000 
     98 O          -4.5632  -26.7350  -53.6748 O.2       17 UNK        -0.5000 
     99 N          -3.2037  -26.0462  -51.9936 N.am      18 UNK        -0.5000 
    100 CA        -2.0631  -25.6342  -52.8175 C.3       18 UNK         0.1400 
    101 CB        -0.7723  -25.8016  -52.0008 C.3       18 UNK        -0.1800 
    102 C         -2.1885  -24.1879  -53.3361 C.2       18 UNK         0.5000 
    103 O         -1.4042  -23.7829  -54.1949 O.2       18 UNK        -0.5000 
    104 N         -3.1682  -23.4291  -52.8208 N.am      19 UNK        -0.5000 
    105 CA        -3.3808  -22.0092  -53.1190 C.3       19 UNK         0.1400 
    106 CB        -4.3542  -21.4022  -52.1020 C.3       19 UNK        -0.1800 
    107 C         -3.8259  -21.7079  -54.5629 C.2       19 UNK         0.5000 
    108 O         -3.8234  -20.5444  -54.9601 O.2       19 UNK        -0.5000 
    109 N         -4.1393  -22.7456  -55.3504 N.am      20 UNK        -0.5000 
    110 CA        -4.3522  -22.6620  -56.7976 C.3       20 UNK         0.1400 
    111 CB        -4.7974  -24.0390  -57.3126 C.3       20 UNK        -0.1800 
    112 C         -3.1096  -22.1682  -57.5734 C.2       20 UNK         0.5000 
    113 O         -3.2588  -21.6287  -58.6702 O.2       20 UNK        -0.5000 
    114 N         -1.9144  -22.3439  -56.9896 N.am      21 UNK        -0.5000 
    115 CA        -0.6460  -21.8433  -57.5183 C.3       21 UNK         0.1400 
    116 CB         0.4949  -22.6887  -56.9302 C.3       21 UNK        -0.1800 
    117 C         -0.4049  -20.3456  -57.2307 C.2       21 UNK         0.5000 
    118 O          0.4704  -19.7546  -57.8653 O.2       21 UNK        -0.5000 
    119 N         -1.1436  -19.7597  -56.2780 N.am      22 UNK        -0.5000 
    120 CA        -1.0218  -18.3487  -55.8765 C.3       22 UNK         0.1400 
    121 C         -1.6233  -17.3798  -56.9316 C.2       22 UNK         0.5000 
    122 N         -1.0448  -16.1976  -57.0954 N.am      22 UNK        -0.7600 
    123 O         -2.6298  -17.6690  -57.5750 O.2       22 UNK        -0.5000 
    124 C124       -1.6414  -18.0862  -54.4792 C.3       23 UNK        -0.0398 
    125 S125       -0.8640  -19.1015  -53.1744 S.3       23 UNK        -0.2404 
    126 C126       -0.1229  -17.8265  -52.0986 C.3       23 UNK        -0.0205 
    127 H127       -1.6343   -7.7102  -48.7880 H         1 UNK         0.0600 
    128 H128       -0.6630   -7.4316  -50.2360 H         1 UNK         0.0600 
    129 H129       -0.2290   -6.6435  -48.7153 H         1 UNK         0.0600 
    130 H130       -1.2320   -9.6903  -47.8499 H         1 UNK         0.3000 
    131 H131        1.0176  -11.3366  -48.4995 H         1 UNK         0.0600 
    132 H132       -1.2415  -11.5949  -46.4479 H         1 UNK         0.0800 
    133 H133        0.0295  -12.7744  -46.5450 H         1 UNK         0.0800 
    134 H134       -0.8279  -14.9076  -47.3124 H         1 UNK         0.0800 
    135 H135        0.4002  -14.4834  -48.4790 H         1 UNK         0.0800 
    136 H136        0.5319  -15.9359  -50.3277 H         1 UNK         0.1150 
    137 H137       -2.8961  -18.1488  -51.6681 H         1 UNK         0.1150 
    138 H138       -3.2695  -15.3623  -48.4452 H         1 UNK         0.1150 
    139 H139       -5.2110  -16.4734  -49.2051 H         1 UNK         0.0800 
    140 H140       -5.1814  -16.7274  -50.9306 H         1 UNK         0.0800 
    141 H141       -5.8101  -18.8487  -47.4664 H         1 UNK         0.0800 
    142 H142       -4.1403  -18.3402  -47.5934 H         1 UNK         0.0800 
    143 H143       -5.0333  -21.1728  -48.2799 H         1 UNK         0.0600 
    144 H144       -2.4899  -19.9176  -48.3989 H         1 UNK         0.3000 
    145 H145       -0.4968  -22.8351  -48.2246 H         1 UNK         0.0600 
    146 H146        0.1825  -22.2280  -50.5148 H         1 UNK         0.0600 
    147 H147       -1.4359  -22.9057  -50.5630 H         1 UNK         0.0600 
    148 H148       -1.2153  -21.1671  -50.6951 H         1 UNK         0.0600 
    149 H149        0.3761  -20.3283  -48.9398 H         1 UNK         0.3000 
    150 H150        1.7612  -19.2732  -47.3934 H         1 UNK         0.0600 
    151 H151       -0.1285  -17.8574  -48.1338 H         1 UNK         0.0600 
    152 H152        0.8417  -16.9895  -46.9567 H         1 UNK         0.0600 
    153 H153       -0.7104  -17.6911  -46.4897 H         1 UNK         0.0600 
    154 H154        0.7937  -18.5543  -44.7135 H         1 UNK         0.3000 
    155 H155        2.5612  -20.7478  -42.9054 H         1 UNK         0.0600 
    156 H156        4.2180  -18.2647  -43.5826 H         1 UNK         0.0600 
    157 H157        4.7884  -19.9241  -43.5119 H         1 UNK         0.0600 
    158 H158        4.2661  -19.1172  -42.0416 H         1 UNK         0.0600 
    159 H159        1.8857  -17.8578  -42.7077 H         1 UNK         0.3000 
    160 H160       -1.3517  -18.5454  -41.4296 H         1 UNK         0.0600 
    161 H161        1.0812  -17.5441  -39.8657 H         1 UNK         0.0600 
    162 H162       -0.0428  -18.7931  -39.3493 H         1 UNK         0.0600 
    163 H163       -0.5967  -17.1328  -39.5140 H         1 UNK         0.0600 
    164 H164        0.2021  -16.1392  -41.7631 H         1 UNK         0.3000 
    165 H165       -0.0022  -15.5416  -44.8947 H         1 UNK         0.0600 
    166 H166       -2.8461  -14.8526  -43.9959 H         1 UNK         0.0600 
    167 H167       -1.9447  -13.9783  -45.2318 H         1 UNK         0.0600 
    168 H168       -2.3810  -15.6603  -45.4830 H         1 UNK         0.0600 
    169 H169        0.7591  -13.9780  -43.5799 H         1 UNK         0.3000 
    170 H170        0.2860  -11.8342  -42.2420 H         1 UNK         0.0600 
    171 H171       -1.3264  -11.6172  -40.3925 H         1 UNK         0.0600 
    172 H172       -0.5025  -12.8578  -39.4609 H         1 UNK         0.0600 
    173 H173        0.2981  -11.3227  -39.7935 H         1 UNK         0.0600 
    174 H174        2.2886  -12.7109  -41.9326 H         1 UNK         0.3000 
    175 H175        4.0380  -13.7666  -40.1841 H         1 UNK         0.0600 
    176 H176        3.2974  -16.7338  -40.4203 H         1 UNK         0.0600 
    177 H177        4.8933  -16.0985  -40.0340 H         1 UNK         0.0600 
    178 H178        3.5566  -15.8488  -38.9236 H         1 UNK         0.0600 
    179 H179        4.6870  -13.9229  -42.3062 H         1 UNK         0.3000 
    180 H180        5.1108  -15.5224  -44.4199 H         1 UNK         0.0600 
    181 H181        2.3126  -15.5160  -45.6710 H         1 UNK         0.0600 
    182 H182        3.3162  -16.9334  -45.3989 H         1 UNK         0.0600 
    183 H183        3.8247  -15.7140  -46.5512 H         1 UNK         0.0600 
    184 H184        5.1376  -13.4130  -45.1625 H         1 UNK         0.3000 
    185 H185        3.3750  -10.6489  -44.7097 H         1 UNK         0.0600 
    186 H186        5.2444  -11.9862  -46.7558 H         1 UNK         0.0600 
    187 H187        5.1454  -10.2632  -46.4235 H         1 UNK         0.0600 
    188 H188        5.7205  -11.3517  -45.1771 H         1 UNK         0.0600 
    189 H189        2.7806  -11.8818  -47.3660 H         1 UNK         0.3000 
    190 H190       -2.6586  -20.8193  -45.7825 H         1 UNK         0.3000 
    191 H191       -4.6587  -21.7327  -43.7373 H         1 UNK         0.0600 
    192 H192       -3.0268  -20.8516  -42.0660 H         1 UNK         0.0600 
    193 H193       -3.6367  -19.5707  -43.1064 H         1 UNK         0.0600 
    194 H194       -2.0247  -20.2240  -43.3696 H         1 UNK         0.0600 
    195 H195       -1.2202  -22.0109  -44.7987 H         1 UNK         0.3000 
    196 H196       -0.6504  -24.2187  -43.1221 H         1 UNK         0.0600 
    197 H197        0.8639  -23.1189  -45.5488 H         1 UNK         0.0600 
    198 H198        1.0343  -22.5693  -43.8823 H         1 UNK         0.0600 
    199 H199        1.5322  -24.1941  -44.3265 H         1 UNK         0.0600 
    200 H200       -1.8937  -24.1342  -46.4178 H         1 UNK         0.3000 
    201 H201       -1.7262  -27.1213  -46.6000 H         1 UNK         0.0600 
    202 H202       -1.7292  -25.0971  -48.8987 H         1 UNK         0.0600 
    203 H203       -1.5941  -26.8448  -49.0304 H         1 UNK         0.0600 
    204 H204       -0.2922  -25.9224  -48.3000 H         1 UNK         0.0600 
    205 H205       -3.7623  -25.0272  -45.4852 H         1 UNK         0.3000 
    206 H206       -5.9399  -24.6312  -45.3664 H         1 UNK         0.0600 
    207 H207       -5.8629  -27.0392  -44.6767 H         1 UNK         0.0600 
    208 H208       -7.4059  -26.6227  -45.4012 H         1 UNK         0.0600 
    209 H209       -6.2192  -27.5272  -46.3332 H         1 UNK         0.0600 
    210 H210       -4.7437  -23.8690  -47.8848 H         1 UNK         0.3000 
    211 H211       -5.2007  -22.9078  -49.7728 H         1 UNK         0.0600 
    212 H212       -7.4192  -22.1148  -50.3787 H         1 UNK         0.0600 
    213 H213       -7.2648  -21.9783  -48.6359 H         1 UNK         0.0600 
    214 H214       -8.2020  -23.2940  -49.3391 H         1 UNK         0.0600 
    215 H215       -5.1689  -26.0465  -49.5007 H         1 UNK         0.3000 
    216 H216       -6.3987  -26.9252  -51.9708 H         1 UNK         0.0600 
    217 H217       -4.2205  -28.2643  -50.2828 H         1 UNK         0.0600 
    218 H218       -5.2050  -29.0294  -51.5212 H         1 UNK         0.0600 
    219 H219       -5.9557  -28.4566  -50.0386 H         1 UNK         0.0600 
    220 H220       -3.1098  -25.9388  -50.9943 H         1 UNK         0.3000 
    221 H221       -1.9948  -26.2877  -53.6899 H         1 UNK         0.0600 
    222 H222       -0.6599  -26.8257  -51.6444 H         1 UNK         0.0600 
    223 H223       -0.7499  -25.1399  -51.1359 H         1 UNK         0.0600 
    224 H224        0.1050  -25.5728  -52.6074 H         1 UNK         0.0600 
    225 H225       -3.8063  -23.8568  -52.1681 H         1 UNK         0.3000 
    226 H226       -2.4194  -21.5125  -52.9874 H         1 UNK         0.0600 
    227 H227       -5.3303  -21.8851  -52.1359 H         1 UNK         0.0600 
    228 H228       -3.9605  -21.4781  -51.0892 H         1 UNK         0.0600 
    229 H229       -4.5101  -20.3412  -52.3015 H         1 UNK         0.0600 
    230 H230       -4.1246  -23.6705  -54.9464 H         1 UNK         0.3000 
    231 H231       -5.1580  -21.9476  -56.9780 H         1 UNK         0.0600 
    232 H232       -4.0353  -24.7994  -57.1365 H         1 UNK         0.0600 
    233 H233       -4.9923  -24.0110  -58.3854 H         1 UNK         0.0600 
    234 H234       -5.7163  -24.3651  -56.8248 H         1 UNK         0.0600 
    235 H235       -1.8716  -22.8095  -56.0901 H         1 UNK         0.3000 
    236 H236       -0.6399  -21.9746  -58.6024 H         1 UNK         0.0600 
    237 H237        0.3642  -23.7457  -57.1628 H         1 UNK         0.0600 
    238 H238        1.4595  -22.3834  -57.3376 H         1 UNK         0.0600 
    239 H239        0.5501  -22.5885  -55.8454 H         1 UNK         0.0600 
    240 H240       -1.8957  -20.2769  -55.8414 H         1 UNK         0.3000 
    241 H241        0.0451  -18.1271  -55.8033 H         1 UNK         0.0600 
    242 H242       -1.4324  -15.5528  -57.7669 H         1 UNK         0.3800 
    243 H243       -0.2202  -15.9334  -56.5784 H         1 UNK         0.3800 
    244 H244       -2.7127  -18.2878  -54.4856 H         1 UNK         0.0800 
    245 H245       -1.5443  -17.0322  -54.2135 H         1 UNK         0.0800 
    246 H246        0.3700  -17.0767  -52.7191 H         1 UNK         0.0800 
    247 H247        0.6672  -18.3088  -51.5215 H         1 UNK         0.0800 
@<TRIPOS>BOND
     1    1    2 1    
     2    1  127 1    
     3    1  128 1    
     4    1  129 1    
     5    2    3 2    
     6    2    4 am   BACKBONE|DICT|INTERRES
     7    4    5 1    
     8    4  130 1    
     9    5    6 1    
    10    5   65 1    
    11    5  131 1    
    12    6    7 1    
    13    6  132 1    
    14    6  133 1    
    15    7    8 1    
    16    8    9 1    
    17    8  134 1    
    18    8  135 1    
    19    9   10 ar   
    20    9   14 ar   
    21   10   11 ar   
    22   10  136 1    
    23   11   12 ar   
    24   11  126 1    
    25   12   13 ar   
    26   12  137 1    
    27   13   14 ar   
    28   13   15 1    
    29   14  138 1    
    30   15   16 1    
    31   15  139 1    
    32   15  140 1    
    33   16   17 1    
    34   17   18 1    
    35   17  141 1    
    36   17  142 1    
    37   18   19 1    
    38   18   67 1    
    39   18  143 1    
    40   19   20 am   BACKBONE|DICT|INTERRES
    41   19  144 1    
    42   20   21 2    
    43   20   22 1    
    44   22   23 1    
    45   22   24 1    
    46   22  145 1    
    47   23  146 1    
    48   23  147 1    
    49   23  148 1    
    50   24   25 am   BACKBONE|DICT|INTERRES
    51   24  149 1    
    52   25   26 2    
    53   25   27 1    
    54   27   28 1    
    55   27   29 1    
    56   27  150 1    
    57   28  151 1    
    58   28  152 1    
    59   28  153 1    
    60   29   30 am   BACKBONE|DICT|INTERRES
    61   29  154 1    
    62   30   31 2    
    63   30   32 1    
    64   32   33 1    
    65   32   34 1    
    66   32  155 1    
    67   33  156 1    
    68   33  157 1    
    69   33  158 1    
    70   34   35 am   BACKBONE|DICT|INTERRES
    71   34  159 1    
    72   35   36 2    
    73   35   37 1    
    74   37   38 1    
    75   37   39 1    
    76   37  160 1    
    77   38  161 1    
    78   38  162 1    
    79   38  163 1    
    80   39   40 am   BACKBONE|DICT|INTERRES
    81   39  164 1    
    82   40   41 2    
    83   40   42 1    
    84   42   43 1    
    85   42   44 1    
    86   42  165 1    
    87   43  166 1    
    88   43  167 1    
    89   43  168 1    
    90   44   45 am   BACKBONE|DICT|INTERRES
    91   44  169 1    
    92   45   46 2    
    93   45   47 1    
    94   47   48 1    
    95   47   49 1    
    96   47  170 1    
    97   48  171 1    
    98   48  172 1    
    99   48  173 1    
   100   49   50 am   BACKBONE|DICT|INTERRES
   101   49  174 1    
   102   50   51 2    
   103   50   52 1    
   104   52   53 1    
   105   52   54 1    
   106   52  175 1    
   107   53  176 1    
   108   53  177 1    
   109   53  178 1    
   110   54   55 am   BACKBONE|DICT|INTERRES
   111   54  179 1    
   112   55   56 2    
   113   55   57 1    
   114   57   58 1    
   115   57   59 1    
   116   57  180 1    
   117   58  181 1    
   118   58  182 1    
   119   58  183 1    
   120   59   60 am   BACKBONE|DICT|INTERRES
   121   59  184 1    
   122   60   61 2    
   123   60   62 1    
   124   62   63 1    
   125   62   64 1    
   126   62  185 1    
   127   63  186 1    
   128   63  187 1    
   129   63  188 1    
   130   64   65 am   BACKBONE|DICT|INTERRES
   131   64  189 1    
   132   65   66 2    
   133   67   68 2    
   134   67   69 am   BACKBONE|DICT|INTERRES
   135   69   70 1    
   136   69  190 1    
   137   70   71 1    
   138   70   72 1    
   139   70  191 1    
   140   71  192 1    
   141   71  193 1    
   142   71  194 1    
   143   72   73 2    
   144   72   74 am   BACKBONE|DICT|INTERRES
   145   74   75 1    
   146   74  195 1    
   147   75   76 1    
   148   75   77 1    
   149   75  196 1    
   150   76  197 1    
   151   76  198 1    
   152   76  199 1    
   153   77   78 2    
   154   77   79 am   BACKBONE|DICT|INTERRES
   155   79   80 1    
   156   79  200 1    
   157   80   81 1    
   158   80   82 1    
   159   80  201 1    
   160   81  202 1    
   161   81  203 1    
   162   81  204 1    
   163   82   83 2    
   164   82   84 am   BACKBONE|DICT|INTERRES
   165   84   85 1    
   166   84  205 1    
   167   85   86 1    
   168   85   87 1    
   169   85  206 1    
   170   86  207 1    
   171   86  208 1    
   172   86  209 1    
   173   87   88 2    
   174   87   89 am   BACKBONE|DICT|INTERRES
   175   89   90 1    
   176   89  210 1    
   177   90   91 1    
   178   90   92 1    
   179   90  211 1    
   180   91  212 1    
   181   91  213 1    
   182   91  214 1    
   183   92   93 2    
   184   92   94 am   BACKBONE|DICT|INTERRES
   185   94   95 1    
   186   94  215 1    
   187   95   96 1    
   188   95   97 1    
   189   95  216 1    
   190   96  217 1    
   191   96  218 1    
   192   96  219 1    
   193   97   98 2    
   194   97   99 am   BACKBONE|DICT|INTERRES
   195   99  100 1    
   196   99  220 1    
   197  100  101 1    
   198  100  102 1    
   199  100  221 1    
   200  101  222 1    
   201  101  223 1    
   202  101  224 1    
   203  102  103 2    
   204  102  104 am   BACKBONE|DICT|INTERRES
   205  104  105 1    
   206  104  225 1    
   207  105  106 1    
   208  105  107 1    
   209  105  226 1    
   210  106  227 1    
   211  106  228 1    
   212  106  229 1    
   213  107  108 2    
   214  107  109 am   BACKBONE|DICT|INTERRES
   215  109  110 1    
   216  109  230 1    
   217  110  111 1    
   218  110  112 1    
   219  110  231 1    
   220  111  232 1    
   221  111  233 1    
   222  111  234 1    
   223  112  113 2    
   224  112  114 am   BACKBONE|DICT|INTERRES
   225  114  115 1    
   226  114  235 1    
   227  115  116 1    
   228  115  117 1    
   229  115  236 1    
   230  116  237 1    
   231  116  238 1    
   232  116  239 1    
   233  117  118 2    
   234  117  119 am   BACKBONE|DICT|INTERRES
   235  119  120 1    
   236  119  240 1    
   237  120  121 1    
   238  120  124 1    
   239  120  241 1    
   240  121  122 am   BACKBONE|DICT|INTERRES
   241  121  123 2    
   242  122  242 1    
   243  122  243 1    
   244  124  125 1    
   245  124  244 1    
   246  124  245 1    
   247  125  126 1    
   248  126  246 1    
   249  126  247 1    
@<TRIPOS>SUBSTRUCTURE
     1 UNK         1 GROUP             0       ****    0 ROOT    
