@<TRIPOS>MOLECULE
3R540
247   249    1
SMALL
USER_CHARGES


@<TRIPOS>ATOM
      1 CA         -2.4826  -14.9738  -46.7826 C.3       0 UNK        -0.1800 
      2 C          -2.3823  -13.5485  -47.2995 C.2       0 UNK         0.5000 
      3 O          -2.4466  -12.6002  -46.5174 O.2       0 UNK        -0.5000 
      4 N          -2.2284  -13.3997  -48.6205 N.am      1 UNK        -0.5000 
      5 CA         -2.1423  -12.1119  -49.3236 C.3       1 UNK         0.1400 
      6 C6         -2.3265  -12.2535  -50.8584 C.3       23 UNK        -0.0398 
      7 S7         -3.7771  -13.2546  -51.3475 S.3       23 UNK        -0.2404 
      8 C8         -2.9984  -14.7078  -52.1293 C.3       23 UNK        -0.0205 
      9 C9         -2.3180  -15.6100  -51.1101 C.ar      23 UNK        -0.0193 
     10 C10        -0.9637  -15.4409  -50.8127 C.ar      23 UNK        -0.1150 
     11 C11        -0.3416  -16.2369  -49.8484 C.ar      23 UNK        -0.0193 
     12 C12        -1.0839  -17.2194  -49.1877 C.ar      23 UNK        -0.1150 
     13 C13        -2.4368  -17.4144  -49.4884 C.ar      23 UNK        -0.0193 
     14 C14        -3.0461  -16.6056  -50.4529 C.ar      23 UNK        -0.1150 
     15 C15        -3.2571  -18.4615  -48.7451 C.3       23 UNK        -0.0205 
     16 S16        -2.8958  -20.1544  -49.3138 S.3       23 UNK        -0.2404 
     17 C17        -1.3917  -20.5166  -48.3403 C.3       23 UNK        -0.0398 
     18 CA         -1.2292  -21.9540  -47.7834 C.3       11 UNK         0.1400 
     19 N          -0.1477  -21.9859  -46.7973 N.am      11 UNK        -0.5000 
     20 C           0.4187  -23.0892  -46.2938 C.2       10 UNK         0.5000 
     21 O           0.1357  -24.2318  -46.6521 O.2       10 UNK        -0.5000 
     22 CA          1.4450  -22.8728  -45.1646 C.3       10 UNK         0.1400 
     23 CB          2.8106  -22.4627  -45.7354 C.3       10 UNK        -0.1800 
     24 N           1.0041  -21.8770  -44.1836 N.am      10 UNK        -0.5000 
     25 C          -0.0833  -22.0135  -43.4104 C.2       9 UNK         0.5000 
     26 O          -0.8079  -23.0066  -43.4213 O.2       9 UNK        -0.5000 
     27 CA         -0.4533  -20.8310  -42.5012 C.3       9 UNK         0.1400 
     28 CB          0.3806  -20.8566  -41.2118 C.3       9 UNK        -0.1800 
     29 N          -0.2988  -19.5378  -43.1639 N.am      9 UNK        -0.5000 
     30 C          -0.9952  -19.1331  -44.2354 C.2       8 UNK         0.5000 
     31 O          -1.8669  -19.8049  -44.7840 O.2       8 UNK        -0.5000 
     32 CA         -0.6045  -17.7723  -44.8349 C.3       8 UNK         0.1400 
     33 CB         -1.1176  -16.6135  -43.9656 C.3       8 UNK        -0.1800 
     34 N           0.8414  -17.6556  -45.0084 N.am      8 UNK        -0.5000 
     35 C           1.5791  -18.4279  -45.8185 C.2       7 UNK         0.5000 
     36 O           1.1094  -19.2918  -46.5593 O.2       7 UNK        -0.5000 
     37 CA          3.1020  -18.2275  -45.7547 C.3       7 UNK         0.1400 
     38 CB          3.5572  -17.2056  -46.7996 C.3       7 UNK        -0.1800 
     39 N           3.5516  -17.8017  -44.4279 N.am      7 UNK        -0.5000 
     40 C           3.6144  -18.6273  -43.3754 C.2       6 UNK         0.5000 
     41 O           3.2732  -19.8112  -43.4164 O.2       6 UNK        -0.5000 
     42 CA          4.1178  -18.0231  -42.0516 C.3       6 UNK         0.1400 
     43 CB          5.6025  -17.6385  -42.1527 C.3       6 UNK        -0.1800 
     44 N           3.3493  -16.8667  -41.5811 N.am      6 UNK        -0.5000 
     45 C           2.0303  -16.8527  -41.3439 C.2       5 UNK         0.5000 
     46 O           1.2783  -17.7824  -41.6236 O.2       5 UNK        -0.5000 
     47 CA          1.4319  -15.5994  -40.6775 C.3       5 UNK         0.1400 
     48 CB          1.0865  -15.9025  -39.2118 C.3       5 UNK        -0.1800 
     49 N           2.3219  -14.4358  -40.7140 N.am      5 UNK        -0.5000 
     50 C           2.5010  -13.5750  -41.7252 C.2       4 UNK         0.5000 
     51 O           3.2892  -12.6338  -41.6222 O.2       4 UNK        -0.5000 
     52 CA          1.6848  -13.7316  -43.0305 C.3       4 UNK         0.1400 
     53 CB          0.3514  -12.9719  -42.9411 C.3       4 UNK        -0.1800 
     54 N           2.4303  -13.2199  -44.1753 N.am      4 UNK        -0.5000 
     55 C           3.4958  -13.8167  -44.7229 C.2       3 UNK         0.5000 
     56 O           3.9140  -14.9200  -44.3612 O.2       3 UNK        -0.5000 
     57 CA          4.2007  -13.0345  -45.8562 C.3       3 UNK         0.1400 
     58 CB          5.0837  -13.9215  -46.7576 C.3       3 UNK        -0.1800 
     59 N           3.3025  -12.2103  -46.6811 N.am      3 UNK        -0.5000 
     60 C           2.2257  -12.6301  -47.3620 C.2       2 UNK         0.5000 
     61 O           1.7823  -13.7798  -47.3161 O.2       2 UNK        -0.5000 
     62 CA          1.5389  -11.5909  -48.2603 C.3       2 UNK         0.1400 
     63 CB          2.3560  -11.3480  -49.5429 C.3       2 UNK        -0.1800 
     64 N           0.2129  -12.0854  -48.6090 N.am      2 UNK        -0.5000 
     65 C          -0.8286  -11.3539  -49.0220 C.2       1 UNK         0.5000 
     66 O          -0.7843  -10.1327  -49.1781 O.2       1 UNK        -0.5000 
     67 C          -2.5268  -22.5665  -47.2061 C.2       11 UNK         0.5000 
     68 O          -3.1338  -23.4185  -47.8571 O.2       11 UNK        -0.5000 
     69 N          -2.9069  -22.1605  -45.9849 N.am      12 UNK        -0.5000 
     70 CA         -4.0872  -22.6471  -45.2644 C.3       12 UNK         0.1400 
     71 CB         -4.2945  -21.8168  -43.9898 C.3       12 UNK        -0.1800 
     72 C          -4.0350  -24.1489  -44.9297 C.2       12 UNK         0.5000 
     73 O          -5.0638  -24.8204  -45.0044 O.2       12 UNK        -0.5000 
     74 N          -2.8411  -24.6530  -44.5894 N.am      13 UNK        -0.5000 
     75 CA         -2.5699  -26.0725  -44.3516 C.3       13 UNK         0.1400 
     76 CB         -1.2004  -26.2166  -43.6700 C.3       13 UNK        -0.1800 
     77 C          -2.6238  -26.9258  -45.6343 C.2       13 UNK         0.5000 
     78 O          -2.8249  -28.1379  -45.5420 O.2       13 UNK        -0.5000 
     79 N          -2.4416  -26.2847  -46.7953 N.am      14 UNK        -0.5000 
     80 CA         -2.5787  -26.8733  -48.1203 C.3       14 UNK         0.1400 
     81 CB         -1.5072  -26.2639  -49.0472 C.3       14 UNK        -0.1800 
     82 C          -4.0300  -26.6969  -48.6148 C.2       14 UNK         0.5000 
     83 O          -4.9543  -27.1974  -47.9715 O.2       14 UNK        -0.5000 
     84 N          -4.2128  -26.0249  -49.7574 N.am      15 UNK        -0.5000 
     85 CA         -5.4977  -25.8773  -50.4434 C.3       15 UNK         0.1400 
     86 CB         -5.2501  -25.9796  -51.9538 C.3       15 UNK        -0.1800 
     87 C          -6.2647  -24.5901  -50.0792 C.2       15 UNK         0.5000 
     88 O          -7.3830  -24.4169  -50.5640 O.2       15 UNK        -0.5000 
     89 N          -5.6840  -23.7215  -49.2370 N.am      16 UNK        -0.5000 
     90 CA         -6.3047  -22.5313  -48.6416 C.3       16 UNK         0.1400 
     91 CB         -7.3517  -22.9529  -47.5895 C.3       16 UNK        -0.1800 
     92 C          -6.8631  -21.5324  -49.6765 C.2       16 UNK         0.5000 
     93 O          -8.0286  -21.1403  -49.6014 O.2       16 UNK        -0.5000 
     94 N          -6.0059  -21.1539  -50.6320 N.am      17 UNK        -0.5000 
     95 CA         -6.2153  -20.1697  -51.7002 C.3       17 UNK         0.1400 
     96 CB         -6.6922  -18.8061  -51.1589 C.3       17 UNK        -0.1800 
     97 C          -7.0792  -20.6555  -52.8802 C.2       17 UNK         0.5000 
     98 O          -7.1701  -19.9367  -53.8765 O.2       17 UNK        -0.5000 
     99 N          -7.6339  -21.8767  -52.8114 N.am      18 UNK        -0.5000 
    100 CA        -8.1472  -22.5941  -53.9885 C.3       18 UNK         0.1400 
    101 CB        -8.9867  -23.7979  -53.5372 C.3       18 UNK        -0.1800 
    102 C         -6.9897  -23.0452  -54.9060 C.2       18 UNK         0.5000 
    103 O         -7.1441  -23.1089  -56.1257 O.2       18 UNK        -0.5000 
    104 N         -5.8380  -23.2860  -54.2761 N.am      19 UNK        -0.5000 
    105 CA        -4.5004  -23.4070  -54.8274 C.3       19 UNK         0.1400 
    106 CB        -4.2709  -24.8238  -55.3868 C.3       19 UNK        -0.1800 
    107 C         -3.5404  -23.0423  -53.6773 C.2       19 UNK         0.5000 
    108 O         -4.0025  -22.6664  -52.5934 O.2       19 UNK        -0.5000 
    109 N         -2.2287  -23.1554  -53.9202 N.am      20 UNK        -0.5000 
    110 CA        -1.1345  -22.9241  -52.9616 C.3       20 UNK         0.1400 
    111 CB        -1.2479  -23.8746  -51.7492 C.3       20 UNK        -0.1800 
    112 C         -0.9532  -21.4537  -52.5210 C.2       20 UNK         0.5000 
    113 O         -0.1428  -21.1882  -51.6321 O.2       20 UNK        -0.5000 
    114 N         -1.6736  -20.5244  -53.1633 N.am      21 UNK        -0.5000 
    115 CA        -1.5326  -19.0823  -52.9817 C.3       21 UNK         0.1400 
    116 CB        -2.7135  -18.3722  -53.6609 C.3       21 UNK        -0.1800 
    117 C         -0.1965  -18.5815  -53.5567 C.2       21 UNK         0.5000 
    118 O          0.2572  -19.0857  -54.5880 O.2       21 UNK        -0.5000 
    119 N          0.4023  -17.6019  -52.8771 N.am      22 UNK        -0.5000 
    120 CA         1.6988  -17.0065  -53.2251 C.3       22 UNK         0.1400 
    121 C          1.6520  -16.1840  -54.5426 C.2       22 UNK         0.5000 
    122 N          2.7018  -16.2343  -55.3512 N.am      22 UNK        -0.7600 
    123 O          0.6929  -15.4650  -54.8146 O.2       22 UNK        -0.5000 
    124 C124        2.2620  -16.1415  -52.0698 C.3       23 UNK        -0.0398 
    125 S125        2.2704  -17.0111  -50.4621 S.3       23 UNK        -0.2404 
    126 C126        1.1161  -16.0007  -49.4823 C.3       23 UNK        -0.0205 
    127 H127       -3.1484  -15.5666  -47.4089 H         1 UNK         0.0600 
    128 H128       -2.8779  -14.9873  -45.7672 H         1 UNK         0.0600 
    129 H129       -1.4974  -15.4394  -46.7797 H         1 UNK         0.0600 
    130 H130       -2.2076  -14.2192  -49.2132 H         1 UNK         0.3000 
    131 H131       -2.9593  -11.4898  -48.9518 H         1 UNK         0.0600 
    132 H132       -2.4543  -11.2645  -51.3019 H         1 UNK         0.0800 
    133 H133       -1.4299  -12.6618  -51.3243 H         1 UNK         0.0800 
    134 H134       -2.2868  -14.3837  -52.8907 H         1 UNK         0.0800 
    135 H135       -3.7690  -15.2707  -52.6579 H         1 UNK         0.0800 
    136 H136       -0.3974  -14.6735  -51.3192 H         1 UNK         0.1150 
    137 H137       -0.6048  -17.8212  -48.4294 H         1 UNK         0.1150 
    138 H138       -4.0943  -16.7377  -50.6818 H         1 UNK         0.1150 
    139 H139       -3.0888  -18.3735  -47.6709 H         1 UNK         0.0800 
    140 H140       -4.3207  -18.2724  -48.8853 H         1 UNK         0.0800 
    141 H141       -1.3630  -19.8208  -47.5022 H         1 UNK         0.0800 
    142 H142       -0.5265  -20.2687  -48.9571 H         1 UNK         0.0800 
    143 H143       -0.9291  -22.5908  -48.6185 H         1 UNK         0.0600 
    144 H144        0.1832  -21.0837  -46.4699 H         1 UNK         0.3000 
    145 H145        1.5671  -23.8233  -44.6409 H         1 UNK         0.0600 
    146 H146        3.5530  -22.3550  -44.9443 H         1 UNK         0.0600 
    147 H147        3.1830  -23.2147  -46.4322 H         1 UNK         0.0600 
    148 H148        2.7555  -21.5164  -46.2734 H         1 UNK         0.0600 
    149 H149        1.5705  -21.0424  -44.0864 H         1 UNK         0.3000 
    150 H150       -1.5038  -20.9385  -42.2256 H         1 UNK         0.0600 
    151 H151        0.2788  -21.8134  -40.6981 H         1 UNK         0.0600 
    152 H152        0.0571  -20.0796  -40.5190 H         1 UNK         0.0600 
    153 H153        1.4410  -20.7018  -41.4151 H         1 UNK         0.0600 
    154 H154        0.3845  -18.9060  -42.7512 H         1 UNK         0.3000 
    155 H155       -1.0670  -17.6939  -45.8208 H         1 UNK         0.0600 
    156 H156       -0.8219  -15.6479  -44.3752 H         1 UNK         0.0600 
    157 H157       -0.7426  -16.6699  -42.9446 H         1 UNK         0.0600 
    158 H158       -2.2066  -16.6261  -43.9105 H         1 UNK         0.0600 
    159 H159        1.3255  -17.0005  -44.4147 H         1 UNK         0.3000 
    160 H160        3.5775  -19.1818  -45.9901 H         1 UNK         0.0600 
    161 H161        3.0318  -16.2574  -46.6844 H         1 UNK         0.0600 
    162 H162        3.3607  -17.5736  -47.8057 H         1 UNK         0.0600 
    163 H163        4.6277  -17.0138  -46.7280 H         1 UNK         0.0600 
    164 H164        3.8144  -16.8243  -44.3202 H         1 UNK         0.3000 
    165 H165        4.0256  -18.8003  -41.2902 H         1 UNK         0.0600 
    166 H166        6.0004  -17.3458  -41.1809 H         1 UNK         0.0600 
    167 H167        6.2016  -18.4781  -42.5079 H         1 UNK         0.0600 
    168 H168        5.7587  -16.8077  -42.8422 H         1 UNK         0.0600 
    169 H169        3.8819  -16.0416  -41.3476 H         1 UNK         0.3000 
    170 H170        0.4965  -15.3667  -41.1872 H         1 UNK         0.0600 
    171 H171        0.3987  -16.7463  -39.1372 H         1 UNK         0.0600 
    172 H172        1.9752  -16.1519  -38.6304 H         1 UNK         0.0600 
    173 H173        0.6023  -15.0494  -38.7359 H         1 UNK         0.0600 
    174 H174        2.8586  -14.2843  -39.8725 H         1 UNK         0.3000 
    175 H175        1.4768  -14.7833  -43.2262 H         1 UNK         0.0600 
    176 H176       -0.2321  -13.0913  -43.8547 H         1 UNK         0.0600 
    177 H177       -0.2614  -13.3371  -42.1167 H         1 UNK         0.0600 
    178 H178        0.5078  -11.9043  -42.7815 H         1 UNK         0.0600 
    179 H179        2.1696  -12.3061  -44.5136 H         1 UNK         0.3000 
    180 H180        4.8663  -12.3381  -45.3444 H         1 UNK         0.0600 
    181 H181        5.7041  -13.3105  -47.4131 H         1 UNK         0.0600 
    182 H182        4.4877  -14.5763  -47.3914 H         1 UNK         0.0600 
    183 H183        5.7577  -14.5471  -46.1713 H         1 UNK         0.0600 
    184 H184        3.5735  -11.2409  -46.7715 H         1 UNK         0.3000 
    185 H185        1.4405  -10.6596  -47.6989 H         1 UNK         0.0600 
    186 H186        2.4642  -12.2630  -50.1268 H         1 UNK         0.0600 
    187 H187        1.8839  -10.5996  -50.1794 H         1 UNK         0.0600 
    188 H188        3.3581  -10.9861  -49.3103 H         1 UNK         0.0600 
    189 H189        0.0867  -13.0746  -48.4329 H         1 UNK         0.3000 
    190 H190       -2.3774  -21.4227  -45.5253 H         1 UNK         0.3000 
    191 H191       -4.9526  -22.4866  -45.9068 H         1 UNK         0.0600 
    192 H192       -3.4475  -21.9083  -43.3102 H         1 UNK         0.0600 
    193 H193       -5.1851  -22.1427  -43.4510 H         1 UNK         0.0600 
    194 H194       -4.4254  -20.7602  -44.2239 H         1 UNK         0.0600 
    195 H195       -2.0586  -24.0164  -44.4619 H         1 UNK         0.3000 
    196 H196       -3.3322  -26.4555  -43.6702 H         1 UNK         0.0600 
    197 H197       -0.9695  -27.2635  -43.4690 H         1 UNK         0.0600 
    198 H198       -1.1781  -25.6908  -42.7154 H         1 UNK         0.0600 
    199 H199       -0.3994  -25.8158  -44.2924 H         1 UNK         0.0600 
    200 H200       -2.3087  -25.2820  -46.7708 H         1 UNK         0.3000 
    201 H201       -2.3915  -27.9476  -48.0680 H         1 UNK         0.0600 
    202 H202       -0.5069  -26.4629  -48.6619 H         1 UNK         0.0600 
    203 H203       -1.6080  -25.1825  -49.1353 H         1 UNK         0.0600 
    204 H204       -1.5530  -26.6942  -50.0483 H         1 UNK         0.0600 
    205 H205       -3.4096  -25.6145  -50.2102 H         1 UNK         0.3000 
    206 H206       -6.1542  -26.7059  -50.1699 H         1 UNK         0.0600 
    207 H207       -4.9028  -26.9764  -52.2256 H         1 UNK         0.0600 
    208 H208       -6.1560  -25.7853  -52.5292 H         1 UNK         0.0600 
    209 H209       -4.4909  -25.2699  -52.2709 H         1 UNK         0.0600 
    210 H210       -4.7451  -23.9220  -48.9044 H         1 UNK         0.3000 
    211 H211       -5.5086  -21.9990  -48.1211 H         1 UNK         0.0600 
    212 H212       -8.2079  -23.4489  -48.0482 H         1 UNK         0.0600 
    213 H213       -7.7274  -22.0874  -47.0428 H         1 UNK         0.0600 
    214 H214       -6.9239  -23.6389  -46.8586 H         1 UNK         0.0600 
    215 H215       -5.0910  -21.5887  -50.6404 H         1 UNK         0.3000 
    216 H216       -5.2204  -20.0145  -52.1181 H         1 UNK         0.0600 
    217 H217       -6.6296  -18.0391  -51.9316 H         1 UNK         0.0600 
    218 H218       -6.0797  -18.4724  -50.3239 H         1 UNK         0.0600 
    219 H219       -7.7287  -18.8403  -50.8230 H         1 UNK         0.0600 
    220 H220       -7.5534  -22.4026  -51.9505 H         1 UNK         0.3000 
    221 H221       -8.7915  -21.9207  -54.5576 H         1 UNK         0.0600 
    222 H222       -8.3811  -24.5432  -53.0215 H         1 UNK         0.0600 
    223 H223       -9.7884  -23.4922  -52.8649 H         1 UNK         0.0600 
    224 H224       -9.4485  -24.2904  -54.3937 H         1 UNK         0.0600 
    225 H225       -5.8147  -23.1481  -53.2724 H         1 UNK         0.3000 
    226 H226       -4.3748  -22.6701  -55.6229 H         1 UNK         0.0600 
    227 H227       -5.0101  -25.0700  -56.1491 H         1 UNK         0.0600 
    228 H228       -3.2903  -24.9101  -55.8552 H         1 UNK         0.0600 
    229 H229       -4.3314  -25.5856  -54.6108 H         1 UNK         0.0600 
    230 H230       -1.9354  -23.4499  -54.8415 H         1 UNK         0.3000 
    231 H231       -0.2187  -23.1861  -53.4933 H         1 UNK         0.0600 
    232 H232       -1.3947  -24.9067  -52.0670 H         1 UNK         0.0600 
    233 H233       -2.0752  -23.6005  -51.0937 H         1 UNK         0.0600 
    234 H234       -0.3396  -23.8480  -51.1462 H         1 UNK         0.0600 
    235 H235       -2.2903  -20.8301  -53.8991 H         1 UNK         0.3000 
    236 H236       -1.5612  -18.8665  -51.9116 H         1 UNK         0.0600 
    237 H237       -2.6060  -17.2895  -53.5969 H         1 UNK         0.0600 
    238 H238       -2.7849  -18.6295  -54.7183 H         1 UNK         0.0600 
    239 H239       -3.6579  -18.6316  -53.1846 H         1 UNK         0.0600 
    240 H240       -0.0344  -17.2401  -52.0410 H         1 UNK         0.3000 
    241 H241        2.3906  -17.8377  -53.3767 H         1 UNK         0.0600 
    242 H242        2.6900  -15.6922  -56.2015 H         1 UNK         0.3800 
    243 H243        3.5032  -16.8113  -55.1462 H         1 UNK         0.3800 
    244 H244        3.2914  -15.8551  -52.2912 H         1 UNK         0.0800 
    245 H245        1.7118  -15.2047  -51.9821 H         1 UNK         0.0800 
    246 H246        1.2622  -16.2270  -48.4256 H         1 UNK         0.0800 
    247 H247        1.3704  -14.9473  -49.6026 H         1 UNK         0.0800 
@<TRIPOS>BOND
     1    1    2 1    
     2    1  127 1    
     3    1  128 1    
     4    1  129 1    
     5    2    3 2    
     6    2    4 am   BACKBONE|DICT|INTERRES
     7    4    5 1    
     8    4  130 1    
     9    5    6 1    
    10    5   65 1    
    11    5  131 1    
    12    6    7 1    
    13    6  132 1    
    14    6  133 1    
    15    7    8 1    
    16    8    9 1    
    17    8  134 1    
    18    8  135 1    
    19    9   10 ar   
    20    9   14 ar   
    21   10   11 ar   
    22   10  136 1    
    23   11   12 ar   
    24   11  126 1    
    25   12   13 ar   
    26   12  137 1    
    27   13   14 ar   
    28   13   15 1    
    29   14  138 1    
    30   15   16 1    
    31   15  139 1    
    32   15  140 1    
    33   16   17 1    
    34   17   18 1    
    35   17  141 1    
    36   17  142 1    
    37   18   19 1    
    38   18   67 1    
    39   18  143 1    
    40   19   20 am   BACKBONE|DICT|INTERRES
    41   19  144 1    
    42   20   21 2    
    43   20   22 1    
    44   22   23 1    
    45   22   24 1    
    46   22  145 1    
    47   23  146 1    
    48   23  147 1    
    49   23  148 1    
    50   24   25 am   BACKBONE|DICT|INTERRES
    51   24  149 1    
    52   25   26 2    
    53   25   27 1    
    54   27   28 1    
    55   27   29 1    
    56   27  150 1    
    57   28  151 1    
    58   28  152 1    
    59   28  153 1    
    60   29   30 am   BACKBONE|DICT|INTERRES
    61   29  154 1    
    62   30   31 2    
    63   30   32 1    
    64   32   33 1    
    65   32   34 1    
    66   32  155 1    
    67   33  156 1    
    68   33  157 1    
    69   33  158 1    
    70   34   35 am   BACKBONE|DICT|INTERRES
    71   34  159 1    
    72   35   36 2    
    73   35   37 1    
    74   37   38 1    
    75   37   39 1    
    76   37  160 1    
    77   38  161 1    
    78   38  162 1    
    79   38  163 1    
    80   39   40 am   BACKBONE|DICT|INTERRES
    81   39  164 1    
    82   40   41 2    
    83   40   42 1    
    84   42   43 1    
    85   42   44 1    
    86   42  165 1    
    87   43  166 1    
    88   43  167 1    
    89   43  168 1    
    90   44   45 am   BACKBONE|DICT|INTERRES
    91   44  169 1    
    92   45   46 2    
    93   45   47 1    
    94   47   48 1    
    95   47   49 1    
    96   47  170 1    
    97   48  171 1    
    98   48  172 1    
    99   48  173 1    
   100   49   50 am   BACKBONE|DICT|INTERRES
   101   49  174 1    
   102   50   51 2    
   103   50   52 1    
   104   52   53 1    
   105   52   54 1    
   106   52  175 1    
   107   53  176 1    
   108   53  177 1    
   109   53  178 1    
   110   54   55 am   BACKBONE|DICT|INTERRES
   111   54  179 1    
   112   55   56 2    
   113   55   57 1    
   114   57   58 1    
   115   57   59 1    
   116   57  180 1    
   117   58  181 1    
   118   58  182 1    
   119   58  183 1    
   120   59   60 am   BACKBONE|DICT|INTERRES
   121   59  184 1    
   122   60   61 2    
   123   60   62 1    
   124   62   63 1    
   125   62   64 1    
   126   62  185 1    
   127   63  186 1    
   128   63  187 1    
   129   63  188 1    
   130   64   65 am   BACKBONE|DICT|INTERRES
   131   64  189 1    
   132   65   66 2    
   133   67   68 2    
   134   67   69 am   BACKBONE|DICT|INTERRES
   135   69   70 1    
   136   69  190 1    
   137   70   71 1    
   138   70   72 1    
   139   70  191 1    
   140   71  192 1    
   141   71  193 1    
   142   71  194 1    
   143   72   73 2    
   144   72   74 am   BACKBONE|DICT|INTERRES
   145   74   75 1    
   146   74  195 1    
   147   75   76 1    
   148   75   77 1    
   149   75  196 1    
   150   76  197 1    
   151   76  198 1    
   152   76  199 1    
   153   77   78 2    
   154   77   79 am   BACKBONE|DICT|INTERRES
   155   79   80 1    
   156   79  200 1    
   157   80   81 1    
   158   80   82 1    
   159   80  201 1    
   160   81  202 1    
   161   81  203 1    
   162   81  204 1    
   163   82   83 2    
   164   82   84 am   BACKBONE|DICT|INTERRES
   165   84   85 1    
   166   84  205 1    
   167   85   86 1    
   168   85   87 1    
   169   85  206 1    
   170   86  207 1    
   171   86  208 1    
   172   86  209 1    
   173   87   88 2    
   174   87   89 am   BACKBONE|DICT|INTERRES
   175   89   90 1    
   176   89  210 1    
   177   90   91 1    
   178   90   92 1    
   179   90  211 1    
   180   91  212 1    
   181   91  213 1    
   182   91  214 1    
   183   92   93 2    
   184   92   94 am   BACKBONE|DICT|INTERRES
   185   94   95 1    
   186   94  215 1    
   187   95   96 1    
   188   95   97 1    
   189   95  216 1    
   190   96  217 1    
   191   96  218 1    
   192   96  219 1    
   193   97   98 2    
   194   97   99 am   BACKBONE|DICT|INTERRES
   195   99  100 1    
   196   99  220 1    
   197  100  101 1    
   198  100  102 1    
   199  100  221 1    
   200  101  222 1    
   201  101  223 1    
   202  101  224 1    
   203  102  103 2    
   204  102  104 am   BACKBONE|DICT|INTERRES
   205  104  105 1    
   206  104  225 1    
   207  105  106 1    
   208  105  107 1    
   209  105  226 1    
   210  106  227 1    
   211  106  228 1    
   212  106  229 1    
   213  107  108 2    
   214  107  109 am   BACKBONE|DICT|INTERRES
   215  109  110 1    
   216  109  230 1    
   217  110  111 1    
   218  110  112 1    
   219  110  231 1    
   220  111  232 1    
   221  111  233 1    
   222  111  234 1    
   223  112  113 2    
   224  112  114 am   BACKBONE|DICT|INTERRES
   225  114  115 1    
   226  114  235 1    
   227  115  116 1    
   228  115  117 1    
   229  115  236 1    
   230  116  237 1    
   231  116  238 1    
   232  116  239 1    
   233  117  118 2    
   234  117  119 am   BACKBONE|DICT|INTERRES
   235  119  120 1    
   236  119  240 1    
   237  120  121 1    
   238  120  124 1    
   239  120  241 1    
   240  121  122 am   BACKBONE|DICT|INTERRES
   241  121  123 2    
   242  122  242 1    
   243  122  243 1    
   244  124  125 1    
   245  124  244 1    
   246  124  245 1    
   247  125  126 1    
   248  126  246 1    
   249  126  247 1    
@<TRIPOS>SUBSTRUCTURE
     1 UNK         1 GROUP             0       ****    0 ROOT    
