@<TRIPOS>MOLECULE
3R540
247   249    1
SMALL
USER_CHARGES


@<TRIPOS>ATOM
      1 CA          3.5231   -8.7793  -50.1924 C.3       0 UNK        -0.1800 
      2 C           3.5907   -9.7973  -49.0634 C.2       0 UNK         0.5000 
      3 O           3.6332   -9.4139  -47.8940 O.2       0 UNK        -0.5000 
      4 N           3.5842  -11.0944  -49.4047 N.am      1 UNK        -0.5000 
      5 CA          3.6673  -12.2180  -48.4591 C.3       1 UNK         0.1400 
      6 C6          3.8925  -13.5684  -49.1869 C.3       23 UNK        -0.0398 
      7 S7          4.8305  -14.7740  -48.1827 S.3       23 UNK        -0.2404 
      8 C8          3.5225  -15.8468  -47.5040 C.3       23 UNK        -0.0205 
      9 C9          2.9108  -16.7540  -48.5588 C.ar      23 UNK        -0.0193 
     10 C10         1.6924  -16.4227  -49.1623 C.ar      23 UNK        -0.1150 
     11 C11         1.1097  -17.2841  -50.0957 C.ar      23 UNK        -0.0193 
     12 C12         1.7748  -18.4590  -50.4520 C.ar      23 UNK        -0.1150 
     13 C13         2.9651  -18.8252  -49.8217 C.ar      23 UNK        -0.0193 
     14 C14         3.5371  -17.9602  -48.8853 C.ar      23 UNK        -0.1150 
     15 C15         3.5887  -20.1878  -50.0974 C.3       23 UNK        -0.0205 
     16 S16         2.4099  -21.5640  -49.8460 S.3       23 UNK        -0.2404 
     17 C17         1.6478  -21.1124  -48.2478 C.3       23 UNK        -0.0398 
     18 CA          0.8849  -22.2765  -47.5786 C.3       11 UNK         0.1400 
     19 N           0.6927  -22.0305  -46.1480 N.am      11 UNK        -0.5000 
     20 C           0.2739  -22.9466  -45.2658 C.2       10 UNK         0.5000 
     21 O           0.0320  -24.1163  -45.5606 O.2       10 UNK        -0.5000 
     22 CA          0.0453  -22.4664  -43.8210 C.3       10 UNK         0.1400 
     23 CB          1.3741  -22.3773  -43.0563 C.3       10 UNK        -0.1800 
     24 N          -0.6516  -21.1805  -43.7576 N.am      10 UNK        -0.5000 
     25 C          -1.9004  -20.9791  -44.2029 C.2       9 UNK         0.5000 
     26 O          -2.6076  -21.8676  -44.6756 O.2       9 UNK        -0.5000 
     27 CA         -2.4391  -19.5391  -44.1565 C.3       9 UNK         0.1400 
     28 CB         -2.9286  -19.1874  -42.7440 C.3       9 UNK        -0.1800 
     29 N          -1.4597  -18.5496  -44.6064 N.am      9 UNK        -0.5000 
     30 C          -0.9231  -18.5136  -45.8350 C.2       8 UNK         0.5000 
     31 O          -1.2176  -19.3022  -46.7310 O.2       8 UNK        -0.5000 
     32 CA          0.1760  -17.4674  -46.0858 C.3       8 UNK         0.1400 
     33 CB         -0.4185  -16.0646  -46.2860 C.3       8 UNK        -0.1800 
     34 N           1.1682  -17.4384  -45.0125 N.am      8 UNK        -0.5000 
     35 C           1.9528  -18.4740  -44.6815 C.2       7 UNK         0.5000 
     36 O           1.9677  -19.5470  -45.2843 O.2       7 UNK        -0.5000 
     37 CA          2.8247  -18.3002  -43.4286 C.3       7 UNK         0.1400 
     38 CB          4.1169  -17.5369  -43.7577 C.3       7 UNK        -0.1800 
     39 N           2.0964  -17.6164  -42.3595 N.am      7 UNK        -0.5000 
     40 C           1.0932  -18.1681  -41.6612 C.2       6 UNK         0.5000 
     41 O           0.7045  -19.3250  -41.8226 O.2       6 UNK        -0.5000 
     42 CA          0.3814  -17.2650  -40.6364 C.3       6 UNK         0.1400 
     43 CB          1.1589  -17.2301  -39.3123 C.3       6 UNK        -0.1800 
     44 N           0.1888  -15.8979  -41.1229 N.am      6 UNK        -0.5000 
     45 C          -0.6179  -15.5659  -42.1404 C.2       5 UNK         0.5000 
     46 O          -1.3122  -16.3757  -42.7518 O.2       5 UNK        -0.5000 
     47 CA         -0.6177  -14.0913  -42.5827 C.3       5 UNK         0.1400 
     48 CB         -1.6601  -13.2889  -41.7909 C.3       5 UNK        -0.1800 
     49 N           0.6840  -13.4284  -42.4757 N.am      5 UNK        -0.5000 
     50 C           1.8136  -13.8335  -43.0710 C.2       4 UNK         0.5000 
     51 O           1.9103  -14.8842  -43.7081 O.2       4 UNK        -0.5000 
     52 CA          3.0059  -12.8689  -42.9608 C.3       4 UNK         0.1400 
     53 CB          4.3205  -13.4871  -43.4707 C.3       4 UNK        -0.1800 
     54 N           2.6946  -11.6827  -43.7514 N.am      4 UNK        -0.5000 
     55 C           2.1521  -10.5514  -43.2807 C.2       3 UNK         0.5000 
     56 O           1.9716  -10.3325  -42.0823 O.2       3 UNK        -0.5000 
     57 CA          1.6909   -9.5063  -44.3194 C.3       3 UNK         0.1400 
     58 CB          2.8041   -8.4818  -44.5827 C.3       3 UNK        -0.1800 
     59 N           1.2815  -10.1056  -45.5915 N.am      3 UNK        -0.5000 
     60 C           0.2217  -10.9140  -45.7514 C.2       2 UNK         0.5000 
     61 O          -0.6108  -11.1236  -44.8687 O.2       2 UNK        -0.5000 
     62 CA          0.0768  -11.6409  -47.1073 C.3       2 UNK         0.1400 
     63 CB         -1.0111  -10.9735  -47.9619 C.3       2 UNK        -0.1800 
     64 N           1.3106  -11.7273  -47.8974 N.am      2 UNK        -0.5000 
     65 C           2.4606  -12.2909  -47.4968 C.2       1 UNK         0.5000 
     66 O           2.6036  -12.8062  -46.3911 O.2       1 UNK        -0.5000 
     67 C          -0.4499  -22.5944  -48.2907 C.2       11 UNK         0.5000 
     68 O          -0.5114  -23.5501  -49.0640 O.2       11 UNK        -0.5000 
     69 N          -1.5106  -21.8364  -47.9765 N.am      12 UNK        -0.5000 
     70 CA         -2.8689  -22.0628  -48.4738 C.3       12 UNK         0.1400 
     71 CB         -3.7712  -20.8932  -48.0551 C.3       12 UNK        -0.1800 
     72 C          -3.4617  -23.4071  -48.0091 C.2       12 UNK         0.5000 
     73 O          -4.1151  -24.0848  -48.8024 O.2       12 UNK        -0.5000 
     74 N          -3.1950  -23.7865  -46.7510 N.am      13 UNK        -0.5000 
     75 CA         -3.5634  -25.0816  -46.1792 C.3       13 UNK         0.1400 
     76 CB         -3.3530  -25.0624  -44.6581 C.3       13 UNK        -0.1800 
     77 C          -2.7967  -26.2494  -46.8247 C.2       13 UNK         0.5000 
     78 O          -3.4033  -27.2821  -47.1066 O.2       13 UNK        -0.5000 
     79 N          -1.4964  -26.0592  -47.0931 N.am      14 UNK        -0.5000 
     80 CA         -0.6464  -27.0152  -47.8103 C.3       14 UNK         0.1400 
     81 CB          0.8212  -26.5697  -47.7259 C.3       14 UNK        -0.1800 
     82 C          -1.0765  -27.2175  -49.2771 C.2       14 UNK         0.5000 
     83 O          -0.9724  -28.3309  -49.7926 O.2       14 UNK        -0.5000 
     84 N          -1.5968  -26.1534  -49.9048 N.am      15 UNK        -0.5000 
     85 CA         -2.2138  -26.1718  -51.2336 C.3       15 UNK         0.1400 
     86 CB         -2.2841  -24.7339  -51.7715 C.3       15 UNK        -0.1800 
     87 C          -3.6088  -26.8369  -51.2599 C.2       15 UNK         0.5000 
     88 O          -4.1406  -27.0677  -52.3467 O.2       15 UNK        -0.5000 
     89 N          -4.1758  -27.1280  -50.0792 N.am      16 UNK        -0.5000 
     90 CA         -5.4309  -27.8283  -49.7809 C.3       16 UNK         0.1400 
     91 CB         -5.4282  -29.2567  -50.3576 C.3       16 UNK        -0.1800 
     92 C          -6.7091  -27.0680  -50.1753 C.2       16 UNK         0.5000 
     93 O          -7.6228  -26.9598  -49.3566 O.2       16 UNK        -0.5000 
     94 N          -6.7624  -26.5637  -51.4124 N.am      17 UNK        -0.5000 
     95 CA         -7.8997  -25.8286  -51.9661 C.3       17 UNK         0.1400 
     96 CB         -7.7795  -25.8078  -53.4970 C.3       17 UNK        -0.1800 
     97 C          -8.0323  -24.3996  -51.4057 C.2       17 UNK         0.5000 
     98 O          -9.1484  -23.8804  -51.3515 O.2       17 UNK        -0.5000 
     99 N          -6.8992  -23.8073  -50.9956 N.am      18 UNK        -0.5000 
    100 CA        -6.7412  -22.4442  -50.4759 C.3       18 UNK         0.1400 
    101 CB        -7.4255  -22.3183  -49.0967 C.3       18 UNK        -0.1800 
    102 C         -7.1805  -21.3490  -51.4773 C.2       18 UNK         0.5000 
    103 O         -7.3191  -21.6231  -52.6725 O.2       18 UNK        -0.5000 
    104 N         -7.3505  -20.1135  -50.9816 N.am      19 UNK        -0.5000 
    105 CA        -7.7510  -18.9128  -51.7250 C.3       19 UNK         0.1400 
    106 CB        -9.2429  -19.0015  -52.1185 C.3       19 UNK        -0.1800 
    107 C         -6.8028  -18.6341  -52.9105 C.2       19 UNK         0.5000 
    108 O         -5.6395  -18.3007  -52.6825 O.2       19 UNK        -0.5000 
    109 N         -7.2881  -18.8208  -54.1455 N.am      20 UNK        -0.5000 
    110 CA        -6.5214  -18.6891  -55.3866 C.3       20 UNK         0.1400 
    111 CB        -7.4716  -18.8580  -56.5814 C.3       20 UNK        -0.1800 
    112 C         -5.3360  -19.6698  -55.4985 C.2       20 UNK         0.5000 
    113 O         -4.3496  -19.3463  -56.1625 O.2       20 UNK        -0.5000 
    114 N         -5.4189  -20.8235  -54.8163 N.am      21 UNK        -0.5000 
    115 CA        -4.3606  -21.8370  -54.7612 C.3       21 UNK         0.1400 
    116 CB        -4.9290  -23.1424  -54.1870 C.3       21 UNK        -0.1800 
    117 C         -3.1082  -21.3876  -53.9797 C.2       21 UNK         0.5000 
    118 O         -2.0747  -22.0488  -54.0820 O.2       21 UNK        -0.5000 
    119 N         -3.1998  -20.2656  -53.2486 N.am      22 UNK        -0.5000 
    120 CA        -2.0446  -19.5447  -52.6907 C.3       22 UNK         0.1400 
    121 C         -1.0918  -18.9648  -53.7834 C.2       22 UNK         0.5000 
    122 N         -1.5590  -18.6954  -54.9991 N.am      22 UNK        -0.7600 
    123 O          0.0952  -18.7795  -53.5382 O.2       22 UNK        -0.5000 
    124 C124       -2.4980  -18.4425  -51.6890 C.3       23 UNK        -0.0398 
    125 S125       -1.4361  -18.3130  -50.2144 S.3       23 UNK        -0.2404 
    126 C126       -0.2633  -16.9958  -50.6819 C.3       23 UNK        -0.0205 
    127 H127        4.4013   -8.1342  -50.1679 H         1 UNK         0.0600 
    128 H128        3.4808   -9.2596  -51.1703 H         1 UNK         0.0600 
    129 H129        2.6368   -8.1547  -50.0812 H         1 UNK         0.0600 
    130 H130        3.5405  -11.3429  -50.3831 H         1 UNK         0.3000 
    131 H131        4.5445  -12.0184  -47.8393 H         1 UNK         0.0600 
    132 H132        4.4927  -13.4060  -50.0831 H         1 UNK         0.0800 
    133 H133        2.9561  -13.9961  -49.5444 H         1 UNK         0.0800 
    134 H134        2.7499  -15.2517  -47.0199 H         1 UNK         0.0800 
    135 H135        3.9557  -16.4594  -46.7125 H         1 UNK         0.0800 
    136 H136        1.1821  -15.5129  -48.8798 H         1 UNK         0.1150 
    137 H137        1.3201  -19.1320  -51.1655 H         1 UNK         0.1150 
    138 H138        4.4578  -18.2343  -48.3894 H         1 UNK         0.1150 
    139 H139        3.9541  -20.2131  -51.1247 H         1 UNK         0.0800 
    140 H140        4.4552  -20.3511  -49.4548 H         1 UNK         0.0800 
    141 H141        0.9940  -20.2477  -48.3781 H         1 UNK         0.0800 
    142 H142        2.4563  -20.7820  -47.5943 H         1 UNK         0.0800 
    143 H143        1.5107  -23.1684  -47.6547 H         1 UNK         0.0600 
    144 H144        0.9051  -21.0933  -45.8170 H         1 UNK         0.3000 
    145 H145       -0.5814  -23.2083  -43.3221 H         1 UNK         0.0600 
    146 H146        1.2092  -22.1211  -42.0096 H         1 UNK         0.0600 
    147 H147        1.9021  -23.3315  -43.0783 H         1 UNK         0.0600 
    148 H148        2.0369  -21.6248  -43.4837 H         1 UNK         0.0600 
    149 H149       -0.1456  -20.4065  -43.3399 H         1 UNK         0.3000 
    150 H150       -3.2944  -19.4854  -44.8329 H         1 UNK         0.0600 
    151 H151       -3.6603  -19.9151  -42.3908 H         1 UNK         0.0600 
    152 H152       -3.4094  -18.2093  -42.7265 H         1 UNK         0.0600 
    153 H153       -2.1082  -19.1699  -42.0259 H         1 UNK         0.0600 
    154 H154       -1.1988  -17.8344  -43.9323 H         1 UNK         0.3000 
    155 H155        0.6927  -17.7585  -47.0007 H         1 UNK         0.0600 
    156 H156       -1.0011  -15.7457  -45.4222 H         1 UNK         0.0600 
    157 H157       -1.0797  -16.0464  -47.1533 H         1 UNK         0.0600 
    158 H158        0.3612  -15.3215  -46.4531 H         1 UNK         0.0600 
    159 H159        1.2535  -16.5770  -44.4809 H         1 UNK         0.3000 
    160 H160        3.1021  -19.2945  -43.0721 H         1 UNK         0.0600 
    161 H161        4.7504  -17.4344  -42.8766 H         1 UNK         0.0600 
    162 H162        3.9139  -16.5380  -44.1431 H         1 UNK         0.0600 
    163 H163        4.6963  -18.0657  -44.5155 H         1 UNK         0.0600 
    164 H164        2.2976  -16.6347  -42.2324 H         1 UNK         0.3000 
    165 H165       -0.6027  -17.6967  -40.4415 H         1 UNK         0.0600 
    166 H166        0.6219  -16.6587  -38.5549 H         1 UNK         0.0600 
    167 H167        1.3017  -18.2370  -38.9177 H         1 UNK         0.0600 
    168 H168        2.1459  -16.7823  -39.4347 H         1 UNK         0.0600 
    169 H169        0.7281  -15.1699  -40.6781 H         1 UNK         0.3000 
    170 H170       -0.9029  -14.0672  -43.6361 H         1 UNK         0.0600 
    171 H171       -2.6474  -13.7462  -41.8690 H         1 UNK         0.0600 
    172 H172       -1.4059  -13.2325  -40.7317 H         1 UNK         0.0600 
    173 H173       -1.7443  -12.2708  -42.1722 H         1 UNK         0.0600 
    174 H174        0.6940  -12.5382  -41.9972 H         1 UNK         0.3000 
    175 H175        3.1402  -12.6085  -41.9090 H         1 UNK         0.0600 
    176 H176        4.2494  -13.7965  -44.5142 H         1 UNK         0.0600 
    177 H177        5.1449  -12.7788  -43.3892 H         1 UNK         0.0600 
    178 H178        4.5883  -14.3674  -42.8854 H         1 UNK         0.0600 
    179 H179        2.7212  -11.8300  -44.7570 H         1 UNK         0.3000 
    180 H180        0.8308   -8.9795  -43.9011 H         1 UNK         0.0600 
    181 H181        3.6880   -8.9520  -45.0160 H         1 UNK         0.0600 
    182 H182        3.1115   -7.9917  -43.6580 H         1 UNK         0.0600 
    183 H183        2.4698   -7.7029  -45.2683 H         1 UNK         0.0600 
    184 H184        1.9156   -9.9823  -46.3708 H         1 UNK         0.3000 
    185 H185       -0.2393  -12.6626  -46.8869 H         1 UNK         0.0600 
    186 H186       -1.9564  -10.9186  -47.4201 H         1 UNK         0.0600 
    187 H187       -0.7334   -9.9566  -48.2419 H         1 UNK         0.0600 
    188 H188       -1.1962  -11.5367  -48.8768 H         1 UNK         0.0600 
    189 H189        1.2877  -11.3005  -48.8119 H         1 UNK         0.3000 
    190 H190       -1.3803  -21.0287  -47.3701 H         1 UNK         0.3000 
    191 H191       -2.8226  -22.0802  -49.5647 H         1 UNK         0.0600 
    192 H192       -3.8314  -20.8006  -46.9706 H         1 UNK         0.0600 
    193 H193       -4.7849  -21.0236  -48.4303 H         1 UNK         0.0600 
    194 H194       -3.3989  -19.9479  -48.4499 H         1 UNK         0.0600 
    195 H195       -2.7144  -23.1380  -46.1337 H         1 UNK         0.3000 
    196 H196       -4.6271  -25.2396  -46.3695 H         1 UNK         0.0600 
    197 H197       -3.6359  -26.0167  -44.2124 H         1 UNK         0.0600 
    198 H198       -3.9618  -24.2906  -44.1869 H         1 UNK         0.0600 
    199 H199       -2.3122  -24.8728  -44.3960 H         1 UNK         0.0600 
    200 H200       -1.0491  -25.2057  -46.7708 H         1 UNK         0.3000 
    201 H201       -0.7349  -27.9798  -47.3064 H         1 UNK         0.0600 
    202 H202        1.1492  -26.4874  -46.6896 H         1 UNK         0.0600 
    203 H203        0.9787  -25.6034  -48.2043 H         1 UNK         0.0600 
    204 H204        1.4761  -27.2895  -48.2183 H         1 UNK         0.0600 
    205 H205       -1.5610  -25.2544  -49.4348 H         1 UNK         0.3000 
    206 H206       -1.5683  -26.7488  -51.8988 H         1 UNK         0.0600 
    207 H207       -1.3056  -24.2536  -51.7521 H         1 UNK         0.0600 
    208 H208       -2.6243  -24.7243  -52.8066 H         1 UNK         0.0600 
    209 H209       -2.9710  -24.1154  -51.1947 H         1 UNK         0.0600 
    210 H210       -3.6608  -26.8517  -49.2527 H         1 UNK         0.3000 
    211 H211       -5.4572  -27.9237  -48.6947 H         1 UNK         0.0600 
    212 H212       -5.4144  -29.2592  -51.4478 H         1 UNK         0.0600 
    213 H213       -6.3178  -29.8037  -50.0432 H         1 UNK         0.0600 
    214 H214       -4.5613  -29.8186  -50.0098 H         1 UNK         0.0600 
    215 H215       -5.9524  -26.7036  -52.0112 H         1 UNK         0.3000 
    216 H216       -8.8153  -26.3651  -51.7079 H         1 UNK         0.0600 
    217 H217       -8.5825  -25.2233  -53.9483 H         1 UNK         0.0600 
    218 H218       -7.8393  -26.8154  -53.9086 H         1 UNK         0.0600 
    219 H219       -6.8333  -25.3736  -53.8178 H         1 UNK         0.0600 
    220 H220       -6.0468  -24.3424  -51.0721 H         1 UNK         0.3000 
    221 H221       -5.6691  -22.3058  -50.3337 H         1 UNK         0.0600 
    222 H222       -8.5119  -22.3653  -49.1783 H         1 UNK         0.0600 
    223 H223       -7.1068  -23.1209  -48.4309 H         1 UNK         0.0600 
    224 H224       -7.1748  -21.3803  -48.6019 H         1 UNK         0.0600 
    225 H225       -7.1791  -19.9694  -49.9971 H         1 UNK         0.3000 
    226 H226       -7.6396  -18.0689  -51.0426 H         1 UNK         0.0600 
    227 H227       -9.8705  -19.0967  -51.2323 H         1 UNK         0.0600 
    228 H228       -9.5668  -18.1017  -52.6432 H         1 UNK         0.0600 
    229 H229       -9.4537  -19.8581  -52.7597 H         1 UNK         0.0600 
    230 H230       -8.2434  -19.1342  -54.2379 H         1 UNK         0.3000 
    231 H231       -6.1104  -17.6780  -55.4158 H         1 UNK         0.0600 
    232 H232       -8.2664  -18.1121  -56.5627 H         1 UNK         0.0600 
    233 H233       -7.9358  -19.8451  -56.5890 H         1 UNK         0.0600 
    234 H234       -6.9381  -18.7387  -57.5254 H         1 UNK         0.0600 
    235 H235       -6.2428  -21.0049  -54.2499 H         1 UNK         0.3000 
    236 H236       -4.0454  -22.0352  -55.7878 H         1 UNK         0.0600 
    237 H237       -4.2427  -23.9720  -54.3563 H         1 UNK         0.0600 
    238 H238       -5.0976  -23.0715  -53.1130 H         1 UNK         0.0600 
    239 H239       -5.8740  -23.4021  -54.6634 H         1 UNK         0.0600 
    240 H240       -4.0860  -19.7768  -53.2170 H         1 UNK         0.3000 
    241 H241       -1.4651  -20.2889  -52.1403 H         1 UNK         0.0600 
    242 H242       -0.9271  -18.3334  -55.6955 H         1 UNK         0.3800 
    243 H243       -2.5228  -18.8797  -55.2511 H         1 UNK         0.3800 
    244 H244       -2.6121  -17.4681  -52.1679 H         1 UNK         0.0800 
    245 H245       -3.4851  -18.6847  -51.2947 H         1 UNK         0.0800 
    246 H246       -0.1755  -16.9157  -51.7645 H         1 UNK         0.0800 
    247 H247       -0.6482  -16.0375  -50.3305 H         1 UNK         0.0800 
@<TRIPOS>BOND
     1    1    2 1    
     2    1  127 1    
     3    1  128 1    
     4    1  129 1    
     5    2    3 2    
     6    2    4 am   BACKBONE|DICT|INTERRES
     7    4    5 1    
     8    4  130 1    
     9    5    6 1    
    10    5   65 1    
    11    5  131 1    
    12    6    7 1    
    13    6  132 1    
    14    6  133 1    
    15    7    8 1    
    16    8    9 1    
    17    8  134 1    
    18    8  135 1    
    19    9   10 ar   
    20    9   14 ar   
    21   10   11 ar   
    22   10  136 1    
    23   11   12 ar   
    24   11  126 1    
    25   12   13 ar   
    26   12  137 1    
    27   13   14 ar   
    28   13   15 1    
    29   14  138 1    
    30   15   16 1    
    31   15  139 1    
    32   15  140 1    
    33   16   17 1    
    34   17   18 1    
    35   17  141 1    
    36   17  142 1    
    37   18   19 1    
    38   18   67 1    
    39   18  143 1    
    40   19   20 am   BACKBONE|DICT|INTERRES
    41   19  144 1    
    42   20   21 2    
    43   20   22 1    
    44   22   23 1    
    45   22   24 1    
    46   22  145 1    
    47   23  146 1    
    48   23  147 1    
    49   23  148 1    
    50   24   25 am   BACKBONE|DICT|INTERRES
    51   24  149 1    
    52   25   26 2    
    53   25   27 1    
    54   27   28 1    
    55   27   29 1    
    56   27  150 1    
    57   28  151 1    
    58   28  152 1    
    59   28  153 1    
    60   29   30 am   BACKBONE|DICT|INTERRES
    61   29  154 1    
    62   30   31 2    
    63   30   32 1    
    64   32   33 1    
    65   32   34 1    
    66   32  155 1    
    67   33  156 1    
    68   33  157 1    
    69   33  158 1    
    70   34   35 am   BACKBONE|DICT|INTERRES
    71   34  159 1    
    72   35   36 2    
    73   35   37 1    
    74   37   38 1    
    75   37   39 1    
    76   37  160 1    
    77   38  161 1    
    78   38  162 1    
    79   38  163 1    
    80   39   40 am   BACKBONE|DICT|INTERRES
    81   39  164 1    
    82   40   41 2    
    83   40   42 1    
    84   42   43 1    
    85   42   44 1    
    86   42  165 1    
    87   43  166 1    
    88   43  167 1    
    89   43  168 1    
    90   44   45 am   BACKBONE|DICT|INTERRES
    91   44  169 1    
    92   45   46 2    
    93   45   47 1    
    94   47   48 1    
    95   47   49 1    
    96   47  170 1    
    97   48  171 1    
    98   48  172 1    
    99   48  173 1    
   100   49   50 am   BACKBONE|DICT|INTERRES
   101   49  174 1    
   102   50   51 2    
   103   50   52 1    
   104   52   53 1    
   105   52   54 1    
   106   52  175 1    
   107   53  176 1    
   108   53  177 1    
   109   53  178 1    
   110   54   55 am   BACKBONE|DICT|INTERRES
   111   54  179 1    
   112   55   56 2    
   113   55   57 1    
   114   57   58 1    
   115   57   59 1    
   116   57  180 1    
   117   58  181 1    
   118   58  182 1    
   119   58  183 1    
   120   59   60 am   BACKBONE|DICT|INTERRES
   121   59  184 1    
   122   60   61 2    
   123   60   62 1    
   124   62   63 1    
   125   62   64 1    
   126   62  185 1    
   127   63  186 1    
   128   63  187 1    
   129   63  188 1    
   130   64   65 am   BACKBONE|DICT|INTERRES
   131   64  189 1    
   132   65   66 2    
   133   67   68 2    
   134   67   69 am   BACKBONE|DICT|INTERRES
   135   69   70 1    
   136   69  190 1    
   137   70   71 1    
   138   70   72 1    
   139   70  191 1    
   140   71  192 1    
   141   71  193 1    
   142   71  194 1    
   143   72   73 2    
   144   72   74 am   BACKBONE|DICT|INTERRES
   145   74   75 1    
   146   74  195 1    
   147   75   76 1    
   148   75   77 1    
   149   75  196 1    
   150   76  197 1    
   151   76  198 1    
   152   76  199 1    
   153   77   78 2    
   154   77   79 am   BACKBONE|DICT|INTERRES
   155   79   80 1    
   156   79  200 1    
   157   80   81 1    
   158   80   82 1    
   159   80  201 1    
   160   81  202 1    
   161   81  203 1    
   162   81  204 1    
   163   82   83 2    
   164   82   84 am   BACKBONE|DICT|INTERRES
   165   84   85 1    
   166   84  205 1    
   167   85   86 1    
   168   85   87 1    
   169   85  206 1    
   170   86  207 1    
   171   86  208 1    
   172   86  209 1    
   173   87   88 2    
   174   87   89 am   BACKBONE|DICT|INTERRES
   175   89   90 1    
   176   89  210 1    
   177   90   91 1    
   178   90   92 1    
   179   90  211 1    
   180   91  212 1    
   181   91  213 1    
   182   91  214 1    
   183   92   93 2    
   184   92   94 am   BACKBONE|DICT|INTERRES
   185   94   95 1    
   186   94  215 1    
   187   95   96 1    
   188   95   97 1    
   189   95  216 1    
   190   96  217 1    
   191   96  218 1    
   192   96  219 1    
   193   97   98 2    
   194   97   99 am   BACKBONE|DICT|INTERRES
   195   99  100 1    
   196   99  220 1    
   197  100  101 1    
   198  100  102 1    
   199  100  221 1    
   200  101  222 1    
   201  101  223 1    
   202  101  224 1    
   203  102  103 2    
   204  102  104 am   BACKBONE|DICT|INTERRES
   205  104  105 1    
   206  104  225 1    
   207  105  106 1    
   208  105  107 1    
   209  105  226 1    
   210  106  227 1    
   211  106  228 1    
   212  106  229 1    
   213  107  108 2    
   214  107  109 am   BACKBONE|DICT|INTERRES
   215  109  110 1    
   216  109  230 1    
   217  110  111 1    
   218  110  112 1    
   219  110  231 1    
   220  111  232 1    
   221  111  233 1    
   222  111  234 1    
   223  112  113 2    
   224  112  114 am   BACKBONE|DICT|INTERRES
   225  114  115 1    
   226  114  235 1    
   227  115  116 1    
   228  115  117 1    
   229  115  236 1    
   230  116  237 1    
   231  116  238 1    
   232  116  239 1    
   233  117  118 2    
   234  117  119 am   BACKBONE|DICT|INTERRES
   235  119  120 1    
   236  119  240 1    
   237  120  121 1    
   238  120  124 1    
   239  120  241 1    
   240  121  122 am   BACKBONE|DICT|INTERRES
   241  121  123 2    
   242  122  242 1    
   243  122  243 1    
   244  124  125 1    
   245  124  244 1    
   246  124  245 1    
   247  125  126 1    
   248  126  246 1    
   249  126  247 1    
@<TRIPOS>SUBSTRUCTURE
     1 UNK         1 GROUP             0       ****    0 ROOT    
