@<TRIPOS>MOLECULE
3R540
247   249    1
SMALL
USER_CHARGES


@<TRIPOS>ATOM
      1 CA          3.9667  -12.9596  -49.3308 C.3       0 UNK        -0.1800 
      2 C           2.9221  -13.4311  -48.3306 C.2       0 UNK         0.5000 
      3 O           3.1805  -13.4151  -47.1287 O.2       0 UNK        -0.5000 
      4 N           1.7404  -13.8317  -48.8201 N.am      1 UNK        -0.5000 
      5 CA          0.6004  -14.3359  -48.0399 C.3       1 UNK         0.1400 
      6 C6         -0.5595  -14.7452  -48.9844 C.3       23 UNK        -0.0398 
      7 S7         -1.9397  -15.6305  -48.1774 S.3       23 UNK        -0.2404 
      8 C8         -1.8611  -17.2812  -48.9538 C.3       23 UNK        -0.0205 
      9 C9         -3.1708  -18.0575  -48.8337 C.ar      23 UNK        -0.0193 
     10 C10        -3.6959  -18.7203  -49.9485 C.ar      23 UNK        -0.1150 
     11 C11        -4.9038  -19.4182  -49.8597 C.ar      23 UNK        -0.0193 
     12 C12        -5.5831  -19.4668  -48.6404 C.ar      23 UNK        -0.1150 
     13 C13        -5.0687  -18.8207  -47.5158 C.ar      23 UNK        -0.0193 
     14 C14        -3.8620  -18.1216  -47.6192 C.ar      23 UNK        -0.1150 
     15 C15        -5.8398  -18.8462  -46.2033 C.3       23 UNK        -0.0205 
     16 S16        -5.6014  -20.3894  -45.2617 S.3       23 UNK        -0.2404 
     17 C17        -3.7874  -20.4902  -45.0894 C.3       23 UNK        -0.0398 
     18 CA         -3.2028  -21.6560  -45.9332 C.3       11 UNK         0.1400 
     19 N          -2.0624  -21.2397  -46.7572 N.am      11 UNK        -0.5000 
     20 C          -1.4702  -22.0209  -47.6712 C.2       10 UNK         0.5000 
     21 O          -1.8581  -23.1552  -47.9504 O.2       10 UNK        -0.5000 
     22 CA         -0.2078  -21.4922  -48.3707 C.3       10 UNK         0.1400 
     23 CB         -0.5632  -20.9843  -49.7730 C.3       10 UNK        -0.1800 
     24 N           0.5418  -20.4512  -47.6638 N.am      10 UNK        -0.5000 
     25 C           1.0036  -20.4857  -46.4060 C.2       9 UNK         0.5000 
     26 O           0.7548  -21.3947  -45.6078 O.2       9 UNK        -0.5000 
     27 CA          1.9183  -19.3182  -45.9949 C.3       9 UNK         0.1400 
     28 CB          1.5175  -17.9784  -46.6447 C.3       9 UNK        -0.1800 
     29 N           1.9199  -19.1642  -44.5426 N.am      9 UNK        -0.5000 
     30 C           2.9925  -19.2779  -43.7476 C.2       8 UNK         0.5000 
     31 O           4.1282  -19.5008  -44.1698 O.2       8 UNK        -0.5000 
     32 CA          2.7794  -19.1065  -42.2281 C.3       8 UNK         0.1400 
     33 CB          3.7823  -18.1148  -41.6124 C.3       8 UNK        -0.1800 
     34 N           1.4186  -18.6737  -41.8989 N.am      8 UNK        -0.5000 
     35 C           0.4463  -19.4976  -41.4887 C.2       7 UNK         0.5000 
     36 O           0.6121  -20.6986  -41.2809 O.2       7 UNK        -0.5000 
     37 CA         -0.9527  -18.8919  -41.2790 C.3       7 UNK         0.1400 
     38 CB         -1.1417  -18.4774  -39.8122 C.3       7 UNK        -0.1800 
     39 N          -1.2575  -17.7448  -42.1342 N.am      7 UNK        -0.5000 
     40 C          -1.3379  -17.7454  -43.4690 C.2       6 UNK         0.5000 
     41 O          -1.0477  -18.7168  -44.1683 O.2       6 UNK        -0.5000 
     42 CA         -1.8348  -16.4510  -44.1447 C.3       6 UNK         0.1400 
     43 CB         -3.3722  -16.3889  -44.1333 C.3       6 UNK        -0.1800 
     44 N          -1.2511  -15.2066  -43.6294 N.am      6 UNK        -0.5000 
     45 C          -1.3549  -14.6529  -42.4110 C.2       5 UNK         0.5000 
     46 O          -2.0269  -15.1289  -41.4938 O.2       5 UNK        -0.5000 
     47 CA         -0.5274  -13.3716  -42.1786 C.3       5 UNK         0.1400 
     48 CB         -0.3792  -13.0100  -40.6864 C.3       5 UNK        -0.1800 
     49 N           0.7868  -13.4285  -42.8247 N.am      5 UNK        -0.5000 
     50 C           1.7537  -14.3410  -42.6393 C.2       4 UNK         0.5000 
     51 O           1.6702  -15.2788  -41.8444 O.2       4 UNK        -0.5000 
     52 CA          3.0115  -14.2202  -43.5239 C.3       4 UNK         0.1400 
     53 CB          3.0493  -15.3764  -44.5297 C.3       4 UNK        -0.1800 
     54 N           3.0769  -12.9749  -44.2869 N.am      4 UNK        -0.5000 
     55 C           3.3620  -11.7631  -43.7971 C.2       3 UNK         0.5000 
     56 O           3.6856  -11.5511  -42.6284 O.2       3 UNK        -0.5000 
     57 CA          3.2087  -10.5887  -44.7808 C.3       3 UNK         0.1400 
     58 CB          4.4878  -10.3997  -45.6107 C.3       3 UNK        -0.1800 
     59 N           2.0654  -10.7660  -45.6821 N.am      3 UNK        -0.5000 
     60 C           0.7807  -10.6957  -45.3042 C.2       2 UNK         0.5000 
     61 O           0.4203  -10.4619  -44.1509 O.2       2 UNK        -0.5000 
     62 CA         -0.2804  -10.9616  -46.3877 C.3       2 UNK         0.1400 
     63 CB         -0.5526   -9.6888  -47.2034 C.3       2 UNK        -0.1800 
     64 N           0.0904  -12.0483  -47.2949 N.am      2 UNK        -0.5000 
     65 C           0.1419  -13.3424  -46.9465 C.2       1 UNK         0.5000 
     66 O          -0.1085  -13.7553  -45.8130 O.2       1 UNK        -0.5000 
     67 C          -2.8702  -22.8770  -45.0470 C.2       11 UNK         0.5000 
     68 O          -3.7316  -23.7326  -44.8429 O.2       11 UNK        -0.5000 
     69 N          -1.6173  -22.9478  -44.5772 N.am      12 UNK        -0.5000 
     70 CA         -1.0724  -24.0816  -43.8378 C.3       12 UNK         0.1400 
     71 CB         -0.3161  -23.5660  -42.6056 C.3       12 UNK        -0.1800 
     72 C          -0.1383  -24.9126  -44.7292 C.2       12 UNK         0.5000 
     73 O          -0.2589  -26.1372  -44.7530 O.2       12 UNK        -0.5000 
     74 N           0.7713  -24.2401  -45.4507 N.am      13 UNK        -0.5000 
     75 CA          1.8627  -24.8645  -46.2046 C.3       13 UNK         0.1400 
     76 CB          2.8724  -23.7833  -46.6202 C.3       13 UNK        -0.1800 
     77 C           1.4103  -25.6780  -47.4312 C.2       13 UNK         0.5000 
     78 O           2.1096  -26.6150  -47.8185 O.2       13 UNK        -0.5000 
     79 N           0.2616  -25.3150  -48.0133 N.am      14 UNK        -0.5000 
     80 CA         -0.3463  -25.9871  -49.1623 C.3       14 UNK         0.1400 
     81 CB         -0.2220  -25.0763  -50.3968 C.3       14 UNK        -0.1800 
     82 C          -1.8135  -26.3593  -48.8835 C.2       14 UNK         0.5000 
     83 O          -2.5383  -26.6799  -49.8246 O.2       14 UNK        -0.5000 
     84 N          -2.2446  -26.2735  -47.6140 N.am      15 UNK        -0.5000 
     85 CA         -3.6047  -26.5276  -47.1186 C.3       15 UNK         0.1400 
     86 CB         -3.8903  -28.0434  -47.1287 C.3       15 UNK        -0.1800 
     87 C          -4.7030  -25.7130  -47.8446 C.2       15 UNK         0.5000 
     88 O          -5.8264  -26.1965  -47.9941 O.2       15 UNK        -0.5000 
     89 N          -4.3431  -24.5063  -48.3100 N.am      16 UNK        -0.5000 
     90 CA         -5.1404  -23.5799  -49.1204 C.3       16 UNK         0.1400 
     91 CB         -6.3940  -23.1091  -48.3516 C.3       16 UNK        -0.1800 
     92 C          -5.4773  -24.1004  -50.5382 C.2       16 UNK         0.5000 
     93 O          -6.3693  -23.5487  -51.1835 O.2       16 UNK        -0.5000 
     94 N          -4.7656  -25.1290  -51.0240 N.am      17 UNK        -0.5000 
     95 CA         -4.9802  -25.7131  -52.3522 C.3       17 UNK         0.1400 
     96 CB         -4.5532  -27.1890  -52.3302 C.3       17 UNK        -0.1800 
     97 C          -4.2384  -24.9595  -53.4736 C.2       17 UNK         0.5000 
     98 O          -4.5737  -25.1451  -54.6445 O.2       17 UNK        -0.5000 
     99 N          -3.2350  -24.1466  -53.1143 N.am      18 UNK        -0.5000 
    100 CA        -2.4081  -23.3772  -54.0420 C.3       18 UNK         0.1400 
    101 CB        -1.1008  -22.9706  -53.3431 C.3       18 UNK        -0.1800 
    102 C         -3.1622  -22.1519  -54.5880 C.2       18 UNK         0.5000 
    103 O         -3.1106  -21.0759  -53.9877 O.2       18 UNK        -0.5000 
    104 N         -3.8308  -22.3282  -55.7349 N.am      19 UNK        -0.5000 
    105 CA        -4.5688  -21.2858  -56.4561 C.3       19 UNK         0.1400 
    106 CB        -5.2368  -21.9038  -57.6929 C.3       19 UNK        -0.1800 
    107 C         -3.6979  -20.0792  -56.8598 C.2       19 UNK         0.5000 
    108 O         -4.1834  -18.9481  -56.8482 O.2       19 UNK        -0.5000 
    109 N         -2.4173  -20.3376  -57.1608 N.am      20 UNK        -0.5000 
    110 CA        -1.4097  -19.3257  -57.4833 C.3       20 UNK         0.1400 
    111 CB        -0.1493  -20.0264  -58.0129 C.3       20 UNK        -0.1800 
    112 C         -1.0572  -18.4087  -56.2950 C.2       20 UNK         0.5000 
    113 O         -0.7224  -17.2441  -56.5144 O.2       20 UNK        -0.5000 
    114 N         -1.1455  -18.9386  -55.0664 N.am      21 UNK        -0.5000 
    115 CA        -0.9684  -18.1738  -53.8315 C.3       21 UNK         0.1400 
    116 CB        -0.5089  -19.1134  -52.7065 C.3       21 UNK        -0.1800 
    117 C         -2.2659  -17.4496  -53.4353 C.2       21 UNK         0.5000 
    118 O         -2.2062  -16.3230  -52.9427 O.2       21 UNK        -0.5000 
    119 N         -3.4065  -18.1165  -53.6553 N.am      22 UNK        -0.5000 
    120 CA        -4.7580  -17.5885  -53.4203 C.3       22 UNK         0.1400 
    121 C         -5.1274  -16.3897  -54.3395 C.2       22 UNK         0.5000 
    122 N         -4.8179  -16.4458  -55.6287 N.am      22 UNK        -0.7600 
    123 O         -5.6975  -15.4037  -53.8809 O.2       22 UNK        -0.5000 
    124 C124       -5.8208  -18.7215  -53.5081 C.3       23 UNK        -0.0398 
    125 S125       -6.6772  -19.0156  -51.9300 S.3       23 UNK        -0.2404 
    126 C126       -5.4938  -20.1057  -51.0785 C.3       23 UNK        -0.0205 
    127 H127        4.8586  -13.5820  -49.2604 H         1 UNK         0.0600 
    128 H128        4.2514  -11.9295  -49.1165 H         1 UNK         0.0600 
    129 H129        3.5984  -13.0057  -50.3558 H         1 UNK         0.0600 
    130 H130        1.6041  -13.8071  -49.8206 H         1 UNK         0.3000 
    131 H131        0.9482  -15.2341  -47.5270 H         1 UNK         0.0600 
    132 H132       -0.1668  -15.3718  -49.7860 H         1 UNK         0.0800 
    133 H133       -0.9728  -13.8653  -49.4806 H         1 UNK         0.0800 
    134 H134       -1.0589  -17.8558  -48.4912 H         1 UNK         0.0800 
    135 H135       -1.6024  -17.1652  -50.0074 H         1 UNK         0.0800 
    136 H136       -3.1725  -18.6839  -50.8921 H         1 UNK         0.1150 
    137 H137       -6.5240  -19.9932  -48.5690 H         1 UNK         0.1150 
    138 H138       -3.4643  -17.6093  -46.7566 H         1 UNK         0.1150 
    139 H139       -5.5748  -17.9912  -45.5838 H         1 UNK         0.0800 
    140 H140       -6.9045  -18.7336  -46.4127 H         1 UNK         0.0800 
    141 H141       -3.5466  -20.5833  -44.0284 H         1 UNK         0.0800 
    142 H142       -3.3476  -19.5393  -45.3806 H         1 UNK         0.0800 
    143 H143       -3.9586  -21.9914  -46.6457 H         1 UNK         0.0600 
    144 H144       -1.6617  -20.3344  -46.5606 H         1 UNK         0.3000 
    145 H145        0.4613  -22.3461  -48.4861 H         1 UNK         0.0600 
    146 H146        0.3316  -20.8318  -50.3764 H         1 UNK         0.0600 
    147 H147       -1.1937  -21.6995  -50.3001 H         1 UNK         0.0600 
    148 H148       -1.1100  -20.0437  -49.7334 H         1 UNK         0.0600 
    149 H149        0.8115  -19.6607  -48.2296 H         1 UNK         0.3000 
    150 H150        2.9151  -19.5807  -46.3535 H         1 UNK         0.0600 
    151 H151        1.5002  -18.0311  -47.7332 H         1 UNK         0.0600 
    152 H152        2.2464  -17.2106  -46.3994 H         1 UNK         0.0600 
    153 H153        0.5376  -17.6382  -46.3077 H         1 UNK         0.0600 
    154 H154        1.0033  -19.0677  -44.1197 H         1 UNK         0.3000 
    155 H155        2.9809  -20.0822  -41.7817 H         1 UNK         0.0600 
    156 H156        3.6639  -17.1092  -42.0115 H         1 UNK         0.0600 
    157 H157        4.8109  -18.4239  -41.8019 H         1 UNK         0.0600 
    158 H158        3.6588  -18.0569  -40.5309 H         1 UNK         0.0600 
    159 H159        1.2096  -17.6910  -42.0231 H         1 UNK         0.3000 
    160 H160       -1.6800  -19.6727  -41.5105 H         1 UNK         0.0600 
    161 H161       -0.4655  -17.6673  -39.5352 H         1 UNK         0.0600 
    162 H162       -0.9478  -19.3139  -39.1394 H         1 UNK         0.0600 
    163 H163       -2.1616  -18.1406  -39.6258 H         1 UNK         0.0600 
    164 H164       -1.5182  -16.8810  -41.6636 H         1 UNK         0.3000 
    165 H165       -1.5188  -16.5137  -45.1870 H         1 UNK         0.0600 
    166 H166       -3.7729  -16.1725  -43.1433 H         1 UNK         0.0600 
    167 H167       -3.7403  -15.6269  -44.8204 H         1 UNK         0.0600 
    168 H168       -3.7958  -17.3428  -44.4388 H         1 UNK         0.0600 
    169 H169       -0.6854  -14.7027  -44.3103 H         1 UNK         0.3000 
    170 H170       -1.0738  -12.5624  -42.6649 H         1 UNK         0.0600 
    171 H171       -1.3534  -12.8423  -40.2257 H         1 UNK         0.0600 
    172 H172        0.1167  -13.8024  -40.1249 H         1 UNK         0.0600 
    173 H173        0.2005  -12.0956  -40.5596 H         1 UNK         0.0600 
    174 H174        0.9502  -12.7203  -43.5271 H         1 UNK         0.3000 
    175 H175        3.8858  -14.2866  -42.8736 H         1 UNK         0.0600 
    176 H176        2.2166  -15.3007  -45.2286 H         1 UNK         0.0600 
    177 H177        3.9744  -15.3727  -45.1064 H         1 UNK         0.0600 
    178 H178        2.9743  -16.3442  -44.0384 H         1 UNK         0.0600 
    179 H179        2.8949  -13.0571  -45.2844 H         1 UNK         0.3000 
    180 H180        3.0455   -9.6815  -44.1951 H         1 UNK         0.0600 
    181 H181        4.7007  -11.2713  -46.2308 H         1 UNK         0.0600 
    182 H182        5.3513  -10.2390  -44.9640 H         1 UNK         0.0600 
    183 H183        4.4078   -9.5328  -46.2667 H         1 UNK         0.0600 
    184 H184        2.2762  -11.0133  -46.6376 H         1 UNK         0.3000 
    185 H185       -1.2064  -11.2440  -45.8817 H         1 UNK         0.0600 
    186 H186        0.3299   -9.3670  -47.7577 H         1 UNK         0.0600 
    187 H187       -1.3604   -9.8445  -47.9187 H         1 UNK         0.0600 
    188 H188       -0.8504   -8.8651  -46.5532 H         1 UNK         0.0600 
    189 H189        0.3338  -11.7910  -48.2402 H         1 UNK         0.3000 
    190 H190       -0.9610  -22.2161  -44.8293 H         1 UNK         0.3000 
    191 H191       -1.8738  -24.7362  -43.4887 H         1 UNK         0.0600 
    192 H192        0.1013  -24.3912  -42.0275 H         1 UNK         0.0600 
    193 H193       -0.9781  -23.0071  -41.9440 H         1 UNK         0.0600 
    194 H194        0.5087  -22.9085  -42.8839 H         1 UNK         0.0600 
    195 H195        0.7934  -23.2246  -45.3943 H         1 UNK         0.3000 
    196 H196        2.3723  -25.5558  -45.5301 H         1 UNK         0.0600 
    197 H197        2.4363  -23.0703  -47.3191 H         1 UNK         0.0600 
    198 H198        3.2350  -23.2266  -45.7557 H         1 UNK         0.0600 
    199 H199        3.7410  -24.2279  -47.1075 H         1 UNK         0.0600 
    200 H200       -0.2611  -24.5333  -47.6380 H         1 UNK         0.3000 
    201 H201        0.1688  -26.9255  -49.3758 H         1 UNK         0.0600 
    202 H202       -0.7949  -24.1569  -50.2780 H         1 UNK         0.0600 
    203 H203       -0.5897  -25.5791  -51.2920 H         1 UNK         0.0600 
    204 H204        0.8164  -24.8028  -50.5836 H         1 UNK         0.0600 
    205 H205       -1.5665  -26.0235  -46.9084 H         1 UNK         0.3000 
    206 H206       -3.6187  -26.1957  -46.0798 H         1 UNK         0.0600 
    207 H207       -3.1157  -28.5937  -46.5946 H         1 UNK         0.0600 
    208 H208       -4.8395  -28.2688  -46.6414 H         1 UNK         0.0600 
    209 H209       -3.9411  -28.4363  -48.1448 H         1 UNK         0.0600 
    210 H210       -3.3872  -24.2018  -48.1381 H         1 UNK         0.3000 
    211 H211       -4.5066  -22.7049  -49.2714 H         1 UNK         0.0600 
    212 H212       -6.9107  -22.3137  -48.8880 H         1 UNK         0.0600 
    213 H213       -6.1344  -22.7187  -47.3682 H         1 UNK         0.0600 
    214 H214       -7.1127  -23.9163  -48.2115 H         1 UNK         0.0600 
    215 H215       -4.0506  -25.5659  -50.4492 H         1 UNK         0.3000 
    216 H216       -6.0464  -25.6826  -52.5862 H         1 UNK         0.0600 
    217 H217       -3.4755  -27.2958  -52.2033 H         1 UNK         0.0600 
    218 H218       -4.8205  -27.6848  -53.2641 H         1 UNK         0.0600 
    219 H219       -5.0428  -27.7318  -51.5213 H         1 UNK         0.0600 
    220 H220       -3.0419  -24.0360  -52.1308 H         1 UNK         0.3000 
    221 H221       -2.1396  -24.0165  -54.8859 H         1 UNK         0.0600 
    222 H222       -0.5143  -23.8452  -53.0641 H         1 UNK         0.0600 
    223 H223       -1.2913  -22.3900  -52.4426 H         1 UNK         0.0600 
    224 H224       -0.4781  -22.3612  -53.9993 H         1 UNK         0.0600 
    225 H225       -3.8688  -23.2594  -56.1269 H         1 UNK         0.3000 
    226 H226       -5.3564  -20.9201  -55.7960 H         1 UNK         0.0600 
    227 H227       -4.5015  -22.3195  -58.3830 H         1 UNK         0.0600 
    228 H228       -5.9236  -22.7027  -57.4123 H         1 UNK         0.0600 
    229 H229       -5.8149  -21.1570  -58.2390 H         1 UNK         0.0600 
    230 H230       -2.1084  -21.2983  -57.1490 H         1 UNK         0.3000 
    231 H231       -1.8102  -18.6940  -58.2791 H         1 UNK         0.0600 
    232 H232        0.2850  -20.6927  -57.2665 H         1 UNK         0.0600 
    233 H233        0.6155  -19.2988  -58.2880 H         1 UNK         0.0600 
    234 H234       -0.3697  -20.6158  -58.9031 H         1 UNK         0.0600 
    235 H235       -1.4720  -19.8897  -54.9654 H         1 UNK         0.3000 
    236 H236       -0.1904  -17.4219  -53.9802 H         1 UNK         0.0600 
    237 H237        0.4080  -19.6370  -52.9773 H         1 UNK         0.0600 
    238 H238       -0.3060  -18.5533  -51.7931 H         1 UNK         0.0600 
    239 H239       -1.2650  -19.8620  -52.4698 H         1 UNK         0.0600 
    240 H240       -3.3468  -19.0633  -54.0113 H         1 UNK         0.3000 
    241 H241       -4.7507  -17.1897  -52.4038 H         1 UNK         0.0600 
    242 H242       -5.0502  -15.6709  -56.2288 H         1 UNK         0.3800 
    243 H243       -4.4279  -17.2940  -56.0335 H         1 UNK         0.3800 
    244 H244       -5.3803  -19.6612  -53.8384 H         1 UNK         0.0800 
    245 H245       -6.5904  -18.5068  -54.2523 H         1 UNK         0.0800 
    246 H246       -6.0224  -21.0060  -50.7703 H         1 UNK         0.0800 
    247 H247       -4.6996  -20.4343  -51.7506 H         1 UNK         0.0800 
@<TRIPOS>BOND
     1    1    2 1    
     2    1  127 1    
     3    1  128 1    
     4    1  129 1    
     5    2    3 2    
     6    2    4 am   BACKBONE|DICT|INTERRES
     7    4    5 1    
     8    4  130 1    
     9    5    6 1    
    10    5   65 1    
    11    5  131 1    
    12    6    7 1    
    13    6  132 1    
    14    6  133 1    
    15    7    8 1    
    16    8    9 1    
    17    8  134 1    
    18    8  135 1    
    19    9   10 ar   
    20    9   14 ar   
    21   10   11 ar   
    22   10  136 1    
    23   11   12 ar   
    24   11  126 1    
    25   12   13 ar   
    26   12  137 1    
    27   13   14 ar   
    28   13   15 1    
    29   14  138 1    
    30   15   16 1    
    31   15  139 1    
    32   15  140 1    
    33   16   17 1    
    34   17   18 1    
    35   17  141 1    
    36   17  142 1    
    37   18   19 1    
    38   18   67 1    
    39   18  143 1    
    40   19   20 am   BACKBONE|DICT|INTERRES
    41   19  144 1    
    42   20   21 2    
    43   20   22 1    
    44   22   23 1    
    45   22   24 1    
    46   22  145 1    
    47   23  146 1    
    48   23  147 1    
    49   23  148 1    
    50   24   25 am   BACKBONE|DICT|INTERRES
    51   24  149 1    
    52   25   26 2    
    53   25   27 1    
    54   27   28 1    
    55   27   29 1    
    56   27  150 1    
    57   28  151 1    
    58   28  152 1    
    59   28  153 1    
    60   29   30 am   BACKBONE|DICT|INTERRES
    61   29  154 1    
    62   30   31 2    
    63   30   32 1    
    64   32   33 1    
    65   32   34 1    
    66   32  155 1    
    67   33  156 1    
    68   33  157 1    
    69   33  158 1    
    70   34   35 am   BACKBONE|DICT|INTERRES
    71   34  159 1    
    72   35   36 2    
    73   35   37 1    
    74   37   38 1    
    75   37   39 1    
    76   37  160 1    
    77   38  161 1    
    78   38  162 1    
    79   38  163 1    
    80   39   40 am   BACKBONE|DICT|INTERRES
    81   39  164 1    
    82   40   41 2    
    83   40   42 1    
    84   42   43 1    
    85   42   44 1    
    86   42  165 1    
    87   43  166 1    
    88   43  167 1    
    89   43  168 1    
    90   44   45 am   BACKBONE|DICT|INTERRES
    91   44  169 1    
    92   45   46 2    
    93   45   47 1    
    94   47   48 1    
    95   47   49 1    
    96   47  170 1    
    97   48  171 1    
    98   48  172 1    
    99   48  173 1    
   100   49   50 am   BACKBONE|DICT|INTERRES
   101   49  174 1    
   102   50   51 2    
   103   50   52 1    
   104   52   53 1    
   105   52   54 1    
   106   52  175 1    
   107   53  176 1    
   108   53  177 1    
   109   53  178 1    
   110   54   55 am   BACKBONE|DICT|INTERRES
   111   54  179 1    
   112   55   56 2    
   113   55   57 1    
   114   57   58 1    
   115   57   59 1    
   116   57  180 1    
   117   58  181 1    
   118   58  182 1    
   119   58  183 1    
   120   59   60 am   BACKBONE|DICT|INTERRES
   121   59  184 1    
   122   60   61 2    
   123   60   62 1    
   124   62   63 1    
   125   62   64 1    
   126   62  185 1    
   127   63  186 1    
   128   63  187 1    
   129   63  188 1    
   130   64   65 am   BACKBONE|DICT|INTERRES
   131   64  189 1    
   132   65   66 2    
   133   67   68 2    
   134   67   69 am   BACKBONE|DICT|INTERRES
   135   69   70 1    
   136   69  190 1    
   137   70   71 1    
   138   70   72 1    
   139   70  191 1    
   140   71  192 1    
   141   71  193 1    
   142   71  194 1    
   143   72   73 2    
   144   72   74 am   BACKBONE|DICT|INTERRES
   145   74   75 1    
   146   74  195 1    
   147   75   76 1    
   148   75   77 1    
   149   75  196 1    
   150   76  197 1    
   151   76  198 1    
   152   76  199 1    
   153   77   78 2    
   154   77   79 am   BACKBONE|DICT|INTERRES
   155   79   80 1    
   156   79  200 1    
   157   80   81 1    
   158   80   82 1    
   159   80  201 1    
   160   81  202 1    
   161   81  203 1    
   162   81  204 1    
   163   82   83 2    
   164   82   84 am   BACKBONE|DICT|INTERRES
   165   84   85 1    
   166   84  205 1    
   167   85   86 1    
   168   85   87 1    
   169   85  206 1    
   170   86  207 1    
   171   86  208 1    
   172   86  209 1    
   173   87   88 2    
   174   87   89 am   BACKBONE|DICT|INTERRES
   175   89   90 1    
   176   89  210 1    
   177   90   91 1    
   178   90   92 1    
   179   90  211 1    
   180   91  212 1    
   181   91  213 1    
   182   91  214 1    
   183   92   93 2    
   184   92   94 am   BACKBONE|DICT|INTERRES
   185   94   95 1    
   186   94  215 1    
   187   95   96 1    
   188   95   97 1    
   189   95  216 1    
   190   96  217 1    
   191   96  218 1    
   192   96  219 1    
   193   97   98 2    
   194   97   99 am   BACKBONE|DICT|INTERRES
   195   99  100 1    
   196   99  220 1    
   197  100  101 1    
   198  100  102 1    
   199  100  221 1    
   200  101  222 1    
   201  101  223 1    
   202  101  224 1    
   203  102  103 2    
   204  102  104 am   BACKBONE|DICT|INTERRES
   205  104  105 1    
   206  104  225 1    
   207  105  106 1    
   208  105  107 1    
   209  105  226 1    
   210  106  227 1    
   211  106  228 1    
   212  106  229 1    
   213  107  108 2    
   214  107  109 am   BACKBONE|DICT|INTERRES
   215  109  110 1    
   216  109  230 1    
   217  110  111 1    
   218  110  112 1    
   219  110  231 1    
   220  111  232 1    
   221  111  233 1    
   222  111  234 1    
   223  112  113 2    
   224  112  114 am   BACKBONE|DICT|INTERRES
   225  114  115 1    
   226  114  235 1    
   227  115  116 1    
   228  115  117 1    
   229  115  236 1    
   230  116  237 1    
   231  116  238 1    
   232  116  239 1    
   233  117  118 2    
   234  117  119 am   BACKBONE|DICT|INTERRES
   235  119  120 1    
   236  119  240 1    
   237  120  121 1    
   238  120  124 1    
   239  120  241 1    
   240  121  122 am   BACKBONE|DICT|INTERRES
   241  121  123 2    
   242  122  242 1    
   243  122  243 1    
   244  124  125 1    
   245  124  244 1    
   246  124  245 1    
   247  125  126 1    
   248  126  246 1    
   249  126  247 1    
@<TRIPOS>SUBSTRUCTURE
     1 UNK         1 GROUP             0       ****    0 ROOT    
