@<TRIPOS>MOLECULE
3R540
247   249    1
SMALL
USER_CHARGES


@<TRIPOS>ATOM
      1 CA          2.7289  -15.9025  -47.3367 C.3       0 UNK        -0.1800 
      2 C           2.4179  -14.6319  -46.5594 C.2       0 UNK         0.5000 
      3 O           3.0825  -14.3383  -45.5670 O.2       0 UNK        -0.5000 
      4 N           1.4242  -13.8630  -47.0214 N.am      1 UNK        -0.5000 
      5 CA          0.9040  -12.6449  -46.3786 C.3       1 UNK         0.1400 
      6 C6         -0.3665  -12.1113  -47.0867 C.3       23 UNK        -0.0398 
      7 S7         -1.6697  -13.3827  -47.2227 S.3       23 UNK        -0.2404 
      8 C8         -1.6728  -13.7223  -49.0108 C.3       23 UNK        -0.0205 
      9 C9         -2.2332  -15.1044  -49.3105 C.ar      23 UNK        -0.0193 
     10 C10        -3.5955  -15.3670  -49.1317 C.ar      23 UNK        -0.1150 
     11 C11        -4.1154  -16.6334  -49.4125 C.ar      23 UNK        -0.0193 
     12 C12        -3.2632  -17.6402  -49.8718 C.ar      23 UNK        -0.1150 
     13 C13        -1.9036  -17.3877  -50.0717 C.ar      23 UNK        -0.0193 
     14 C14        -1.3934  -16.1170  -49.7870 C.ar      23 UNK        -0.1150 
     15 C15        -1.0170  -18.4854  -50.6456 C.3       23 UNK        -0.0205 
     16 S16         0.5367  -18.7745  -49.7371 S.3       23 UNK        -0.2404 
     17 C17        -0.0268  -19.0163  -48.0219 C.3       23 UNK        -0.0398 
     18 CA         -0.3802  -20.4846  -47.6687 C.3       11 UNK         0.1400 
     19 N          -0.1035  -20.7754  -46.2576 N.am      11 UNK        -0.5000 
     20 C          -0.2325  -21.9671  -45.6580 C.2       10 UNK         0.5000 
     21 O          -0.5640  -22.9960  -46.2448 O.2       10 UNK        -0.5000 
     22 CA         -0.0039  -22.0057  -44.1346 C.3       10 UNK         0.1400 
     23 CB          1.4940  -22.0557  -43.7992 C.3       10 UNK        -0.1800 
     24 N          -0.6304  -20.8761  -43.4449 N.am      10 UNK        -0.5000 
     25 C          -1.9541  -20.6672  -43.3948 C.2       9 UNK         0.5000 
     26 O          -2.7846  -21.4376  -43.8746 O.2       9 UNK        -0.5000 
     27 CA         -2.4328  -19.3535  -42.7520 C.3       9 UNK         0.1400 
     28 CB         -2.4525  -19.4634  -41.2204 C.3       9 UNK        -0.1800 
     29 N          -1.6269  -18.2020  -43.1557 N.am      9 UNK        -0.5000 
     30 C          -1.5059  -17.7615  -44.4167 C.2       8 UNK         0.5000 
     31 O          -2.0919  -18.2585  -45.3774 O.2       8 UNK        -0.5000 
     32 CA         -0.5252  -16.5997  -44.6463 C.3       8 UNK         0.1400 
     33 CB         -1.1677  -15.2815  -44.1934 C.3       8 UNK        -0.1800 
     34 N           0.7512  -16.7973  -43.9538 N.am      8 UNK        -0.5000 
     35 C           1.5749  -17.8395  -44.1417 C.2       7 UNK         0.5000 
     36 O           1.3785  -18.7212  -44.9743 O.2       7 UNK        -0.5000 
     37 CA          2.7858  -17.9614  -43.2021 C.3       7 UNK         0.1400 
     38 CB          3.9584  -17.0885  -43.6689 C.3       7 UNK        -0.1800 
     39 N           2.4332  -17.6285  -41.8245 N.am      7 UNK        -0.5000 
     40 C           1.6425  -18.3817  -41.0472 C.2       6 UNK         0.5000 
     41 O           1.1801  -19.4701  -41.3911 O.2       6 UNK        -0.5000 
     42 CA          1.2736  -17.7908  -39.6740 C.3       6 UNK         0.1400 
     43 CB          2.3740  -18.0844  -38.6436 C.3       6 UNK        -0.1800 
     44 N           1.0425  -16.3459  -39.7400 N.am      6 UNK        -0.5000 
     45 C           0.0096  -15.7772  -40.3787 C.2       5 UNK         0.5000 
     46 O          -0.8917  -16.4203  -40.9154 O.2       5 UNK        -0.5000 
     47 CA          0.0102  -14.2379  -40.4725 C.3       5 UNK         0.1400 
     48 CB         -0.6977  -13.6232  -39.2562 C.3       5 UNK        -0.1800 
     49 N           1.3594  -13.6742  -40.5876 N.am      5 UNK        -0.5000 
     50 C           2.1689  -13.8615  -41.6383 C.2       4 UNK         0.5000 
     51 O           1.8417  -14.4908  -42.6447 O.2       4 UNK        -0.5000 
     52 CA          3.6011  -13.3318  -41.4971 C.3       4 UNK         0.1400 
     53 CB          4.4039  -14.2643  -40.5634 C.3       4 UNK        -0.1800 
     54 N           4.2505  -13.2499  -42.8067 N.am      4 UNK        -0.5000 
     55 C           5.4218  -12.6387  -43.0322 C.2       3 UNK         0.5000 
     56 O           6.0330  -11.9982  -42.1754 O.2       3 UNK        -0.5000 
     57 CA          6.0219  -12.7575  -44.4407 C.3       3 UNK         0.1400 
     58 CB          6.4031  -14.2106  -44.7710 C.3       3 UNK        -0.1800 
     59 N           5.1066  -12.2410  -45.4538 N.am      3 UNK        -0.5000 
     60 C           5.1185  -10.9802  -45.9112 C.2       2 UNK         0.5000 
     61 O           5.8989  -10.1170  -45.5072 O.2       2 UNK        -0.5000 
     62 CA          4.1143  -10.6111  -47.0228 C.3       2 UNK         0.1400 
     63 CB          4.8129  -10.5958  -48.3915 C.3       2 UNK        -0.1800 
     64 N           2.9705  -11.5185  -47.0914 N.am      2 UNK        -0.5000 
     65 C           1.9493  -11.5200  -46.2250 C.2       1 UNK         0.5000 
     66 O           1.8221  -10.6935  -45.3208 O.2       1 UNK        -0.5000 
     67 C          -1.8411  -20.8122  -48.0435 C.2       11 UNK         0.5000 
     68 O          -2.0831  -21.4804  -49.0515 O.2       11 UNK        -0.5000 
     69 N          -2.7785  -20.3605  -47.1992 N.am      12 UNK        -0.5000 
     70 CA         -4.2113  -20.6143  -47.3122 C.3       12 UNK         0.1400 
     71 CB         -4.9628  -19.7488  -46.2906 C.3       12 UNK        -0.1800 
     72 C          -4.5659  -22.1020  -47.1440 C.2       12 UNK         0.5000 
     73 O          -5.3434  -22.6267  -47.9412 O.2       12 UNK        -0.5000 
     74 N          -3.9677  -22.7692  -46.1466 N.am      13 UNK        -0.5000 
     75 CA         -4.1396  -24.2018  -45.8860 C.3       13 UNK         0.1400 
     76 CB         -3.4656  -24.5698  -44.5559 C.3       13 UNK        -0.1800 
     77 C          -3.6092  -25.0906  -47.0269 C.2       13 UNK         0.5000 
     78 O          -4.2321  -26.1021  -47.3513 O.2       13 UNK        -0.5000 
     79 N          -2.4897  -24.6786  -47.6355 N.am      14 UNK        -0.5000 
     80 CA         -1.8892  -25.3151  -48.8079 C.3       14 UNK         0.1400 
     81 CB         -0.4144  -24.8905  -48.8973 C.3       14 UNK        -0.1800 
     82 C          -2.6143  -24.9844  -50.1275 C.2       14 UNK         0.5000 
     83 O          -2.2761  -25.5783  -51.1514 O.2       14 UNK        -0.5000 
     84 N          -3.5507  -24.0235  -50.1029 N.am      15 UNK        -0.5000 
     85 CA         -4.2922  -23.4729  -51.2425 C.3       15 UNK         0.1400 
     86 CB         -5.2890  -24.5099  -51.7971 C.3       15 UNK        -0.1800 
     87 C          -3.3618  -22.8909  -52.3256 C.2       15 UNK         0.5000 
     88 O          -3.5766  -23.1277  -53.5176 O.2       15 UNK        -0.5000 
     89 N          -2.3292  -22.1644  -51.8689 N.am      16 UNK        -0.5000 
     90 CA         -1.2233  -21.6032  -52.6520 C.3       16 UNK         0.1400 
     91 CB         -1.7168  -20.4712  -53.5755 C.3       16 UNK        -0.1800 
     92 C          -0.4152  -22.6907  -53.3897 C.2       16 UNK         0.5000 
     93 O          -0.1261  -22.5531  -54.5784 O.2       16 UNK        -0.5000 
     94 N          -0.0771  -23.7565  -52.6486 N.am      17 UNK        -0.5000 
     95 CA          0.6398  -24.9579  -53.0893 C.3       17 UNK         0.1400 
     96 CB          2.0777  -24.6191  -53.5366 C.3       17 UNK        -0.1800 
     97 C          -0.1610  -25.7548  -54.1384 C.2       17 UNK         0.5000 
     98 O           0.3453  -26.0500  -55.2226 O.2       17 UNK        -0.5000 
     99 N          -1.4088  -26.0825  -53.7736 N.am      18 UNK        -0.5000 
    100 CA        -2.3903  -26.8577  -54.5377 C.3       18 UNK         0.1400 
    101 CB        -1.9184  -28.3163  -54.7139 C.3       18 UNK        -0.1800 
    102 C         -2.8098  -26.1930  -55.8661 C.2       18 UNK         0.5000 
    103 O         -3.1167  -26.8899  -56.8351 O.2       18 UNK        -0.5000 
    104 N         -2.8486  -24.8542  -55.8815 N.am      19 UNK        -0.5000 
    105 CA        -3.3108  -24.0478  -57.0143 C.3       19 UNK         0.1400 
    106 CB        -2.5555  -22.7114  -57.0101 C.3       19 UNK        -0.1800 
    107 C         -4.8345  -23.8098  -56.9858 C.2       19 UNK         0.5000 
    108 O         -5.3633  -23.2001  -57.9161 O.2       19 UNK        -0.5000 
    109 N         -5.5031  -24.2798  -55.9210 N.am      20 UNK        -0.5000 
    110 CA        -6.9294  -24.1253  -55.6172 C.3       20 UNK         0.1400 
    111 CB        -7.8149  -24.7805  -56.6987 C.3       20 UNK        -0.1800 
    112 C         -7.3137  -22.6634  -55.3092 C.2       20 UNK         0.5000 
    113 O         -8.4192  -22.2279  -55.6385 O.2       20 UNK        -0.5000 
    114 N         -6.3908  -21.9366  -54.6641 N.am      21 UNK        -0.5000 
    115 CA        -6.6095  -20.5941  -54.1266 C.3       21 UNK         0.1400 
    116 CB        -5.2412  -19.9077  -53.9658 C.3       21 UNK        -0.1800 
    117 C         -7.3846  -20.6367  -52.7906 C.2       21 UNK         0.5000 
    118 O         -7.8425  -21.7002  -52.3659 O.2       21 UNK        -0.5000 
    119 N         -7.4748  -19.4768  -52.1307 N.am      22 UNK        -0.5000 
    120 CA        -8.0639  -19.1918  -50.8035 C.3       22 UNK         0.1400 
    121 C         -7.5519  -20.0329  -49.5858 C.2       22 UNK         0.5000 
    122 N         -6.9426  -21.1893  -49.7877 N.am      22 UNK        -0.7600 
    123 O         -7.7253  -19.6397  -48.4362 O.2       22 UNK        -0.5000 
    124 C124       -8.0377  -17.6588  -50.5199 C.3       23 UNK        -0.0398 
    125 S125       -6.4295  -16.8582  -50.8709 S.3       23 UNK        -0.2404 
    126 C126       -5.5992  -16.9191  -49.2534 C.3       23 UNK        -0.0205 
    127 H127        2.6505  -16.7716  -46.6856 H         1 UNK         0.0600 
    128 H128        3.7450  -15.8616  -47.7287 H         1 UNK         0.0600 
    129 H129        2.0442  -16.0455  -48.1732 H         1 UNK         0.0600 
    130 H130        0.9144  -14.1645  -47.8380 H         1 UNK         0.3000 
    131 H131        0.6289  -12.9199  -45.3609 H         1 UNK         0.0600 
    132 H132       -0.7854  -11.2728  -46.5272 H         1 UNK         0.0800 
    133 H133       -0.1248  -11.7212  -48.0769 H         1 UNK         0.0800 
    134 H134       -0.6608  -13.6346  -49.4085 H         1 UNK         0.0800 
    135 H135       -2.2705  -12.9652  -49.5203 H         1 UNK         0.0800 
    136 H136       -4.2493  -14.5822  -48.7780 H         1 UNK         0.1150 
    137 H137       -3.6706  -18.6152  -50.1014 H         1 UNK         0.1150 
    138 H138       -0.3433  -15.9176  -49.9468 H         1 UNK         0.1150 
    139 H139       -1.5673  -19.4240  -50.6902 H         1 UNK         0.0800 
    140 H140       -0.7700  -18.2252  -51.6753 H         1 UNK         0.0800 
    141 H141       -0.8338  -18.3252  -47.7747 H         1 UNK         0.0800 
    142 H142        0.8166  -18.6876  -47.4170 H         1 UNK         0.0800 
    143 H143        0.2642  -21.1492  -48.2478 H         1 UNK         0.0600 
    144 H144        0.2284  -19.9937  -45.6973 H         1 UNK         0.3000 
    145 H145       -0.4623  -22.9210  -43.7548 H         1 UNK         0.0600 
    146 H146        1.6541  -22.1356  -42.7238 H         1 UNK         0.0600 
    147 H147        1.9679  -22.9206  -44.2648 H         1 UNK         0.0600 
    148 H148        2.0191  -21.1673  -44.1489 H         1 UNK         0.0600 
    149 H149       -0.0115  -20.2104  -42.9961 H         1 UNK         0.3000 
    150 H150       -3.4551  -19.1737  -43.0907 H         1 UNK         0.0600 
    151 H151       -3.0739  -20.2996  -40.8975 H         1 UNK         0.0600 
    152 H152       -2.8604  -18.5601  -40.7663 H         1 UNK         0.0600 
    153 H153       -1.4540  -19.6197  -40.8127 H         1 UNK         0.0600 
    154 H154       -1.1492  -17.6972  -42.4154 H         1 UNK         0.3000 
    155 H155       -0.3145  -16.5324  -45.7157 H         1 UNK         0.0600 
    156 H156       -1.5097  -15.3246  -43.1611 H         1 UNK         0.0600 
    157 H157       -2.0380  -15.0470  -44.8062 H         1 UNK         0.0600 
    158 H158       -0.4716  -14.4511  -44.2723 H         1 UNK         0.0600 
    159 H159        1.0356  -16.0663  -43.3073 H         1 UNK         0.3000 
    160 H160        3.1169  -19.0019  -43.2255 H         1 UNK         0.0600 
    161 H161        3.7155  -16.0290  -43.6212 H         1 UNK         0.0600 
    162 H162        4.2299  -17.3158  -44.7003 H         1 UNK         0.0600 
    163 H163        4.8434  -17.2548  -43.0548 H         1 UNK         0.0600 
    164 H164        2.7322  -16.7284  -41.4839 H         1 UNK         0.3000 
    165 H165        0.3522  -18.2721  -39.3389 H         1 UNK         0.0600 
    166 H166        2.0901  -17.7302  -37.6525 H         1 UNK         0.0600 
    167 H167        2.5571  -19.1568  -38.5642 H         1 UNK         0.0600 
    168 H168        3.3181  -17.6090  -38.9128 H         1 UNK         0.0600 
    169 H169        1.7322  -15.7499  -39.3077 H         1 UNK         0.3000 
    170 H170       -0.5490  -13.9595  -41.3679 H         1 UNK         0.0600 
    171 H171       -1.7133  -14.0098  -39.1599 H         1 UNK         0.0600 
    172 H172       -0.1719  -13.8463  -38.3271 H         1 UNK         0.0600 
    173 H173       -0.7717  -12.5396  -39.3492 H         1 UNK         0.0600 
    174 H174        1.6968  -13.1489  -39.7935 H         1 UNK         0.3000 
    175 H175        3.5510  -12.3301  -41.0654 H         1 UNK         0.0600 
    176 H176        4.5235  -15.2579  -40.9967 H         1 UNK         0.0600 
    177 H177        5.3996  -13.8711  -40.3598 H         1 UNK         0.0600 
    178 H178        3.9125  -14.3833  -39.5972 H         1 UNK         0.0600 
    179 H179        3.7598  -13.7185  -43.5640 H         1 UNK         0.3000 
    180 H180        6.9472  -12.1770  -44.4538 H         1 UNK         0.0600 
    181 H181        5.5344  -14.8657  -44.8134 H         1 UNK         0.0600 
    182 H182        7.0812  -14.6159  -44.0190 H         1 UNK         0.0600 
    183 H183        6.9110  -14.2722  -45.7334 H         1 UNK         0.0600 
    184 H184        4.3846  -12.8808  -45.7689 H         1 UNK         0.3000 
    185 H185        3.7491   -9.6028  -46.8160 H         1 UNK         0.0600 
    186 H186        5.6563   -9.9041  -48.3924 H         1 UNK         0.0600 
    187 H187        5.1966  -11.5813  -48.6586 H         1 UNK         0.0600 
    188 H188        4.1310  -10.2750  -49.1793 H         1 UNK         0.0600 
    189 H189        2.9999  -12.2375  -47.7995 H         1 UNK         0.3000 
    190 H190       -2.4878  -19.7723  -46.4214 H         1 UNK         0.3000 
    191 H191       -4.5247  -20.3082  -48.3122 H         1 UNK         0.0600 
    192 H192       -4.6488  -19.9649  -45.2694 H         1 UNK         0.0600 
    193 H193       -6.0379  -19.9208  -46.3458 H         1 UNK         0.0600 
    194 H194       -4.7921  -18.6879  -46.4745 H         1 UNK         0.0600 
    195 H195       -3.3772  -22.2579  -45.4956 H         1 UNK         0.3000 
    196 H196       -5.2099  -24.3948  -45.7884 H         1 UNK         0.0600 
    197 H197       -3.5918  -25.6299  -44.3329 H         1 UNK         0.0600 
    198 H198       -3.8984  -24.0098  -43.7268 H         1 UNK         0.0600 
    199 H199       -2.3953  -24.3630  -44.5771 H         1 UNK         0.0600 
    200 H200       -1.9967  -23.8742  -47.2573 H         1 UNK         0.3000 
    201 H201       -1.9261  -26.3983  -48.6770 H         1 UNK         0.0600 
    202 H202        0.1269  -25.1578  -47.9895 H         1 UNK         0.0600 
    203 H203       -0.3145  -23.8135  -49.0394 H         1 UNK         0.0600 
    204 H204        0.0897  -25.3836  -49.7290 H         1 UNK         0.0600 
    205 H205       -3.7456  -23.5849  -49.2119 H         1 UNK         0.3000 
    206 H206       -4.8659  -22.6317  -50.8553 H         1 UNK         0.0600 
    207 H207       -5.9288  -24.9002  -51.0057 H         1 UNK         0.0600 
    208 H208       -5.9418  -24.0600  -52.5451 H         1 UNK         0.0600 
    209 H209       -4.7807  -25.3534  -52.2650 H         1 UNK         0.0600 
    210 H210       -2.2632  -22.0256  -50.8621 H         1 UNK         0.3000 
    211 H211       -0.5322  -21.1620  -51.9331 H         1 UNK         0.0600 
    212 H212       -2.3775  -20.8444  -54.3544 H         1 UNK         0.0600 
    213 H213       -0.8797  -19.9745  -54.0669 H         1 UNK         0.0600 
    214 H214       -2.2637  -19.7119  -53.0185 H         1 UNK         0.0600 
    215 H215       -0.4137  -23.7822  -51.6975 H         1 UNK         0.3000 
    216 H216        0.7187  -25.6046  -52.2142 H         1 UNK         0.0600 
    217 H217        2.6417  -25.5281  -53.7485 H         1 UNK         0.0600 
    218 H218        2.6152  -24.0781  -52.7579 H         1 UNK         0.0600 
    219 H219        2.0933  -24.0098  -54.4405 H         1 UNK         0.0600 
    220 H220       -1.7206  -25.7990  -52.8448 H         1 UNK         0.3000 
    221 H221       -3.2903  -26.8810  -53.9218 H         1 UNK         0.0600 
    222 H222       -1.0527  -28.3856  -55.3731 H         1 UNK         0.0600 
    223 H223       -1.6480  -28.7610  -53.7562 H         1 UNK         0.0600 
    224 H224       -2.7071  -28.9342  -55.1447 H         1 UNK         0.0600 
    225 H225       -2.6219  -24.3448  -55.0346 H         1 UNK         0.3000 
    226 H226       -3.0765  -24.5628  -57.9481 H         1 UNK         0.0600 
    227 H227       -1.4765  -22.8658  -57.0260 H         1 UNK         0.0600 
    228 H228       -2.8116  -22.1111  -57.8838 H         1 UNK         0.0600 
    229 H229       -2.7993  -22.1243  -56.1265 H         1 UNK         0.0600 
    230 H230       -4.9494  -24.7262  -55.2043 H         1 UNK         0.3000 
    231 H231       -7.0980  -24.6758  -54.6908 H         1 UNK         0.0600 
    232 H232       -7.5059  -25.8076  -56.8925 H         1 UNK         0.0600 
    233 H233       -7.7798  -24.2348  -57.6417 H         1 UNK         0.0600 
    234 H234       -8.8577  -24.8109  -56.3810 H         1 UNK         0.0600 
    235 H235       -5.5105  -22.3770  -54.4284 H         1 UNK         0.3000 
    236 H236       -7.2024  -20.0195  -54.8410 H         1 UNK         0.0600 
    237 H237       -4.6625  -20.3553  -53.1582 H         1 UNK         0.0600 
    238 H238       -4.6537  -19.9797  -54.8813 H         1 UNK         0.0600 
    239 H239       -5.3485  -18.8461  -53.7412 H         1 UNK         0.0600 
    240 H240       -7.0255  -18.6733  -52.5461 H         1 UNK         0.3000 
    241 H241       -9.1144  -19.4748  -50.8835 H         1 UNK         0.0600 
    242 H242       -6.5853  -21.7369  -49.0108 H         1 UNK         0.3800 
    243 H243       -6.9917  -21.5899  -50.7178 H         1 UNK         0.3800 
    244 H244       -8.7718  -17.1759  -51.1661 H         1 UNK         0.0800 
    245 H245       -8.3598  -17.4178  -49.5055 H         1 UNK         0.0800 
    246 H246       -5.7244  -17.9024  -48.8012 H         1 UNK         0.0800 
    247 H247       -6.0643  -16.2022  -48.5751 H         1 UNK         0.0800 
@<TRIPOS>BOND
     1    1    2 1    
     2    1  127 1    
     3    1  128 1    
     4    1  129 1    
     5    2    3 2    
     6    2    4 am   BACKBONE|DICT|INTERRES
     7    4    5 1    
     8    4  130 1    
     9    5    6 1    
    10    5   65 1    
    11    5  131 1    
    12    6    7 1    
    13    6  132 1    
    14    6  133 1    
    15    7    8 1    
    16    8    9 1    
    17    8  134 1    
    18    8  135 1    
    19    9   10 ar   
    20    9   14 ar   
    21   10   11 ar   
    22   10  136 1    
    23   11   12 ar   
    24   11  126 1    
    25   12   13 ar   
    26   12  137 1    
    27   13   14 ar   
    28   13   15 1    
    29   14  138 1    
    30   15   16 1    
    31   15  139 1    
    32   15  140 1    
    33   16   17 1    
    34   17   18 1    
    35   17  141 1    
    36   17  142 1    
    37   18   19 1    
    38   18   67 1    
    39   18  143 1    
    40   19   20 am   BACKBONE|DICT|INTERRES
    41   19  144 1    
    42   20   21 2    
    43   20   22 1    
    44   22   23 1    
    45   22   24 1    
    46   22  145 1    
    47   23  146 1    
    48   23  147 1    
    49   23  148 1    
    50   24   25 am   BACKBONE|DICT|INTERRES
    51   24  149 1    
    52   25   26 2    
    53   25   27 1    
    54   27   28 1    
    55   27   29 1    
    56   27  150 1    
    57   28  151 1    
    58   28  152 1    
    59   28  153 1    
    60   29   30 am   BACKBONE|DICT|INTERRES
    61   29  154 1    
    62   30   31 2    
    63   30   32 1    
    64   32   33 1    
    65   32   34 1    
    66   32  155 1    
    67   33  156 1    
    68   33  157 1    
    69   33  158 1    
    70   34   35 am   BACKBONE|DICT|INTERRES
    71   34  159 1    
    72   35   36 2    
    73   35   37 1    
    74   37   38 1    
    75   37   39 1    
    76   37  160 1    
    77   38  161 1    
    78   38  162 1    
    79   38  163 1    
    80   39   40 am   BACKBONE|DICT|INTERRES
    81   39  164 1    
    82   40   41 2    
    83   40   42 1    
    84   42   43 1    
    85   42   44 1    
    86   42  165 1    
    87   43  166 1    
    88   43  167 1    
    89   43  168 1    
    90   44   45 am   BACKBONE|DICT|INTERRES
    91   44  169 1    
    92   45   46 2    
    93   45   47 1    
    94   47   48 1    
    95   47   49 1    
    96   47  170 1    
    97   48  171 1    
    98   48  172 1    
    99   48  173 1    
   100   49   50 am   BACKBONE|DICT|INTERRES
   101   49  174 1    
   102   50   51 2    
   103   50   52 1    
   104   52   53 1    
   105   52   54 1    
   106   52  175 1    
   107   53  176 1    
   108   53  177 1    
   109   53  178 1    
   110   54   55 am   BACKBONE|DICT|INTERRES
   111   54  179 1    
   112   55   56 2    
   113   55   57 1    
   114   57   58 1    
   115   57   59 1    
   116   57  180 1    
   117   58  181 1    
   118   58  182 1    
   119   58  183 1    
   120   59   60 am   BACKBONE|DICT|INTERRES
   121   59  184 1    
   122   60   61 2    
   123   60   62 1    
   124   62   63 1    
   125   62   64 1    
   126   62  185 1    
   127   63  186 1    
   128   63  187 1    
   129   63  188 1    
   130   64   65 am   BACKBONE|DICT|INTERRES
   131   64  189 1    
   132   65   66 2    
   133   67   68 2    
   134   67   69 am   BACKBONE|DICT|INTERRES
   135   69   70 1    
   136   69  190 1    
   137   70   71 1    
   138   70   72 1    
   139   70  191 1    
   140   71  192 1    
   141   71  193 1    
   142   71  194 1    
   143   72   73 2    
   144   72   74 am   BACKBONE|DICT|INTERRES
   145   74   75 1    
   146   74  195 1    
   147   75   76 1    
   148   75   77 1    
   149   75  196 1    
   150   76  197 1    
   151   76  198 1    
   152   76  199 1    
   153   77   78 2    
   154   77   79 am   BACKBONE|DICT|INTERRES
   155   79   80 1    
   156   79  200 1    
   157   80   81 1    
   158   80   82 1    
   159   80  201 1    
   160   81  202 1    
   161   81  203 1    
   162   81  204 1    
   163   82   83 2    
   164   82   84 am   BACKBONE|DICT|INTERRES
   165   84   85 1    
   166   84  205 1    
   167   85   86 1    
   168   85   87 1    
   169   85  206 1    
   170   86  207 1    
   171   86  208 1    
   172   86  209 1    
   173   87   88 2    
   174   87   89 am   BACKBONE|DICT|INTERRES
   175   89   90 1    
   176   89  210 1    
   177   90   91 1    
   178   90   92 1    
   179   90  211 1    
   180   91  212 1    
   181   91  213 1    
   182   91  214 1    
   183   92   93 2    
   184   92   94 am   BACKBONE|DICT|INTERRES
   185   94   95 1    
   186   94  215 1    
   187   95   96 1    
   188   95   97 1    
   189   95  216 1    
   190   96  217 1    
   191   96  218 1    
   192   96  219 1    
   193   97   98 2    
   194   97   99 am   BACKBONE|DICT|INTERRES
   195   99  100 1    
   196   99  220 1    
   197  100  101 1    
   198  100  102 1    
   199  100  221 1    
   200  101  222 1    
   201  101  223 1    
   202  101  224 1    
   203  102  103 2    
   204  102  104 am   BACKBONE|DICT|INTERRES
   205  104  105 1    
   206  104  225 1    
   207  105  106 1    
   208  105  107 1    
   209  105  226 1    
   210  106  227 1    
   211  106  228 1    
   212  106  229 1    
   213  107  108 2    
   214  107  109 am   BACKBONE|DICT|INTERRES
   215  109  110 1    
   216  109  230 1    
   217  110  111 1    
   218  110  112 1    
   219  110  231 1    
   220  111  232 1    
   221  111  233 1    
   222  111  234 1    
   223  112  113 2    
   224  112  114 am   BACKBONE|DICT|INTERRES
   225  114  115 1    
   226  114  235 1    
   227  115  116 1    
   228  115  117 1    
   229  115  236 1    
   230  116  237 1    
   231  116  238 1    
   232  116  239 1    
   233  117  118 2    
   234  117  119 am   BACKBONE|DICT|INTERRES
   235  119  120 1    
   236  119  240 1    
   237  120  121 1    
   238  120  124 1    
   239  120  241 1    
   240  121  122 am   BACKBONE|DICT|INTERRES
   241  121  123 2    
   242  122  242 1    
   243  122  243 1    
   244  124  125 1    
   245  124  244 1    
   246  124  245 1    
   247  125  126 1    
   248  126  246 1    
   249  126  247 1    
@<TRIPOS>SUBSTRUCTURE
     1 UNK         1 GROUP             0       ****    0 ROOT    
