@<TRIPOS>MOLECULE
3R540
247   249    1
SMALL
USER_CHARGES


@<TRIPOS>ATOM
      1 CA          1.5885  -15.1459  -51.1554 C.3       0 UNK        -0.1800 
      2 C           0.9484  -14.3285  -50.0418 C.2       0 UNK         0.5000 
      3 O           0.2641  -13.3450  -50.3237 O.2       0 UNK        -0.5000 
      4 N           1.1727  -14.7364  -48.7842 N.am      1 UNK        -0.5000 
      5 CA          0.6314  -14.1340  -47.5572 C.3       1 UNK         0.1400 
      6 C6         -0.9130  -14.2574  -47.4324 C.3       23 UNK        -0.0398 
      7 S7         -1.4677  -15.9650  -47.1064 S.3       23 UNK        -0.2404 
      8 C8         -1.9256  -16.5825  -48.7622 C.3       23 UNK        -0.0205 
      9 C9         -0.8842  -17.4515  -49.4721 C.ar      23 UNK        -0.0193 
     10 C10        -1.1556  -17.8335  -50.7878 C.ar      23 UNK        -0.1150 
     11 C11        -0.2600  -18.6202  -51.5170 C.ar      23 UNK        -0.0193 
     12 C12         0.9423  -19.0053  -50.9172 C.ar      23 UNK        -0.1150 
     13 C13         1.2382  -18.6350  -49.6025 C.ar      23 UNK        -0.0193 
     14 C14         0.3117  -17.8798  -48.8763 C.ar      23 UNK        -0.1150 
     15 C15         2.5872  -19.0042  -48.9993 C.3       23 UNK        -0.0205 
     16 S16         2.6559  -20.7274  -48.4163 S.3       23 UNK        -0.2404 
     17 C17         1.9406  -20.5765  -46.7445 C.3       23 UNK        -0.0398 
     18 CA          1.0352  -21.7708  -46.3605 C.3       11 UNK         0.1400 
     19 N           0.7415  -21.8019  -44.9274 N.am      11 UNK        -0.5000 
     20 C           0.1588  -22.8249  -44.2848 C.2       10 UNK         0.5000 
     21 O          -0.0951  -23.9093  -44.8094 O.2       10 UNK        -0.5000 
     22 CA         -0.2468  -22.5820  -42.8181 C.3       10 UNK         0.1400 
     23 CB          0.9335  -22.8495  -41.8731 C.3       10 UNK        -0.1800 
     24 N          -0.7596  -21.2297  -42.5909 N.am      10 UNK        -0.5000 
     25 C          -1.8705  -20.7332  -43.1547 C.2       9 UNK         0.5000 
     26 O          -2.6214  -21.3863  -43.8796 O.2       9 UNK        -0.5000 
     27 CA         -2.1589  -19.2407  -42.9121 C.3       9 UNK         0.1400 
     28 CB         -2.8651  -19.0249  -41.5652 C.3       9 UNK        -0.1800 
     29 N          -0.9451  -18.4244  -42.9710 N.am      9 UNK        -0.5000 
     30 C          -0.2188  -18.2334  -44.0814 C.2       8 UNK         0.5000 
     31 O          -0.5068  -18.7135  -45.1761 O.2       8 UNK        -0.5000 
     32 CA          1.0813  -17.4269  -43.9272 C.3       8 UNK         0.1400 
     33 CB          0.7901  -15.9216  -43.8682 C.3       8 UNK        -0.1800 
     34 N           1.8331  -17.8283  -42.7385 N.am      8 UNK        -0.5000 
     35 C           2.4330  -19.0206  -42.5976 C.2       7 UNK         0.5000 
     36 O           2.4561  -19.8757  -43.4818 O.2       7 UNK        -0.5000 
     37 CA          3.0772  -19.3353  -41.2320 C.3       7 UNK         0.1400 
     38 CB          4.5487  -18.8959  -41.2213 C.3       7 UNK        -0.1800 
     39 N           2.3845  -18.7098  -40.1057 N.am      7 UNK        -0.5000 
     40 C           1.0975  -18.9001  -39.7829 C.2       6 UNK         0.5000 
     41 O           0.3722  -19.7227  -40.3424 O.2       6 UNK        -0.5000 
     42 CA          0.5036  -17.9805  -38.6951 C.3       6 UNK         0.1400 
     43 CB          0.3858  -18.7360  -37.3633 C.3       6 UNK        -0.1800 
     44 N           1.2486  -16.7327  -38.4745 N.am      6 UNK        -0.5000 
     45 C           1.4799  -15.7868  -39.3963 C.2       5 UNK         0.5000 
     46 O           1.1204  -15.8783  -40.5720 O.2       5 UNK        -0.5000 
     47 CA          2.3292  -14.5874  -38.9365 C.3       5 UNK         0.1400 
     48 CB          3.8175  -14.9734  -38.9162 C.3       5 UNK        -0.1800 
     49 N           2.1719  -13.4163  -39.7984 N.am      5 UNK        -0.5000 
     50 C           1.0687  -12.6624  -39.9018 C.2       4 UNK         0.5000 
     51 O           0.0443  -12.8618  -39.2469 O.2       4 UNK        -0.5000 
     52 CA          1.1253  -11.4623  -40.8714 C.3       4 UNK         0.1400 
     53 CB          1.1233  -10.1396  -40.0874 C.3       4 UNK        -0.1800 
     54 N           2.3093  -11.4882  -41.7370 N.am      4 UNK        -0.5000 
     55 C           2.3567  -12.0763  -42.9379 C.2       3 UNK         0.5000 
     56 O           1.3911  -12.6217  -43.4758 O.2       3 UNK        -0.5000 
     57 CA          3.7325  -12.0990  -43.6261 C.3       3 UNK         0.1400 
     58 CB          4.5147  -13.3547  -43.2065 C.3       3 UNK        -0.1800 
     59 N           3.5886  -12.0986  -45.0799 N.am      3 UNK        -0.5000 
     60 C           3.4089  -11.0045  -45.8320 C.2       2 UNK         0.5000 
     61 O           3.4321   -9.8560  -45.3875 O.2       2 UNK        -0.5000 
     62 CA          3.1564  -11.2344  -47.3359 C.3       2 UNK         0.1400 
     63 CB          4.4807  -11.2287  -48.1147 C.3       2 UNK        -0.1800 
     64 N           2.4505  -12.4908  -47.5987 N.am      2 UNK        -0.5000 
     65 C           1.1502  -12.6933  -47.3399 C.2       1 UNK         0.5000 
     66 O           0.3937  -11.8050  -46.9428 O.2       1 UNK        -0.5000 
     67 C          -0.2637  -21.8047  -47.1872 C.2       11 UNK         0.5000 
     68 O          -0.4069  -22.6810  -48.0385 O.2       11 UNK        -0.5000 
     69 N          -1.2013  -20.8922  -46.8892 N.am      12 UNK        -0.5000 
     70 CA         -2.4928  -20.7504  -47.5660 C.3       12 UNK         0.1400 
     71 CB         -3.2792  -19.5943  -46.9335 C.3       12 UNK        -0.1800 
     72 C          -3.3400  -22.0352  -47.5552 C.2       12 UNK         0.5000 
     73 O          -3.9135  -22.3958  -48.5835 O.2       12 UNK        -0.5000 
     74 N          -3.3477  -22.7347  -46.4128 N.am      13 UNK        -0.5000 
     75 CA         -4.0299  -24.0141  -46.2055 C.3       13 UNK         0.1400 
     76 CB         -3.8622  -24.4319  -44.7365 C.3       13 UNK        -0.1800 
     77 C          -3.5725  -25.1507  -47.1450 C.2       13 UNK         0.5000 
     78 O          -4.3205  -26.1135  -47.3197 O.2       13 UNK        -0.5000 
     79 N          -2.3759  -25.0224  -47.7322 N.am      14 UNK        -0.5000 
     80 CA         -1.8352  -25.9344  -48.7314 C.3       14 UNK         0.1400 
     81 CB         -0.4250  -26.3748  -48.3016 C.3       14 UNK        -0.1800 
     82 C          -1.8192  -25.2611  -50.1123 C.2       14 UNK         0.5000 
     83 O          -2.5112  -25.7187  -51.0205 O.2       14 UNK        -0.5000 
     84 N          -1.0191  -24.1971  -50.2513 N.am      15 UNK        -0.5000 
     85 CA         -0.6784  -23.5550  -51.5180 C.3       15 UNK         0.1400 
     86 CB          0.4978  -22.5904  -51.3008 C.3       15 UNK        -0.1800 
     87 C          -1.8598  -22.8284  -52.1716 C.2       15 UNK         0.5000 
     88 O          -2.1153  -23.0403  -53.3575 O.2       15 UNK        -0.5000 
     89 N          -2.5678  -21.9943  -51.3955 N.am      16 UNK        -0.5000 
     90 CA         -3.7227  -21.2428  -51.8907 C.3       16 UNK         0.1400 
     91 CB         -4.1201  -20.1135  -50.9281 C.3       16 UNK        -0.1800 
     92 C          -4.9095  -22.1643  -52.1853 C.2       16 UNK         0.5000 
     93 O          -5.5693  -21.9661  -53.2009 O.2       16 UNK        -0.5000 
     94 N          -5.1145  -23.1729  -51.3275 N.am      17 UNK        -0.5000 
     95 CA         -6.1215  -24.2196  -51.4894 C.3       17 UNK         0.1400 
     96 CB         -6.1329  -25.1082  -50.2364 C.3       17 UNK        -0.1800 
     97 C          -5.9139  -25.0620  -52.7632 C.2       17 UNK         0.5000 
     98 O          -6.8726  -25.2822  -53.5049 O.2       17 UNK        -0.5000 
     99 N          -4.6676  -25.4930  -53.0124 N.am      18 UNK        -0.5000 
    100 CA        -4.2780  -26.2607  -54.1987 C.3       18 UNK         0.1400 
    101 CB        -2.8383  -26.7705  -54.0356 C.3       18 UNK        -0.1800 
    102 C         -4.4188  -25.4616  -55.5068 C.2       18 UNK         0.5000 
    103 O         -4.8514  -26.0177  -56.5163 O.2       18 UNK        -0.5000 
    104 N         -4.0855  -24.1665  -55.4552 N.am      19 UNK        -0.5000 
    105 CA        -4.1858  -23.2206  -56.5673 C.3       19 UNK         0.1400 
    106 CB        -2.9573  -22.2974  -56.5293 C.3       19 UNK        -0.1800 
    107 C         -5.5176  -22.4381  -56.5563 C.2       19 UNK         0.5000 
    108 O         -5.5512  -21.2884  -57.0033 O.2       19 UNK        -0.5000 
    109 N         -6.5841  -23.0618  -56.0333 N.am      20 UNK        -0.5000 
    110 CA        -7.9715  -22.5957  -55.8959 C.3       20 UNK         0.1400 
    111 CB        -8.6031  -22.2960  -57.2690 C.3       20 UNK        -0.1800 
    112 C         -8.1617  -21.4167  -54.9209 C.2       20 UNK         0.5000 
    113 O         -8.9757  -21.5164  -54.0013 O.2       20 UNK        -0.5000 
    114 N         -7.4067  -20.3354  -55.1314 N.am      21 UNK        -0.5000 
    115 CA        -7.3361  -19.1505  -54.2807 C.3       21 UNK         0.1400 
    116 CB        -8.5625  -18.2464  -54.5221 C.3       21 UNK        -0.1800 
    117 C         -5.9961  -18.4242  -54.5067 C.2       21 UNK         0.5000 
    118 O         -5.9667  -17.1938  -54.5616 O.2       21 UNK        -0.5000 
    119 N         -4.9113  -19.1984  -54.6630 N.am      22 UNK        -0.5000 
    120 CA        -3.5726  -18.7185  -55.0603 C.3       22 UNK         0.1400 
    121 C         -3.5403  -18.1501  -56.5147 C.2       22 UNK         0.5000 
    122 N         -4.2259  -18.7815  -57.4610 N.am      22 UNK        -0.7600 
    123 O         -2.9050  -17.1391  -56.8009 O.2       22 UNK        -0.5000 
    124 C124       -2.9211  -17.8014  -53.9832 C.3       23 UNK        -0.0398 
    125 S125       -1.0909  -17.7491  -54.0652 S.3       23 UNK        -0.2404 
    126 C126       -0.5860  -19.0881  -52.9336 C.3       23 UNK        -0.0205 
    127 H127        2.2159  -14.5089  -51.7785 H         1 UNK         0.0600 
    128 H128        2.2068  -15.9535  -50.7630 H         1 UNK         0.0600 
    129 H129        0.8163  -15.5886  -51.7851 H         1 UNK         0.0600 
    130 H130        1.7396  -15.5593  -48.6424 H         1 UNK         0.3000 
    131 H131        1.0696  -14.7037  -46.7375 H         1 UNK         0.0600 
    132 H132       -1.2751  -13.6746  -46.5840 H         1 UNK         0.0800 
    133 H133       -1.4193  -13.8471  -48.3063 H         1 UNK         0.0800 
    134 H134       -2.1809  -15.7380  -49.4034 H         1 UNK         0.0800 
    135 H135       -2.8410  -17.1659  -48.6626 H         1 UNK         0.0800 
    136 H136       -2.0791  -17.5100  -51.2409 H         1 UNK         0.1150 
    137 H137        1.6547  -19.5997  -51.4718 H         1 UNK         0.1150 
    138 H138        0.5433  -17.6077  -47.8575 H         1 UNK         0.1150 
    139 H139        3.3611  -18.8672  -49.7560 H         1 UNK         0.0800 
    140 H140        2.8468  -18.3271  -48.1842 H         1 UNK         0.0800 
    141 H141        1.4026  -19.6335  -46.6534 H         1 UNK         0.0800 
    142 H142        2.7780  -20.5115  -46.0492 H         1 UNK         0.0800 
    143 H143        1.5863  -22.6869  -46.5848 H         1 UNK         0.0600 
    144 H144        0.9768  -20.9679  -44.4012 H         1 UNK         0.3000 
    145 H145       -1.0461  -23.2846  -42.5731 H         1 UNK         0.0600 
    146 H146        0.6494  -22.6976  -40.8315 H         1 UNK         0.0600 
    147 H147        1.2835  -23.8779  -41.9699 H         1 UNK         0.0600 
    148 H148        1.7774  -22.1954  -42.0897 H         1 UNK         0.0600 
    149 H149       -0.2322  -20.6374  -41.9559 H         1 UNK         0.3000 
    150 H150       -2.8296  -18.8995  -43.7034 H         1 UNK         0.0600 
    151 H151       -2.2471  -19.3429  -40.7254 H         1 UNK         0.0600 
    152 H152       -3.7950  -19.5932  -41.5197 H         1 UNK         0.0600 
    153 H153       -3.1187  -17.9751  -41.4167 H         1 UNK         0.0600 
    154 H154       -0.6121  -18.0353  -42.1014 H         1 UNK         0.3000 
    155 H155        1.7003  -17.6180  -44.8064 H         1 UNK         0.0600 
    156 H156        1.7126  -15.3437  -43.8214 H         1 UNK         0.0600 
    157 H157        0.2429  -15.5929  -44.7494 H         1 UNK         0.0600 
    158 H158        0.1840  -15.6564  -43.0020 H         1 UNK         0.0600 
    159 H159        1.8083  -17.1866  -41.9524 H         1 UNK         0.3000 
    160 H160        3.0399  -20.4161  -41.0863 H         1 UNK         0.0600 
    161 H161        4.6471  -17.8152  -41.3331 H         1 UNK         0.0600 
    162 H162        5.1012  -19.3625  -42.0380 H         1 UNK         0.0600 
    163 H163        5.0403  -19.1842  -40.2919 H         1 UNK         0.0600 
    164 H164        2.9021  -18.0170  -39.5868 H         1 UNK         0.3000 
    165 H165       -0.5014  -17.7081  -39.0235 H         1 UNK         0.0600 
    166 H166       -0.1248  -18.1343  -36.6112 H         1 UNK         0.0600 
    167 H167        1.3649  -19.0098  -36.9684 H         1 UNK         0.0600 
    168 H168       -0.1883  -19.6558  -37.4845 H         1 UNK         0.0600 
    169 H169        1.6001  -16.5902  -37.5383 H         1 UNK         0.3000 
    170 H170        2.0202  -14.3116  -37.9261 H         1 UNK         0.0600 
    171 H171        3.9996  -15.8153  -38.2472 H         1 UNK         0.0600 
    172 H172        4.1729  -15.2591  -39.9075 H         1 UNK         0.0600 
    173 H173        4.4348  -14.1462  -38.5650 H         1 UNK         0.0600 
    174 H174        2.9502  -13.1949  -40.3986 H         1 UNK         0.3000 
    175 H175        0.2206  -11.4936  -41.4824 H         1 UNK         0.0600 
    176 H176        1.9975  -10.0524  -39.4410 H         1 UNK         0.0600 
    177 H177        1.1165   -9.2825  -40.7612 H         1 UNK         0.0600 
    178 H178        0.2382  -10.0599  -39.4550 H         1 UNK         0.0600 
    179 H179        3.1424  -11.0517  -41.3679 H         1 UNK         0.3000 
    180 H180        4.2999  -11.2173  -43.3201 H         1 UNK         0.0600 
    181 H181        3.9849  -14.2700  -43.4735 H         1 UNK         0.0600 
    182 H182        4.6790  -13.3740  -42.1285 H         1 UNK         0.0600 
    183 H183        5.4951  -13.3848  -43.6823 H         1 UNK         0.0600 
    184 H184        3.5061  -13.0010  -45.5220 H         1 UNK         0.3000 
    185 H185        2.5438  -10.4075  -47.7016 H         1 UNK         0.0600 
    186 H186        4.3082  -11.3285  -49.1865 H         1 UNK         0.0600 
    187 H187        5.0203  -10.2936  -47.9590 H         1 UNK         0.0600 
    188 H188        5.1368  -12.0421  -47.8021 H         1 UNK         0.0600 
    189 H189        2.9987  -13.2568  -47.9619 H         1 UNK         0.3000 
    190 H190       -0.9908  -20.1922  -46.1807 H         1 UNK         0.3000 
    191 H191       -2.2767  -20.4928  -48.6037 H         1 UNK         0.0600 
    192 H192       -4.1697  -19.3622  -47.5185 H         1 UNK         0.0600 
    193 H193       -2.6760  -18.6903  -46.8785 H         1 UNK         0.0600 
    194 H194       -3.6032  -19.8323  -45.9204 H         1 UNK         0.0600 
    195 H195       -2.8752  -22.3394  -45.6047 H         1 UNK         0.3000 
    196 H196       -5.0923  -23.8503  -46.3958 H         1 UNK         0.0600 
    197 H197       -2.8118  -24.5686  -44.4773 H         1 UNK         0.0600 
    198 H198       -4.2783  -23.6824  -44.0630 H         1 UNK         0.0600 
    199 H199       -4.3770  -25.3718  -44.5331 H         1 UNK         0.0600 
    200 H200       -1.8391  -24.1808  -47.5571 H         1 UNK         0.3000 
    201 H201       -2.4514  -26.8321  -48.8136 H         1 UNK         0.0600 
    202 H202        0.2390  -25.5248  -48.1383 H         1 UNK         0.0600 
    203 H203        0.0337  -27.0129  -49.0580 H         1 UNK         0.0600 
    204 H204       -0.4622  -26.9457  -47.3737 H         1 UNK         0.0600 
    205 H205       -0.5810  -23.8016  -49.4216 H         1 UNK         0.3000 
    206 H206       -0.3505  -24.3357  -52.2077 H         1 UNK         0.0600 
    207 H207        1.3745  -23.1154  -50.9214 H         1 UNK         0.0600 
    208 H208        0.7865  -22.1061  -52.2345 H         1 UNK         0.0600 
    209 H209        0.2478  -21.8051  -50.5866 H         1 UNK         0.0600 
    210 H210       -2.3496  -21.9285  -50.4120 H         1 UNK         0.3000 
    211 H211       -3.4319  -20.7810  -52.8344 H         1 UNK         0.0600 
    212 H212       -4.8007  -19.4171  -51.4190 H         1 UNK         0.0600 
    213 H213       -3.2543  -19.5444  -50.5992 H         1 UNK         0.0600 
    214 H214       -4.6351  -20.4832  -50.0432 H         1 UNK         0.0600 
    215 H215       -4.5349  -23.2157  -50.4973 H         1 UNK         0.3000 
    216 H216       -7.0945  -23.7305  -51.5704 H         1 UNK         0.0600 
    217 H217       -5.1747  -25.6069  -50.0862 H         1 UNK         0.0600 
    218 H218       -6.8977  -25.8820  -50.3126 H         1 UNK         0.0600 
    219 H219       -6.3471  -24.5249  -49.3405 H         1 UNK         0.0600 
    220 H220       -3.9351  -25.3139  -52.3315 H         1 UNK         0.3000 
    221 H221       -4.9384  -27.1275  -54.2683 H         1 UNK         0.0600 
    222 H222       -2.7510  -27.4327  -53.1742 H         1 UNK         0.0600 
    223 H223       -2.1341  -25.9486  -53.8994 H         1 UNK         0.0600 
    224 H224       -2.5201  -27.3361  -54.9123 H         1 UNK         0.0600 
    225 H225       -3.7211  -23.7950  -54.5847 H         1 UNK         0.3000 
    226 H226       -4.1560  -23.7615  -57.5151 H         1 UNK         0.0600 
    227 H227       -2.9013  -21.7600  -55.5851 H         1 UNK         0.0600 
    228 H228       -2.0361  -22.8706  -56.6344 H         1 UNK         0.0600 
    229 H229       -2.9742  -21.5650  -57.3372 H         1 UNK         0.0600 
    230 H230       -6.4147  -23.9729  -55.6291 H         1 UNK         0.3000 
    231 H231       -8.5150  -23.4397  -55.4681 H         1 UNK         0.0600 
    232 H232       -8.5446  -23.1635  -57.9264 H         1 UNK         0.0600 
    233 H233       -8.1155  -21.4609  -57.7725 H         1 UNK         0.0600 
    234 H234       -9.6577  -22.0392  -57.1627 H         1 UNK         0.0600 
    235 H235       -6.7487  -20.3775  -55.9053 H         1 UNK         0.3000 
    236 H236       -7.3405  -19.4716  -53.2370 H         1 UNK         0.0600 
    237 H237       -9.4940  -18.7726  -54.3138 H         1 UNK         0.0600 
    238 H238       -8.5392  -17.3699  -53.8735 H         1 UNK         0.0600 
    239 H239       -8.6005  -17.8945  -55.5536 H         1 UNK         0.0600 
    240 H240       -5.0327  -20.2006  -54.5920 H         1 UNK         0.3000 
    241 H241       -2.9548  -19.6124  -55.1051 H         1 UNK         0.0600 
    242 H242       -4.2144  -18.4175  -58.4002 H         1 UNK         0.3800 
    243 H243       -4.7362  -19.6389  -57.2653 H         1 UNK         0.3800 
    244 H244       -3.2136  -18.1459  -52.9932 H         1 UNK         0.0800 
    245 H245       -3.3027  -16.7826  -54.0646 H         1 UNK         0.0800 
    246 H246        0.2869  -19.5729  -53.3731 H         1 UNK         0.0800 
    247 H247       -1.3575  -19.8530  -52.8929 H         1 UNK         0.0800 
@<TRIPOS>BOND
     1    1    2 1    
     2    1  127 1    
     3    1  128 1    
     4    1  129 1    
     5    2    3 2    
     6    2    4 am   BACKBONE|DICT|INTERRES
     7    4    5 1    
     8    4  130 1    
     9    5    6 1    
    10    5   65 1    
    11    5  131 1    
    12    6    7 1    
    13    6  132 1    
    14    6  133 1    
    15    7    8 1    
    16    8    9 1    
    17    8  134 1    
    18    8  135 1    
    19    9   10 ar   
    20    9   14 ar   
    21   10   11 ar   
    22   10  136 1    
    23   11   12 ar   
    24   11  126 1    
    25   12   13 ar   
    26   12  137 1    
    27   13   14 ar   
    28   13   15 1    
    29   14  138 1    
    30   15   16 1    
    31   15  139 1    
    32   15  140 1    
    33   16   17 1    
    34   17   18 1    
    35   17  141 1    
    36   17  142 1    
    37   18   19 1    
    38   18   67 1    
    39   18  143 1    
    40   19   20 am   BACKBONE|DICT|INTERRES
    41   19  144 1    
    42   20   21 2    
    43   20   22 1    
    44   22   23 1    
    45   22   24 1    
    46   22  145 1    
    47   23  146 1    
    48   23  147 1    
    49   23  148 1    
    50   24   25 am   BACKBONE|DICT|INTERRES
    51   24  149 1    
    52   25   26 2    
    53   25   27 1    
    54   27   28 1    
    55   27   29 1    
    56   27  150 1    
    57   28  151 1    
    58   28  152 1    
    59   28  153 1    
    60   29   30 am   BACKBONE|DICT|INTERRES
    61   29  154 1    
    62   30   31 2    
    63   30   32 1    
    64   32   33 1    
    65   32   34 1    
    66   32  155 1    
    67   33  156 1    
    68   33  157 1    
    69   33  158 1    
    70   34   35 am   BACKBONE|DICT|INTERRES
    71   34  159 1    
    72   35   36 2    
    73   35   37 1    
    74   37   38 1    
    75   37   39 1    
    76   37  160 1    
    77   38  161 1    
    78   38  162 1    
    79   38  163 1    
    80   39   40 am   BACKBONE|DICT|INTERRES
    81   39  164 1    
    82   40   41 2    
    83   40   42 1    
    84   42   43 1    
    85   42   44 1    
    86   42  165 1    
    87   43  166 1    
    88   43  167 1    
    89   43  168 1    
    90   44   45 am   BACKBONE|DICT|INTERRES
    91   44  169 1    
    92   45   46 2    
    93   45   47 1    
    94   47   48 1    
    95   47   49 1    
    96   47  170 1    
    97   48  171 1    
    98   48  172 1    
    99   48  173 1    
   100   49   50 am   BACKBONE|DICT|INTERRES
   101   49  174 1    
   102   50   51 2    
   103   50   52 1    
   104   52   53 1    
   105   52   54 1    
   106   52  175 1    
   107   53  176 1    
   108   53  177 1    
   109   53  178 1    
   110   54   55 am   BACKBONE|DICT|INTERRES
   111   54  179 1    
   112   55   56 2    
   113   55   57 1    
   114   57   58 1    
   115   57   59 1    
   116   57  180 1    
   117   58  181 1    
   118   58  182 1    
   119   58  183 1    
   120   59   60 am   BACKBONE|DICT|INTERRES
   121   59  184 1    
   122   60   61 2    
   123   60   62 1    
   124   62   63 1    
   125   62   64 1    
   126   62  185 1    
   127   63  186 1    
   128   63  187 1    
   129   63  188 1    
   130   64   65 am   BACKBONE|DICT|INTERRES
   131   64  189 1    
   132   65   66 2    
   133   67   68 2    
   134   67   69 am   BACKBONE|DICT|INTERRES
   135   69   70 1    
   136   69  190 1    
   137   70   71 1    
   138   70   72 1    
   139   70  191 1    
   140   71  192 1    
   141   71  193 1    
   142   71  194 1    
   143   72   73 2    
   144   72   74 am   BACKBONE|DICT|INTERRES
   145   74   75 1    
   146   74  195 1    
   147   75   76 1    
   148   75   77 1    
   149   75  196 1    
   150   76  197 1    
   151   76  198 1    
   152   76  199 1    
   153   77   78 2    
   154   77   79 am   BACKBONE|DICT|INTERRES
   155   79   80 1    
   156   79  200 1    
   157   80   81 1    
   158   80   82 1    
   159   80  201 1    
   160   81  202 1    
   161   81  203 1    
   162   81  204 1    
   163   82   83 2    
   164   82   84 am   BACKBONE|DICT|INTERRES
   165   84   85 1    
   166   84  205 1    
   167   85   86 1    
   168   85   87 1    
   169   85  206 1    
   170   86  207 1    
   171   86  208 1    
   172   86  209 1    
   173   87   88 2    
   174   87   89 am   BACKBONE|DICT|INTERRES
   175   89   90 1    
   176   89  210 1    
   177   90   91 1    
   178   90   92 1    
   179   90  211 1    
   180   91  212 1    
   181   91  213 1    
   182   91  214 1    
   183   92   93 2    
   184   92   94 am   BACKBONE|DICT|INTERRES
   185   94   95 1    
   186   94  215 1    
   187   95   96 1    
   188   95   97 1    
   189   95  216 1    
   190   96  217 1    
   191   96  218 1    
   192   96  219 1    
   193   97   98 2    
   194   97   99 am   BACKBONE|DICT|INTERRES
   195   99  100 1    
   196   99  220 1    
   197  100  101 1    
   198  100  102 1    
   199  100  221 1    
   200  101  222 1    
   201  101  223 1    
   202  101  224 1    
   203  102  103 2    
   204  102  104 am   BACKBONE|DICT|INTERRES
   205  104  105 1    
   206  104  225 1    
   207  105  106 1    
   208  105  107 1    
   209  105  226 1    
   210  106  227 1    
   211  106  228 1    
   212  106  229 1    
   213  107  108 2    
   214  107  109 am   BACKBONE|DICT|INTERRES
   215  109  110 1    
   216  109  230 1    
   217  110  111 1    
   218  110  112 1    
   219  110  231 1    
   220  111  232 1    
   221  111  233 1    
   222  111  234 1    
   223  112  113 2    
   224  112  114 am   BACKBONE|DICT|INTERRES
   225  114  115 1    
   226  114  235 1    
   227  115  116 1    
   228  115  117 1    
   229  115  236 1    
   230  116  237 1    
   231  116  238 1    
   232  116  239 1    
   233  117  118 2    
   234  117  119 am   BACKBONE|DICT|INTERRES
   235  119  120 1    
   236  119  240 1    
   237  120  121 1    
   238  120  124 1    
   239  120  241 1    
   240  121  122 am   BACKBONE|DICT|INTERRES
   241  121  123 2    
   242  122  242 1    
   243  122  243 1    
   244  124  125 1    
   245  124  244 1    
   246  124  245 1    
   247  125  126 1    
   248  126  246 1    
   249  126  247 1    
@<TRIPOS>SUBSTRUCTURE
     1 UNK         1 GROUP             0       ****    0 ROOT    
