@<TRIPOS>MOLECULE
3R540
247   249    1
SMALL
USER_CHARGES


@<TRIPOS>ATOM
      1 CA         -3.1843  -16.3163  -45.1020 C.3       0 UNK        -0.1800 
      2 C          -3.4773  -15.3445  -46.2329 C.2       0 UNK         0.5000 
      3 O          -4.2091  -14.3748  -46.0355 O.2       0 UNK        -0.5000 
      4 N          -2.9080  -15.6010  -47.4183 N.am      1 UNK        -0.5000 
      5 CA         -3.0579  -14.7591  -48.6131 C.3       1 UNK         0.1400 
      6 C6         -2.7971  -15.5559  -49.9161 C.3       23 UNK        -0.0398 
      7 S7         -1.0768  -16.1361  -50.1322 S.3       23 UNK        -0.2404 
      8 C8         -1.2746  -17.9431  -50.1222 C.3       23 UNK        -0.0205 
      9 C9          0.0002  -18.6127  -50.6005 C.ar      23 UNK        -0.0193 
     10 C10         0.1936  -18.8516  -51.9630 C.ar      23 UNK        -0.1150 
     11 C11         1.3895  -19.4060  -52.4251 C.ar      23 UNK        -0.0193 
     12 C12         2.3819  -19.7589  -51.5064 C.ar      23 UNK        -0.1150 
     13 C13         2.1974  -19.5308  -50.1381 C.ar      23 UNK        -0.0193 
     14 C14         1.0044  -18.9535  -49.6913 C.ar      23 UNK        -0.1150 
     15 C15         3.3103  -19.8644  -49.1565 C.3       23 UNK        -0.0205 
     16 S16         3.0516  -21.4761  -48.3548 S.3       23 UNK        -0.2404 
     17 C17         2.1453  -20.9870  -46.8497 C.3       23 UNK        -0.0398 
     18 CA          1.1388  -22.0607  -46.3793 C.3       11 UNK         0.1400 
     19 N           0.8525  -21.9419  -44.9495 N.am      11 UNK        -0.5000 
     20 C           0.2039  -22.8621  -44.2232 C.2       10 UNK         0.5000 
     21 O          -0.1892  -23.9377  -44.6747 O.2       10 UNK        -0.5000 
     22 CA         -0.0994  -22.4936  -42.7597 C.3       10 UNK         0.1400 
     23 CB          1.1283  -22.7291  -41.8674 C.3       10 UNK        -0.1800 
     24 N          -0.5440  -21.1070  -42.6209 N.am      10 UNK        -0.5000 
     25 C          -1.6693  -20.6137  -43.1547 C.2       9 UNK         0.5000 
     26 O          -2.4908  -21.2940  -43.7680 O.2       9 UNK        -0.5000 
     27 CA         -1.8814  -19.0958  -43.0378 C.3       9 UNK         0.1400 
     28 CB         -2.4192  -18.7060  -41.6526 C.3       9 UNK        -0.1800 
     29 N          -0.6586  -18.3446  -43.3278 N.am      9 UNK        -0.5000 
     30 C          -0.0871  -18.2613  -44.5377 C.2       8 UNK         0.5000 
     31 O          -0.5437  -18.7902  -45.5487 O.2       8 UNK        -0.5000 
     32 CA          1.2289  -17.4732  -44.6369 C.3       8 UNK         0.1400 
     33 CB          0.9346  -15.9869  -44.8838 C.3       8 UNK        -0.1800 
     34 N           2.0787  -17.6303  -43.4543 N.am      8 UNK        -0.5000 
     35 C           2.6346  -18.7915  -43.0807 C.2       7 UNK         0.5000 
     36 O           2.5027  -19.8434  -43.7068 O.2       7 UNK        -0.5000 
     37 CA          3.4091  -18.7934  -41.7503 C.3       7 UNK         0.1400 
     38 CB          4.7839  -18.1264  -41.9081 C.3       7 UNK        -0.1800 
     39 N           2.6721  -18.1622  -40.6506 N.am      7 UNK        -0.5000 
     40 C           1.4767  -18.5718  -40.2012 C.2       6 UNK         0.5000 
     41 O           0.8499  -19.5027  -40.7041 O.2       6 UNK        -0.5000 
     42 CA          0.8534  -17.8265  -39.0050 C.3       6 UNK         0.1400 
     43 CB          0.7817  -18.7572  -37.7846 C.3       6 UNK        -0.1800 
     44 N           1.5755  -16.6108  -38.6179 N.am      6 UNK        -0.5000 
     45 C           1.4864  -15.3868  -39.1573 C.2       5 UNK         0.5000 
     46 O           2.1391  -14.4477  -38.6996 O.2       5 UNK        -0.5000 
     47 CA          0.5366  -15.1262  -40.3527 C.3       5 UNK         0.1400 
     48 CB         -0.8664  -14.7325  -39.8641 C.3       5 UNK        -0.1800 
     49 N           1.0484  -14.0548  -41.2067 N.am      5 UNK        -0.5000 
     50 C           2.1510  -14.1482  -41.9606 C.2       4 UNK         0.5000 
     51 O           2.7668  -15.2028  -42.1235 O.2       4 UNK        -0.5000 
     52 CA          2.6062  -12.8573  -42.6603 C.3       4 UNK         0.1400 
     53 CB          3.6770  -13.0860  -43.7436 C.3       4 UNK        -0.1800 
     54 N           1.4510  -12.1771  -43.2400 N.am      4 UNK        -0.5000 
     55 C           1.2514  -10.8567  -43.2696 C.2       3 UNK         0.5000 
     56 O           2.0474  -10.0368  -42.8079 O.2       3 UNK        -0.5000 
     57 CA         -0.0546  -10.3857  -43.9471 C.3       3 UNK         0.1400 
     58 CB         -0.2423   -8.8591  -43.8796 C.3       3 UNK        -0.1800 
     59 N          -0.1323  -10.8055  -45.3487 N.am      3 UNK        -0.5000 
     60 C          -0.4302  -12.0371  -45.7784 C.2       2 UNK         0.5000 
     61 O          -0.6617  -12.9884  -45.0251 O.2       2 UNK        -0.5000 
     62 CA         -0.4325  -12.2454  -47.2987 C.3       2 UNK         0.1400 
     63 CB          0.9912  -12.5213  -47.8091 C.3       2 UNK        -0.1800 
     64 N          -1.2746  -13.3936  -47.6044 N.am      2 UNK        -0.5000 
     65 C          -2.2255  -13.4555  -48.5435 C.2       1 UNK         0.5000 
     66 O          -2.4668  -12.5402  -49.3323 O.2       1 UNK        -0.5000 
     67 C          -0.1532  -22.0784  -47.2250 C.2       11 UNK         0.5000 
     68 O          -0.2860  -22.9370  -48.0944 O.2       11 UNK        -0.5000 
     69 N          -1.1108  -21.1895  -46.9180 N.am      12 UNK        -0.5000 
     70 CA         -2.4392  -21.1530  -47.5350 C.3       12 UNK         0.1400 
     71 CB         -3.2149  -19.9206  -47.0448 C.3       12 UNK        -0.1800 
     72 C          -3.2507  -22.4362  -47.2799 C.2       12 UNK         0.5000 
     73 O          -3.8745  -22.9497  -48.2072 O.2       12 UNK        -0.5000 
     74 N          -3.1988  -22.9567  -46.0458 N.am      13 UNK        -0.5000 
     75 CA         -3.8293  -24.2197  -45.6569 C.3       13 UNK         0.1400 
     76 CB         -3.7325  -24.4011  -44.1348 C.3       13 UNK        -0.1800 
     77 C          -3.2399  -25.4364  -46.3959 C.2       13 UNK         0.5000 
     78 O          -3.9946  -26.3252  -46.7917 O.2       13 UNK        -0.5000 
     79 N          -1.9142  -25.4399  -46.5953 N.am      14 UNK        -0.5000 
     80 CA         -1.1995  -26.4420  -47.3864 C.3       14 UNK         0.1400 
     81 CB          0.3090  -26.3289  -47.1172 C.3       14 UNK        -0.1800 
     82 C          -1.5010  -26.3303  -48.8938 C.2       14 UNK         0.5000 
     83 O          -1.6611  -27.3567  -49.5556 O.2       14 UNK        -0.5000 
     84 N          -1.5833  -25.0931  -49.4042 N.am      15 UNK        -0.5000 
     85 CA         -1.9255  -24.7712  -50.7906 C.3       15 UNK         0.1400 
     86 CB         -1.6641  -23.2776  -51.0450 C.3       15 UNK        -0.1800 
     87 C          -3.3756  -25.1473  -51.1506 C.2       15 UNK         0.5000 
     88 O          -3.6185  -25.6087  -52.2667 O.2       15 UNK        -0.5000 
     89 N          -4.3008  -24.9660  -50.1962 N.am      16 UNK        -0.5000 
     90 CA         -5.7212  -25.3207  -50.2434 C.3       16 UNK         0.1400 
     91 CB         -5.8945  -26.8550  -50.2246 C.3       16 UNK        -0.1800 
     92 C          -6.4426  -24.6262  -51.4141 C.2       16 UNK         0.5000 
     93 O          -6.7445  -23.4379  -51.3149 O.2       16 UNK        -0.5000 
     94 N          -6.6690  -25.3489  -52.5191 N.am      17 UNK        -0.5000 
     95 CA         -7.2254  -24.8144  -53.7652 C.3       17 UNK         0.1400 
     96 CB         -7.4938  -25.9769  -54.7325 C.3       17 UNK        -0.1800 
     97 C          -6.3250  -23.7529  -54.4318 C.2       17 UNK         0.5000 
     98 O          -6.8366  -22.8731  -55.1248 O.2       17 UNK        -0.5000 
     99 N          -5.0094  -23.8334  -54.1886 N.am      18 UNK        -0.5000 
    100 CA        -4.0072  -22.8854  -54.6724 C.3       18 UNK         0.1400 
    101 CB        -2.6912  -23.6382  -54.9366 C.3       18 UNK        -0.1800 
    102 C         -3.8039  -21.6788  -53.7315 C.2       18 UNK         0.5000 
    103 O         -2.9224  -20.8641  -53.9967 O.2       18 UNK        -0.5000 
    104 N         -4.6129  -21.5383  -52.6674 N.am      19 UNK        -0.5000 
    105 CA        -4.5481  -20.4097  -51.7267 C.3       19 UNK         0.1400 
    106 CB        -5.4849  -20.6634  -50.5389 C.3       19 UNK        -0.1800 
    107 C         -4.8472  -19.0336  -52.3598 C.2       19 UNK         0.5000 
    108 O         -4.4766  -18.0116  -51.7830 O.2       19 UNK        -0.5000 
    109 N         -5.4601  -19.0159  -53.5514 N.am      20 UNK        -0.5000 
    110 CA        -5.6434  -17.8407  -54.4054 C.3       20 UNK         0.1400 
    111 CB        -6.7699  -18.1384  -55.4110 C.3       20 UNK        -0.1800 
    112 C         -4.3235  -17.4216  -55.0961 C.2       20 UNK         0.5000 
    113 O         -4.2424  -17.4014  -56.3268 O.2       20 UNK        -0.5000 
    114 N         -3.2990  -17.1318  -54.2797 N.am      21 UNK        -0.5000 
    115 CA        -1.9494  -16.6760  -54.6406 C.3       21 UNK         0.1400 
    116 CB        -2.0103  -15.2255  -55.1609 C.3       21 UNK        -0.1800 
    117 C         -1.1897  -17.6152  -55.6079 C.2       21 UNK         0.5000 
    118 O         -0.3067  -17.1566  -56.3348 O.2       21 UNK        -0.5000 
    119 N         -1.5495  -18.9061  -55.6106 N.am      22 UNK        -0.5000 
    120 CA        -1.0845  -19.9466  -56.5442 C.3       22 UNK         0.1400 
    121 C         -1.4464  -19.6790  -58.0384 C.2       22 UNK         0.5000 
    122 N         -2.4549  -18.8658  -58.3360 N.am      22 UNK        -0.7600 
    123 O         -0.8319  -20.2366  -58.9440 O.2       22 UNK        -0.5000 
    124 C124        0.3990  -20.3567  -56.3225 C.3       23 UNK        -0.0398 
    125 S125        0.7028  -20.9563  -54.6209 S.3       23 UNK        -0.2404 
    126 C126        1.6251  -19.5550  -53.9199 C.3       23 UNK        -0.0205 
    127 H127       -2.7859  -17.2525  -45.4885 H         1 UNK         0.0600 
    128 H128       -4.0947  -16.5413  -44.5466 H         1 UNK         0.0600 
    129 H129       -2.4568  -15.8868  -44.4130 H         1 UNK         0.0600 
    130 H130       -2.3064  -16.4049  -47.5242 H         1 UNK         0.3000 
    131 H131       -4.1019  -14.4403  -48.6533 H         1 UNK         0.0600 
    132 H132       -3.0548  -14.9464  -50.7840 H         1 UNK         0.0800 
    133 H133       -3.4759  -16.4080  -49.9528 H         1 UNK         0.0800 
    134 H134       -2.1025  -18.2320  -50.7684 H         1 UNK         0.0800 
    135 H135       -1.5254  -18.2801  -49.1172 H         1 UNK         0.0800 
    136 H136       -0.5774  -18.5837  -52.6696 H         1 UNK         0.1150 
    137 H137        3.3102  -20.1860  -51.8589 H         1 UNK         0.1150 
    138 H138        0.8598  -18.7468  -48.6411 H         1 UNK         0.1150 
    139 H139        4.2682  -19.8903  -49.6781 H         1 UNK         0.0800 
    140 H140        3.4023  -19.0772  -48.4066 H         1 UNK         0.0800 
    141 H141        1.6557  -20.0220  -46.9764 H         1 UNK         0.0800 
    142 H142        2.9061  -20.8332  -46.0842 H         1 UNK         0.0800 
    143 H143        1.6142  -23.0359  -46.5073 H         1 UNK         0.0600 
    144 H144        1.1904  -21.1046  -44.4848 H         1 UNK         0.3000 
    145 H145       -0.9055  -23.1424  -42.4114 H         1 UNK         0.0600 
    146 H146        0.8965  -22.5325  -40.8205 H         1 UNK         0.0600 
    147 H147        1.9620  -22.0852  -42.1496 H         1 UNK         0.0600 
    148 H148        1.4705  -23.7623  -41.9380 H         1 UNK         0.0600 
    149 H149        0.0591  -20.4856  -42.0872 H         1 UNK         0.3000 
    150 H150       -2.6357  -18.8185  -43.7748 H         1 UNK         0.0600 
    151 H151       -3.3669  -19.2071  -41.4518 H         1 UNK         0.0600 
    152 H152       -2.5997  -17.6329  -41.5872 H         1 UNK         0.0600 
    153 H153       -1.7317  -18.9812  -40.8535 H         1 UNK         0.0600 
    154 H154       -0.1827  -17.9271  -42.5441 H         1 UNK         0.3000 
    155 H155        1.7792  -17.8570  -45.4984 H         1 UNK         0.0600 
    156 H156        0.3171  -15.8516  -45.7729 H         1 UNK         0.0600 
    157 H157        1.8545  -15.4274  -45.0442 H         1 UNK         0.0600 
    158 H158        0.4032  -15.5345  -44.0459 H         1 UNK         0.0600 
    159 H159        2.2775  -16.7945  -42.9077 H         1 UNK         0.3000 
    160 H160        3.5739  -19.8370  -41.4739 H         1 UNK         0.0600 
    161 H161        4.6969  -17.0659  -42.1456 H         1 UNK         0.0600 
    162 H162        5.3548  -18.5957  -42.7102 H         1 UNK         0.0600 
    163 H163        5.3728  -18.2176  -40.9953 H         1 UNK         0.0600 
    164 H164        3.1157  -17.3741  -40.2017 H         1 UNK         0.3000 
    165 H165       -0.1709  -17.5717  -39.2787 H         1 UNK         0.0600 
    166 H166        0.2844  -18.2702  -36.9456 H         1 UNK         0.0600 
    167 H167        0.2161  -19.6620  -38.0123 H         1 UNK         0.0600 
    168 H168        1.7742  -19.0659  -37.4538 H         1 UNK         0.0600 
    169 H169        2.2069  -16.7269  -37.8388 H         1 UNK         0.3000 
    170 H170        0.4535  -16.0201  -40.9706 H         1 UNK         0.0600 
    171 H171       -1.3020  -15.5079  -39.2336 H         1 UNK         0.0600 
    172 H172       -0.8435  -13.8127  -39.2782 H         1 UNK         0.0600 
    173 H173       -1.5462  -14.5788  -40.7025 H         1 UNK         0.0600 
    174 H174        0.6110  -13.1506  -41.1080 H         1 UNK         0.3000 
    175 H175        3.0444  -12.2349  -41.8774 H         1 UNK         0.0600 
    176 H176        3.2941  -13.6825  -44.5707 H         1 UNK         0.0600 
    177 H177        4.0275  -12.1385  -44.1528 H         1 UNK         0.0600 
    178 H178        4.5466  -13.6029  -43.3360 H         1 UNK         0.0600 
    179 H179        0.7447  -12.7696  -43.6689 H         1 UNK         0.3000 
    180 H180       -0.8819  -10.8427  -43.3997 H         1 UNK         0.0600 
    181 H181       -1.1991   -8.5605  -44.3084 H         1 UNK         0.0600 
    182 H182        0.5459   -8.3310  -44.4177 H         1 UNK         0.0600 
    183 H183       -0.2288   -8.5079  -42.8469 H         1 UNK         0.0600 
    184 H184        0.0874  -10.0948  -46.0318 H         1 UNK         0.3000 
    185 H185       -0.8249  -11.3434  -47.7730 H         1 UNK         0.0600 
    186 H186        0.9966  -12.6862  -48.8868 H         1 UNK         0.0600 
    187 H187        1.6527  -11.6784  -47.6054 H         1 UNK         0.0600 
    188 H188        1.4249  -13.4028  -47.3343 H         1 UNK         0.0600 
    189 H189       -1.2061  -14.1528  -46.9408 H         1 UNK         0.3000 
    190 H190       -0.9184  -20.4721  -46.2233 H         1 UNK         0.3000 
    191 H191       -2.2981  -21.0552  -48.6131 H         1 UNK         0.0600 
    192 H192       -2.6806  -18.9989  -47.2670 H         1 UNK         0.0600 
    193 H193       -3.3848  -19.9526  -45.9687 H         1 UNK         0.0600 
    194 H194       -4.1901  -19.8554  -47.5286 H         1 UNK         0.0600 
    195 H195       -2.7132  -22.4436  -45.3154 H         1 UNK         0.3000 
    196 H196       -4.8868  -24.1552  -45.9216 H         1 UNK         0.0600 
    197 H197       -4.2168  -23.5784  -43.6086 H         1 UNK         0.0600 
    198 H198       -2.6969  -24.4487  -43.7986 H         1 UNK         0.0600 
    199 H199       -4.2229  -25.3229  -43.8196 H         1 UNK         0.0600 
    200 H200       -1.3568  -24.6983  -46.1844 H         1 UNK         0.3000 
    201 H201       -1.5263  -27.4298  -47.0547 H         1 UNK         0.0600 
    202 H202        0.5315  -26.4684  -46.0591 H         1 UNK         0.0600 
    203 H203        0.7018  -25.3565  -47.4145 H         1 UNK         0.0600 
    204 H204        0.8619  -27.0892  -47.6700 H         1 UNK         0.0600 
    205 H205       -1.3502  -24.3055  -48.8043 H         1 UNK         0.3000 
    206 H206       -1.2616  -25.3467  -51.4387 H         1 UNK         0.0600 
    207 H207       -2.3331  -22.6449  -50.4622 H         1 UNK         0.0600 
    208 H208       -0.6394  -23.0049  -50.7918 H         1 UNK         0.0600 
    209 H209       -1.8065  -23.0237  -52.0933 H         1 UNK         0.0600 
    210 H210       -4.0130  -24.4690  -49.3570 H         1 UNK         0.3000 
    211 H211       -6.1666  -24.9268  -49.3287 H         1 UNK         0.0600 
    212 H212       -5.4038  -27.3418  -51.0678 H         1 UNK         0.0600 
    213 H213       -6.9493  -27.1314  -50.2470 H         1 UNK         0.0600 
    214 H214       -5.4705  -27.2776  -49.3133 H         1 UNK         0.0600 
    215 H215       -6.3537  -26.3080  -52.5366 H         1 UNK         0.3000 
    216 H216       -8.1784  -24.3362  -53.5299 H         1 UNK         0.0600 
    217 H217       -7.9336  -25.6168  -55.6636 H         1 UNK         0.0600 
    218 H218       -8.1911  -26.6959  -54.3021 H         1 UNK         0.0600 
    219 H219       -6.5759  -26.5084  -54.9868 H         1 UNK         0.0600 
    220 H220       -4.6674  -24.5755  -53.5838 H         1 UNK         0.3000 
    221 H221       -4.3378  -22.4730  -55.6278 H         1 UNK         0.0600 
    222 H222       -2.3123  -24.1283  -54.0417 H         1 UNK         0.0600 
    223 H223       -2.8285  -24.4055  -55.6984 H         1 UNK         0.0600 
    224 H224       -1.9098  -22.9676  -55.2944 H         1 UNK         0.0600 
    225 H225       -5.3258  -22.2350  -52.4870 H         1 UNK         0.3000 
    226 H226       -3.5268  -20.3662  -51.3424 H         1 UNK         0.0600 
    227 H227       -5.2299  -21.5912  -50.0285 H         1 UNK         0.0600 
    228 H228       -5.4142  -19.8606  -49.8041 H         1 UNK         0.0600 
    229 H229       -6.5262  -20.7285  -50.8561 H         1 UNK         0.0600 
    230 H230       -5.7153  -19.9042  -53.9570 H         1 UNK         0.3000 
    231 H231       -5.9641  -17.0018  -53.7843 H         1 UNK         0.0600 
    232 H232       -6.9640  -17.2751  -56.0487 H         1 UNK         0.0600 
    233 H233       -7.7021  -18.3776  -54.8989 H         1 UNK         0.0600 
    234 H234       -6.5191  -18.9784  -56.0602 H         1 UNK         0.0600 
    235 H235       -3.4773  -17.2344  -53.2849 H         1 UNK         0.3000 
    236 H236       -1.3744  -16.6639  -53.7142 H         1 UNK         0.0600 
    237 H237       -2.5294  -15.1630  -56.1179 H         1 UNK         0.0600 
    238 H238       -2.5274  -14.5752  -54.4552 H         1 UNK         0.0600 
    239 H239       -1.0100  -14.8146  -55.3023 H         1 UNK         0.0600 
    240 H240       -2.2450  -19.2285  -54.9464 H         1 UNK         0.3000 
    241 H241       -1.6821  -20.8245  -56.3044 H         1 UNK         0.0600 
    242 H242       -2.6914  -18.7037  -59.3018 H         1 UNK         0.3800 
    243 H243       -2.9828  -18.3984  -57.6060 H         1 UNK         0.3800 
    244 H244        1.0699  -19.5320  -56.5656 H         1 UNK         0.0800 
    245 H245        0.6707  -21.1705  -56.9964 H         1 UNK         0.0800 
    246 H246        1.3288  -18.6266  -54.4086 H         1 UNK         0.0800 
    247 H247        2.6866  -19.6851  -54.1352 H         1 UNK         0.0800 
@<TRIPOS>BOND
     1    1    2 1    
     2    1  127 1    
     3    1  128 1    
     4    1  129 1    
     5    2    3 2    
     6    2    4 am   BACKBONE|DICT|INTERRES
     7    4    5 1    
     8    4  130 1    
     9    5    6 1    
    10    5   65 1    
    11    5  131 1    
    12    6    7 1    
    13    6  132 1    
    14    6  133 1    
    15    7    8 1    
    16    8    9 1    
    17    8  134 1    
    18    8  135 1    
    19    9   10 ar   
    20    9   14 ar   
    21   10   11 ar   
    22   10  136 1    
    23   11   12 ar   
    24   11  126 1    
    25   12   13 ar   
    26   12  137 1    
    27   13   14 ar   
    28   13   15 1    
    29   14  138 1    
    30   15   16 1    
    31   15  139 1    
    32   15  140 1    
    33   16   17 1    
    34   17   18 1    
    35   17  141 1    
    36   17  142 1    
    37   18   19 1    
    38   18   67 1    
    39   18  143 1    
    40   19   20 am   BACKBONE|DICT|INTERRES
    41   19  144 1    
    42   20   21 2    
    43   20   22 1    
    44   22   23 1    
    45   22   24 1    
    46   22  145 1    
    47   23  146 1    
    48   23  147 1    
    49   23  148 1    
    50   24   25 am   BACKBONE|DICT|INTERRES
    51   24  149 1    
    52   25   26 2    
    53   25   27 1    
    54   27   28 1    
    55   27   29 1    
    56   27  150 1    
    57   28  151 1    
    58   28  152 1    
    59   28  153 1    
    60   29   30 am   BACKBONE|DICT|INTERRES
    61   29  154 1    
    62   30   31 2    
    63   30   32 1    
    64   32   33 1    
    65   32   34 1    
    66   32  155 1    
    67   33  156 1    
    68   33  157 1    
    69   33  158 1    
    70   34   35 am   BACKBONE|DICT|INTERRES
    71   34  159 1    
    72   35   36 2    
    73   35   37 1    
    74   37   38 1    
    75   37   39 1    
    76   37  160 1    
    77   38  161 1    
    78   38  162 1    
    79   38  163 1    
    80   39   40 am   BACKBONE|DICT|INTERRES
    81   39  164 1    
    82   40   41 2    
    83   40   42 1    
    84   42   43 1    
    85   42   44 1    
    86   42  165 1    
    87   43  166 1    
    88   43  167 1    
    89   43  168 1    
    90   44   45 am   BACKBONE|DICT|INTERRES
    91   44  169 1    
    92   45   46 2    
    93   45   47 1    
    94   47   48 1    
    95   47   49 1    
    96   47  170 1    
    97   48  171 1    
    98   48  172 1    
    99   48  173 1    
   100   49   50 am   BACKBONE|DICT|INTERRES
   101   49  174 1    
   102   50   51 2    
   103   50   52 1    
   104   52   53 1    
   105   52   54 1    
   106   52  175 1    
   107   53  176 1    
   108   53  177 1    
   109   53  178 1    
   110   54   55 am   BACKBONE|DICT|INTERRES
   111   54  179 1    
   112   55   56 2    
   113   55   57 1    
   114   57   58 1    
   115   57   59 1    
   116   57  180 1    
   117   58  181 1    
   118   58  182 1    
   119   58  183 1    
   120   59   60 am   BACKBONE|DICT|INTERRES
   121   59  184 1    
   122   60   61 2    
   123   60   62 1    
   124   62   63 1    
   125   62   64 1    
   126   62  185 1    
   127   63  186 1    
   128   63  187 1    
   129   63  188 1    
   130   64   65 am   BACKBONE|DICT|INTERRES
   131   64  189 1    
   132   65   66 2    
   133   67   68 2    
   134   67   69 am   BACKBONE|DICT|INTERRES
   135   69   70 1    
   136   69  190 1    
   137   70   71 1    
   138   70   72 1    
   139   70  191 1    
   140   71  192 1    
   141   71  193 1    
   142   71  194 1    
   143   72   73 2    
   144   72   74 am   BACKBONE|DICT|INTERRES
   145   74   75 1    
   146   74  195 1    
   147   75   76 1    
   148   75   77 1    
   149   75  196 1    
   150   76  197 1    
   151   76  198 1    
   152   76  199 1    
   153   77   78 2    
   154   77   79 am   BACKBONE|DICT|INTERRES
   155   79   80 1    
   156   79  200 1    
   157   80   81 1    
   158   80   82 1    
   159   80  201 1    
   160   81  202 1    
   161   81  203 1    
   162   81  204 1    
   163   82   83 2    
   164   82   84 am   BACKBONE|DICT|INTERRES
   165   84   85 1    
   166   84  205 1    
   167   85   86 1    
   168   85   87 1    
   169   85  206 1    
   170   86  207 1    
   171   86  208 1    
   172   86  209 1    
   173   87   88 2    
   174   87   89 am   BACKBONE|DICT|INTERRES
   175   89   90 1    
   176   89  210 1    
   177   90   91 1    
   178   90   92 1    
   179   90  211 1    
   180   91  212 1    
   181   91  213 1    
   182   91  214 1    
   183   92   93 2    
   184   92   94 am   BACKBONE|DICT|INTERRES
   185   94   95 1    
   186   94  215 1    
   187   95   96 1    
   188   95   97 1    
   189   95  216 1    
   190   96  217 1    
   191   96  218 1    
   192   96  219 1    
   193   97   98 2    
   194   97   99 am   BACKBONE|DICT|INTERRES
   195   99  100 1    
   196   99  220 1    
   197  100  101 1    
   198  100  102 1    
   199  100  221 1    
   200  101  222 1    
   201  101  223 1    
   202  101  224 1    
   203  102  103 2    
   204  102  104 am   BACKBONE|DICT|INTERRES
   205  104  105 1    
   206  104  225 1    
   207  105  106 1    
   208  105  107 1    
   209  105  226 1    
   210  106  227 1    
   211  106  228 1    
   212  106  229 1    
   213  107  108 2    
   214  107  109 am   BACKBONE|DICT|INTERRES
   215  109  110 1    
   216  109  230 1    
   217  110  111 1    
   218  110  112 1    
   219  110  231 1    
   220  111  232 1    
   221  111  233 1    
   222  111  234 1    
   223  112  113 2    
   224  112  114 am   BACKBONE|DICT|INTERRES
   225  114  115 1    
   226  114  235 1    
   227  115  116 1    
   228  115  117 1    
   229  115  236 1    
   230  116  237 1    
   231  116  238 1    
   232  116  239 1    
   233  117  118 2    
   234  117  119 am   BACKBONE|DICT|INTERRES
   235  119  120 1    
   236  119  240 1    
   237  120  121 1    
   238  120  124 1    
   239  120  241 1    
   240  121  122 am   BACKBONE|DICT|INTERRES
   241  121  123 2    
   242  122  242 1    
   243  122  243 1    
   244  124  125 1    
   245  124  244 1    
   246  124  245 1    
   247  125  126 1    
   248  126  246 1    
   249  126  247 1    
@<TRIPOS>SUBSTRUCTURE
     1 UNK         1 GROUP             0       ****    0 ROOT    
