@<TRIPOS>MOLECULE
3R540
247   249    1
SMALL
USER_CHARGES


@<TRIPOS>ATOM
      1 CA          3.5836  -15.9293  -45.1520 C.3       0 UNK        -0.1800 
      2 C           2.8961  -14.5871  -44.9503 C.2       0 UNK         0.5000 
      3 O           3.4002  -13.7471  -44.2054 O.2       0 UNK        -0.5000 
      4 N           1.7509  -14.3738  -45.6132 N.am      1 UNK        -0.5000 
      5 CA          0.9245  -13.1599  -45.5190 C.3       1 UNK         0.1400 
      6 C6         -0.4798  -13.3362  -46.1573 C.3       23 UNK        -0.0398 
      7 S7         -0.4510  -14.0868  -47.8236 S.3       23 UNK        -0.2404 
      8 C8         -1.1078  -15.7508  -47.4793 C.3       23 UNK        -0.0205 
      9 C9         -0.5683  -16.7578  -48.4796 C.ar      23 UNK        -0.0193 
     10 C10        -1.3130  -17.1244  -49.6035 C.ar      23 UNK        -0.1150 
     11 C11        -0.8032  -18.0442  -50.5297 C.ar      23 UNK        -0.0193 
     12 C12         0.4742  -18.5786  -50.3244 C.ar      23 UNK        -0.1150 
     13 C13         1.2301  -18.2133  -49.2063 C.ar      23 UNK        -0.0193 
     14 C14         0.6984  -17.3091  -48.2857 C.ar      23 UNK        -0.1150 
     15 C15         2.6405  -18.7510  -49.0099 C.3       23 UNK        -0.0205 
     16 S16         2.6732  -20.4610  -48.3890 S.3       23 UNK        -0.2404 
     17 C17         1.8243  -20.3239  -46.7770 C.3       23 UNK        -0.0398 
     18 CA          0.7136  -21.3861  -46.6174 C.3       11 UNK         0.1400 
     19 N           0.3526  -21.5894  -45.2138 N.am      11 UNK        -0.5000 
     20 C          -0.3967  -22.6037  -44.7623 C.2       10 UNK         0.5000 
     21 O          -0.8985  -23.4571  -45.4930 O.2       10 UNK        -0.5000 
     22 CA         -0.6635  -22.6443  -43.2506 C.3       10 UNK         0.1400 
     23 CB          0.5931  -23.0693  -42.4747 C.3       10 UNK        -0.1800 
     24 N          -1.1303  -21.3490  -42.7646 N.am      10 UNK        -0.5000 
     25 C          -2.3562  -20.8578  -42.9906 C.2       9 UNK         0.5000 
     26 O          -3.2452  -21.4736  -43.5790 O.2       9 UNK        -0.5000 
     27 CA         -2.6299  -19.4296  -42.4864 C.3       9 UNK         0.1400 
     28 CB         -3.1594  -19.4579  -41.0448 C.3       9 UNK        -0.1800 
     29 N          -1.4542  -18.5597  -42.5482 N.am      9 UNK        -0.5000 
     30 C          -0.8740  -18.1510  -43.6846 C.2       8 UNK         0.5000 
     31 O          -1.2297  -18.5014  -44.8076 O.2       8 UNK        -0.5000 
     32 CA          0.3364  -17.2173  -43.5356 C.3       8 UNK         0.1400 
     33 CB         -0.1405  -15.8238  -43.0994 C.3       8 UNK        -0.1800 
     34 N           1.3478  -17.7041  -42.5940 N.am      8 UNK        -0.5000 
     35 C           1.9149  -18.9223  -42.6084 C.2       7 UNK         0.5000 
     36 O           1.6444  -19.7869  -43.4419 O.2       7 UNK        -0.5000 
     37 CA          2.9589  -19.2518  -41.5216 C.3       7 UNK         0.1400 
     38 CB          4.3587  -19.3535  -42.1468 C.3       7 UNK        -0.1800 
     39 N           3.0084  -18.2873  -40.4234 N.am      7 UNK        -0.5000 
     40 C           2.0473  -18.0773  -39.5128 C.2       6 UNK         0.5000 
     41 O           1.0085  -18.7357  -39.4520 O.2       6 UNK        -0.5000 
     42 CA          2.2705  -16.9035  -38.5346 C.3       6 UNK         0.1400 
     43 CB          2.7678  -17.4228  -37.1771 C.3       6 UNK        -0.1800 
     44 N           3.2100  -15.8888  -39.0325 N.am      6 UNK        -0.5000 
     45 C           3.0130  -15.1343  -40.1224 C.2       5 UNK         0.5000 
     46 O           2.0041  -15.2107  -40.8260 O.2       5 UNK        -0.5000 
     47 CA          4.1725  -14.2125  -40.5331 C.3       5 UNK         0.1400 
     48 CB          5.2246  -15.0049  -41.3260 C.3       5 UNK        -0.1800 
     49 N           3.7050  -13.1109  -41.3680 N.am      5 UNK        -0.5000 
     50 C           3.1651  -11.9733  -40.9133 C.2       4 UNK         0.5000 
     51 O           3.0081  -11.7249  -39.7160 O.2       4 UNK        -0.5000 
     52 CA          2.7548  -10.9396  -41.9869 C.3       4 UNK         0.1400 
     53 CB          2.5703   -9.5146  -41.4254 C.3       4 UNK        -0.1800 
     54 N           3.6644  -10.9407  -43.1385 N.am      4 UNK        -0.5000 
     55 C           4.9803  -10.6744  -43.1486 C.2       3 UNK         0.5000 
     56 O           5.6007  -10.2319  -42.1811 O.2       3 UNK        -0.5000 
     57 CA          5.7473  -10.9933  -44.4477 C.3       3 UNK         0.1400 
     58 CB          6.6923  -12.1860  -44.2246 C.3       3 UNK        -0.1800 
     59 N           4.8507  -11.3231  -45.5572 N.am      3 UNK        -0.5000 
     60 C           4.4311  -10.4596  -46.4917 C.2       2 UNK         0.5000 
     61 O           4.7967   -9.2854  -46.5541 O.2       2 UNK        -0.5000 
     62 CA          3.4185  -10.9952  -47.5249 C.3       2 UNK         0.1400 
     63 CB          4.1472  -11.5121  -48.7744 C.3       2 UNK        -0.1800 
     64 N           2.5660  -12.0623  -46.9948 N.am      2 UNK        -0.5000 
     65 C           1.6353  -11.8945  -46.0444 C.2       1 UNK         0.5000 
     66 O           1.3648  -10.8032  -45.5432 O.2       1 UNK        -0.5000 
     67 C          -0.5199  -21.1169  -47.5061 C.2       11 UNK         0.5000 
     68 O          -0.6073  -21.6836  -48.5937 O.2       11 UNK        -0.5000 
     69 N          -1.4968  -20.3529  -46.9955 N.am      12 UNK        -0.5000 
     70 CA         -2.7808  -20.0972  -47.6545 C.3       12 UNK         0.1400 
     71 CB         -3.5402  -19.0057  -46.8862 C.3       12 UNK        -0.1800 
     72 C          -3.6712  -21.3458  -47.8329 C.2       12 UNK         0.5000 
     73 O          -4.6255  -21.2861  -48.6092 O.2       12 UNK        -0.5000 
     74 N          -3.3617  -22.4453  -47.1336 N.am      13 UNK        -0.5000 
     75 CA         -3.9930  -23.7494  -47.3212 C.3       13 UNK         0.1400 
     76 CB         -4.2694  -24.3803  -45.9471 C.3       13 UNK        -0.1800 
     77 C          -3.1128  -24.6761  -48.1798 C.2       13 UNK         0.5000 
     78 O          -3.6402  -25.3792  -49.0422 O.2       13 UNK        -0.5000 
     79 N          -1.8001  -24.6870  -47.9090 N.am      14 UNK        -0.5000 
     80 CA         -0.8328  -25.6031  -48.5117 C.3       14 UNK         0.1400 
     81 CB          0.4282  -25.6484  -47.6346 C.3       14 UNK        -0.1800 
     82 C          -0.4594  -25.2686  -49.9669 C.2       14 UNK         0.5000 
     83 O          -0.2898  -26.1913  -50.7661 O.2       14 UNK        -0.5000 
     84 N          -0.3009  -23.9774  -50.2866 N.am      15 UNK        -0.5000 
     85 CA          0.0624  -23.5075  -51.6242 C.3       15 UNK         0.1400 
     86 CB          0.5585  -22.0576  -51.5364 C.3       15 UNK        -0.1800 
     87 C          -1.1291  -23.5961  -52.5894 C.2       15 UNK         0.5000 
     88 O          -2.2676  -23.4168  -52.1596 O.2       15 UNK        -0.5000 
     89 N          -0.8380  -23.8337  -53.8759 N.am      16 UNK        -0.5000 
     90 CA         -1.7542  -23.9491  -55.0214 C.3       16 UNK         0.1400 
     91 CB         -2.5294  -22.6386  -55.2644 C.3       16 UNK        -0.1800 
     92 C          -2.7045  -25.1632  -54.9638 C.2       16 UNK         0.5000 
     93 O          -2.7277  -25.9494  -55.9115 O.2       16 UNK        -0.5000 
     94 N          -3.4482  -25.2953  -53.8586 N.am      17 UNK        -0.5000 
     95 CA         -4.4421  -26.3233  -53.5449 C.3       17 UNK         0.1400 
     96 CB         -3.7515  -27.6821  -53.3066 C.3       17 UNK        -0.1800 
     97 C          -5.5755  -26.3864  -54.5903 C.2       17 UNK         0.5000 
     98 O          -5.8681  -27.4581  -55.1262 O.2       17 UNK        -0.5000 
     99 N          -6.1822  -25.2282  -54.8733 N.am      18 UNK        -0.5000 
    100 CA        -7.2634  -25.0660  -55.8411 C.3       18 UNK         0.1400 
    101 CB        -6.6818  -24.5604  -57.1718 C.3       18 UNK        -0.1800 
    102 C         -8.2928  -24.0741  -55.2895 C.2       18 UNK         0.5000 
    103 O         -7.9087  -23.0735  -54.6867 O.2       18 UNK        -0.5000 
    104 N         -9.5827  -24.3308  -55.5440 N.am      19 UNK        -0.5000 
    105 CA       -10.7076  -23.5131  -55.0690 C.3       19 UNK         0.1400 
    106 CB       -12.0232  -24.2306  -55.4088 C.3       19 UNK        -0.1800 
    107 C        -10.7241  -22.0701  -55.6170 C.2       19 UNK         0.5000 
    108 O        -11.3029  -21.1856  -54.9853 O.2       19 UNK        -0.5000 
    109 N        -10.0812  -21.8592  -56.7722 N.am      20 UNK        -0.5000 
    110 CA        -9.9027  -20.5573  -57.4142 C.3       20 UNK         0.1400 
    111 CB        -9.7337  -20.7864  -58.9256 C.3       20 UNK        -0.1800 
    112 C         -8.7104  -19.7520  -56.8528 C.2       20 UNK         0.5000 
    113 O         -8.5292  -18.6027  -57.2589 O.2       20 UNK        -0.5000 
    114 N         -7.9053  -20.3515  -55.9661 N.am      21 UNK        -0.5000 
    115 CA        -6.6898  -19.7693  -55.4042 C.3       21 UNK         0.1400 
    116 CB        -5.4823  -20.2060  -56.2626 C.3       21 UNK        -0.1800 
    117 C         -6.5698  -20.1495  -53.9159 C.2       21 UNK         0.5000 
    118 O         -7.5850  -20.2284  -53.2196 O.2       21 UNK        -0.5000 
    119 N         -5.3331  -20.3463  -53.4488 N.am      22 UNK        -0.5000 
    120 CA        -5.0012  -20.8618  -52.1132 C.3       22 UNK         0.1400 
    121 C         -5.2784  -22.3879  -51.9805 C.2       22 UNK         0.5000 
    122 N         -5.3818  -22.8928  -50.7607 N.am      22 UNK        -0.7600 
    123 O         -5.3797  -23.1235  -52.9598 O.2       22 UNK        -0.5000 
    124 C124       -3.5414  -20.4961  -51.7310 C.3       23 UNK        -0.0398 
    125 S125       -3.3640  -18.6949  -51.4923 S.3       23 UNK        -0.2404 
    126 C126       -1.5857  -18.4069  -51.7904 C.3       23 UNK        -0.0205 
    127 H127        3.5972  -16.4847  -44.2146 H         1 UNK         0.0600 
    128 H128        4.6136  -15.7774  -45.4738 H         1 UNK         0.0600 
    129 H129        3.0790  -16.5387  -45.9009 H         1 UNK         0.0600 
    130 H130        1.4044  -15.0723  -46.2530 H         1 UNK         0.3000 
    131 H131        0.7637  -12.9792  -44.4538 H         1 UNK         0.0600 
    132 H132       -1.0019  -12.3795  -46.2198 H         1 UNK         0.0800 
    133 H133       -1.1026  -13.9459  -45.5041 H         1 UNK         0.0800 
    134 H134       -2.1980  -15.7223  -47.5093 H         1 UNK         0.0800 
    135 H135       -0.8365  -16.0712  -46.4723 H         1 UNK         0.0800 
    136 H136       -2.2860  -16.6820  -49.7627 H         1 UNK         0.1150 
    137 H137        0.8951  -19.2651  -51.0444 H         1 UNK         0.1150 
    138 H138        1.2801  -17.0173  -47.4246 H         1 UNK         0.1150 
    139 H139        3.1724  -18.7155  -49.9617 H         1 UNK         0.0800 
    140 H140        3.2043  -18.1141  -48.3265 H         1 UNK         0.0800 
    141 H141        1.4311  -19.3222  -46.6083 H         1 UNK         0.0800 
    142 H142        2.5865  -20.4710  -46.0105 H         1 UNK         0.0800 
    143 H143        1.1324  -22.3374  -46.9522 H         1 UNK         0.0600 
    144 H144        0.7306  -20.9192  -44.5469 H         1 UNK         0.3000 
    145 H145       -1.4417  -23.3881  -43.0660 H         1 UNK         0.0600 
    146 H146        0.3869  -23.1509  -41.4074 H         1 UNK         0.0600 
    147 H147        0.9462  -24.0444  -42.8125 H         1 UNK         0.0600 
    148 H148        1.4128  -22.3622  -42.6034 H         1 UNK         0.0600 
    149 H149       -0.4497  -20.7565  -42.3124 H         1 UNK         0.3000 
    150 H150       -3.4025  -18.9976  -43.1263 H         1 UNK         0.0600 
    151 H151       -4.0475  -20.0865  -40.9669 H         1 UNK         0.0600 
    152 H152       -3.4387  -18.4596  -40.7076 H         1 UNK         0.0600 
    153 H153       -2.4158  -19.8514  -40.3504 H         1 UNK         0.0600 
    154 H154       -1.0709  -18.2450  -41.6682 H         1 UNK         0.3000 
    155 H155        0.8103  -17.1332  -44.5150 H         1 UNK         0.0600 
    156 H156       -0.5495  -15.8360  -42.0884 H         1 UNK         0.0600 
    157 H157       -0.9216  -15.4505  -43.7609 H         1 UNK         0.0600 
    158 H158        0.6731  -15.1012  -43.1115 H         1 UNK         0.0600 
    159 H159        1.6327  -17.0465  -41.8773 H         1 UNK         0.3000 
    160 H160        2.6949  -20.2262  -41.1057 H         1 UNK         0.0600 
    161 H161        4.6811  -18.4005  -42.5687 H         1 UNK         0.0600 
    162 H162        4.3773  -20.0910  -42.9506 H         1 UNK         0.0600 
    163 H163        5.0994  -19.6627  -41.4091 H         1 UNK         0.0600 
    164 H164        3.8256  -17.6972  -40.3842 H         1 UNK         0.3000 
    165 H165        1.3036  -16.4189  -38.3837 H         1 UNK         0.0600 
    166 H166        2.8498  -16.6141  -36.4507 H         1 UNK         0.0600 
    167 H167        2.0776  -18.1596  -36.7636 H         1 UNK         0.0600 
    168 H168        3.7449  -17.9000  -37.2621 H         1 UNK         0.0600 
    169 H169        4.0682  -15.7807  -38.5108 H         1 UNK         0.3000 
    170 H170        4.6400  -13.8085  -39.6327 H         1 UNK         0.0600 
    171 H171        4.8023  -15.4396  -42.2328 H         1 UNK         0.0600 
    172 H172        5.6381  -15.8200  -40.7312 H         1 UNK         0.0600 
    173 H173        6.0573  -14.3658  -41.6205 H         1 UNK         0.0600 
    174 H174        3.7191  -13.2708  -42.3716 H         1 UNK         0.3000 
    175 H175        1.7874  -11.2702  -42.3675 H         1 UNK         0.0600 
    176 H176        1.7857   -9.4925  -40.6683 H         1 UNK         0.0600 
    177 H177        3.4820   -9.1387  -40.9606 H         1 UNK         0.0600 
    178 H178        2.2812   -8.8168  -42.2113 H         1 UNK         0.0600 
    179 H179        3.2709  -11.3109  -43.9917 H         1 UNK         0.3000 
    180 H180        6.3522  -10.1195  -44.6979 H         1 UNK         0.0600 
    181 H181        6.1438  -13.0891  -43.9533 H         1 UNK         0.0600 
    182 H182        7.4023  -11.9805  -43.4225 H         1 UNK         0.0600 
    183 H183        7.2718  -12.4027  -45.1221 H         1 UNK         0.0600 
    184 H184        4.4801  -12.2642  -45.5617 H         1 UNK         0.3000 
    185 H185        2.7769  -10.1629  -47.8221 H         1 UNK         0.0600 
    186 H186        4.7729  -10.7329  -49.2119 H         1 UNK         0.0600 
    187 H187        4.7929  -12.3601  -48.5426 H         1 UNK         0.0600 
    188 H188        3.4397  -11.8278  -49.5415 H         1 UNK         0.0600 
    189 H189        2.7196  -12.9923  -47.3563 H         1 UNK         0.3000 
    190 H190       -1.3518  -19.8862  -46.1036 H         1 UNK         0.3000 
    191 H191       -2.5640  -19.7169  -48.6541 H         1 UNK         0.0600 
    192 H192       -2.9673  -18.0798  -46.8505 H         1 UNK         0.0600 
    193 H193       -4.4922  -18.7762  -47.3664 H         1 UNK         0.0600 
    194 H194       -3.7515  -19.3119  -45.8609 H         1 UNK         0.0600 
    195 H195       -2.5653  -22.4154  -46.5106 H         1 UNK         0.3000 
    196 H196       -4.9531  -23.6384  -47.8289 H         1 UNK         0.0600 
    197 H197       -4.9244  -23.7461  -45.3494 H         1 UNK         0.0600 
    198 H198       -4.7610  -25.3479  -46.0546 H         1 UNK         0.0600 
    199 H199       -3.3529  -24.5393  -45.3784 H         1 UNK         0.0600 
    200 H200       -1.4546  -24.1144  -47.1439 H         1 UNK         0.3000 
    201 H201       -1.2732  -26.6026  -48.5099 H         1 UNK         0.0600 
    202 H202        0.1913  -25.9653  -46.6187 H         1 UNK         0.0600 
    203 H203        0.9116  -24.6729  -47.5764 H         1 UNK         0.0600 
    204 H204        1.1580  -26.3538  -48.0338 H         1 UNK         0.0600 
    205 H205       -0.4985  -23.2569  -49.5958 H         1 UNK         0.3000 
    206 H206        0.8765  -24.1297  -52.0020 H         1 UNK         0.0600 
    207 H207        1.3867  -21.9630  -50.8341 H         1 UNK         0.0600 
    208 H208        0.9082  -21.7011  -52.5058 H         1 UNK         0.0600 
    209 H209       -0.2376  -21.3883  -51.2087 H         1 UNK         0.0600 
    210 H210        0.1339  -23.9824  -54.1092 H         1 UNK         0.3000 
    211 H211       -1.1109  -24.1024  -55.8894 H         1 UNK         0.0600 
    212 H212       -3.2145  -22.4108  -54.4490 H         1 UNK         0.0600 
    213 H213       -3.1248  -22.7052  -56.1758 H         1 UNK         0.0600 
    214 H214       -1.8511  -21.7932  -55.3786 H         1 UNK         0.0600 
    215 H215       -3.3420  -24.5651  -53.1559 H         1 UNK         0.3000 
    216 H216       -4.9063  -26.0207  -52.6052 H         1 UNK         0.0600 
    217 H217       -4.4699  -28.4318  -52.9732 H         1 UNK         0.0600 
    218 H218       -2.9847  -27.6020  -52.5357 H         1 UNK         0.0600 
    219 H219       -3.2778  -28.0615  -54.2125 H         1 UNK         0.0600 
    220 H220       -5.9380  -24.3942  -54.3392 H         1 UNK         0.3000 
    221 H221       -7.7655  -26.0209  -56.0101 H         1 UNK         0.0600 
    222 H222       -6.1761  -23.6015  -57.0498 H         1 UNK         0.0600 
    223 H223       -5.9595  -25.2683  -57.5790 H         1 UNK         0.0600 
    224 H224       -7.4655  -24.4280  -57.9186 H         1 UNK         0.0600 
    225 H225       -9.8239  -25.1618  -56.0651 H         1 UNK         0.3000 
    226 H226      -10.6288  -23.4424  -53.9821 H         1 UNK         0.0600 
    227 H227      -12.0663  -25.2172  -54.9471 H         1 UNK         0.0600 
    228 H228      -12.8825  -23.6660  -55.0444 H         1 UNK         0.0600 
    229 H229      -12.1459  -24.3563  -56.4853 H         1 UNK         0.0600 
    230 H230       -9.6363  -22.6473  -57.2186 H         1 UNK         0.3000 
    231 H231      -10.8019  -19.9570  -57.2606 H         1 UNK         0.0600 
    232 H232      -10.5922  -21.3126  -59.3434 H         1 UNK         0.0600 
    233 H233       -8.8401  -21.3718  -59.1459 H         1 UNK         0.0600 
    234 H234       -9.6455  -19.8394  -59.4596 H         1 UNK         0.0600 
    235 H235       -8.1430  -21.2710  -55.6059 H         1 UNK         0.3000 
    236 H236       -6.7562  -18.6799  -55.4306 H         1 UNK         0.0600 
    237 H237       -4.5656  -19.7019  -55.9554 H         1 UNK         0.0600 
    238 H238       -5.3150  -21.2820  -56.1970 H         1 UNK         0.0600 
    239 H239       -5.6384  -19.9600  -57.3131 H         1 UNK         0.0600 
    240 H240       -4.5610  -20.2686  -54.0918 H         1 UNK         0.3000 
    241 H241       -5.6659  -20.3732  -51.3976 H         1 UNK         0.0600 
    242 H242       -5.2305  -22.3044  -49.9427 H         1 UNK         0.3800 
    243 H243       -5.5237  -23.8827  -50.6488 H         1 UNK         0.3800 
    244 H244       -3.2258  -20.9956  -50.8149 H         1 UNK         0.0800 
    245 H245       -2.8550  -20.8331  -52.5082 H         1 UNK         0.0800 
    246 H246       -1.4880  -17.5811  -52.4960 H         1 UNK         0.0800 
    247 H247       -1.1447  -19.2759  -52.2800 H         1 UNK         0.0800 
@<TRIPOS>BOND
     1    1    2 1    
     2    1  127 1    
     3    1  128 1    
     4    1  129 1    
     5    2    3 2    
     6    2    4 am   BACKBONE|DICT|INTERRES
     7    4    5 1    
     8    4  130 1    
     9    5    6 1    
    10    5   65 1    
    11    5  131 1    
    12    6    7 1    
    13    6  132 1    
    14    6  133 1    
    15    7    8 1    
    16    8    9 1    
    17    8  134 1    
    18    8  135 1    
    19    9   10 ar   
    20    9   14 ar   
    21   10   11 ar   
    22   10  136 1    
    23   11   12 ar   
    24   11  126 1    
    25   12   13 ar   
    26   12  137 1    
    27   13   14 ar   
    28   13   15 1    
    29   14  138 1    
    30   15   16 1    
    31   15  139 1    
    32   15  140 1    
    33   16   17 1    
    34   17   18 1    
    35   17  141 1    
    36   17  142 1    
    37   18   19 1    
    38   18   67 1    
    39   18  143 1    
    40   19   20 am   BACKBONE|DICT|INTERRES
    41   19  144 1    
    42   20   21 2    
    43   20   22 1    
    44   22   23 1    
    45   22   24 1    
    46   22  145 1    
    47   23  146 1    
    48   23  147 1    
    49   23  148 1    
    50   24   25 am   BACKBONE|DICT|INTERRES
    51   24  149 1    
    52   25   26 2    
    53   25   27 1    
    54   27   28 1    
    55   27   29 1    
    56   27  150 1    
    57   28  151 1    
    58   28  152 1    
    59   28  153 1    
    60   29   30 am   BACKBONE|DICT|INTERRES
    61   29  154 1    
    62   30   31 2    
    63   30   32 1    
    64   32   33 1    
    65   32   34 1    
    66   32  155 1    
    67   33  156 1    
    68   33  157 1    
    69   33  158 1    
    70   34   35 am   BACKBONE|DICT|INTERRES
    71   34  159 1    
    72   35   36 2    
    73   35   37 1    
    74   37   38 1    
    75   37   39 1    
    76   37  160 1    
    77   38  161 1    
    78   38  162 1    
    79   38  163 1    
    80   39   40 am   BACKBONE|DICT|INTERRES
    81   39  164 1    
    82   40   41 2    
    83   40   42 1    
    84   42   43 1    
    85   42   44 1    
    86   42  165 1    
    87   43  166 1    
    88   43  167 1    
    89   43  168 1    
    90   44   45 am   BACKBONE|DICT|INTERRES
    91   44  169 1    
    92   45   46 2    
    93   45   47 1    
    94   47   48 1    
    95   47   49 1    
    96   47  170 1    
    97   48  171 1    
    98   48  172 1    
    99   48  173 1    
   100   49   50 am   BACKBONE|DICT|INTERRES
   101   49  174 1    
   102   50   51 2    
   103   50   52 1    
   104   52   53 1    
   105   52   54 1    
   106   52  175 1    
   107   53  176 1    
   108   53  177 1    
   109   53  178 1    
   110   54   55 am   BACKBONE|DICT|INTERRES
   111   54  179 1    
   112   55   56 2    
   113   55   57 1    
   114   57   58 1    
   115   57   59 1    
   116   57  180 1    
   117   58  181 1    
   118   58  182 1    
   119   58  183 1    
   120   59   60 am   BACKBONE|DICT|INTERRES
   121   59  184 1    
   122   60   61 2    
   123   60   62 1    
   124   62   63 1    
   125   62   64 1    
   126   62  185 1    
   127   63  186 1    
   128   63  187 1    
   129   63  188 1    
   130   64   65 am   BACKBONE|DICT|INTERRES
   131   64  189 1    
   132   65   66 2    
   133   67   68 2    
   134   67   69 am   BACKBONE|DICT|INTERRES
   135   69   70 1    
   136   69  190 1    
   137   70   71 1    
   138   70   72 1    
   139   70  191 1    
   140   71  192 1    
   141   71  193 1    
   142   71  194 1    
   143   72   73 2    
   144   72   74 am   BACKBONE|DICT|INTERRES
   145   74   75 1    
   146   74  195 1    
   147   75   76 1    
   148   75   77 1    
   149   75  196 1    
   150   76  197 1    
   151   76  198 1    
   152   76  199 1    
   153   77   78 2    
   154   77   79 am   BACKBONE|DICT|INTERRES
   155   79   80 1    
   156   79  200 1    
   157   80   81 1    
   158   80   82 1    
   159   80  201 1    
   160   81  202 1    
   161   81  203 1    
   162   81  204 1    
   163   82   83 2    
   164   82   84 am   BACKBONE|DICT|INTERRES
   165   84   85 1    
   166   84  205 1    
   167   85   86 1    
   168   85   87 1    
   169   85  206 1    
   170   86  207 1    
   171   86  208 1    
   172   86  209 1    
   173   87   88 2    
   174   87   89 am   BACKBONE|DICT|INTERRES
   175   89   90 1    
   176   89  210 1    
   177   90   91 1    
   178   90   92 1    
   179   90  211 1    
   180   91  212 1    
   181   91  213 1    
   182   91  214 1    
   183   92   93 2    
   184   92   94 am   BACKBONE|DICT|INTERRES
   185   94   95 1    
   186   94  215 1    
   187   95   96 1    
   188   95   97 1    
   189   95  216 1    
   190   96  217 1    
   191   96  218 1    
   192   96  219 1    
   193   97   98 2    
   194   97   99 am   BACKBONE|DICT|INTERRES
   195   99  100 1    
   196   99  220 1    
   197  100  101 1    
   198  100  102 1    
   199  100  221 1    
   200  101  222 1    
   201  101  223 1    
   202  101  224 1    
   203  102  103 2    
   204  102  104 am   BACKBONE|DICT|INTERRES
   205  104  105 1    
   206  104  225 1    
   207  105  106 1    
   208  105  107 1    
   209  105  226 1    
   210  106  227 1    
   211  106  228 1    
   212  106  229 1    
   213  107  108 2    
   214  107  109 am   BACKBONE|DICT|INTERRES
   215  109  110 1    
   216  109  230 1    
   217  110  111 1    
   218  110  112 1    
   219  110  231 1    
   220  111  232 1    
   221  111  233 1    
   222  111  234 1    
   223  112  113 2    
   224  112  114 am   BACKBONE|DICT|INTERRES
   225  114  115 1    
   226  114  235 1    
   227  115  116 1    
   228  115  117 1    
   229  115  236 1    
   230  116  237 1    
   231  116  238 1    
   232  116  239 1    
   233  117  118 2    
   234  117  119 am   BACKBONE|DICT|INTERRES
   235  119  120 1    
   236  119  240 1    
   237  120  121 1    
   238  120  124 1    
   239  120  241 1    
   240  121  122 am   BACKBONE|DICT|INTERRES
   241  121  123 2    
   242  122  242 1    
   243  122  243 1    
   244  124  125 1    
   245  124  244 1    
   246  124  245 1    
   247  125  126 1    
   248  126  246 1    
   249  126  247 1    
@<TRIPOS>SUBSTRUCTURE
     1 UNK         1 GROUP             0       ****    0 ROOT    
