@<TRIPOS>MOLECULE
3R540
247   249    1
SMALL
USER_CHARGES


@<TRIPOS>ATOM
      1 CA          0.6192  -17.7434  -49.3755 C.3       0 UNK        -0.1800 
      2 C           0.7446  -16.2308  -49.3563 C.2       0 UNK         0.5000 
      3 O           1.1467  -15.6592  -48.3446 O.2       0 UNK        -0.5000 
      4 N           0.4008  -15.5858  -50.4778 N.am      1 UNK        -0.5000 
      5 CA          0.4858  -14.1419  -50.7518 C.3       1 UNK         0.1400 
      6 C6          1.8943  -13.5270  -50.5256 C.3       23 UNK        -0.0398 
      7 S7          3.1636  -14.1887  -51.6613 S.3       23 UNK        -0.2404 
      8 C8          4.1000  -15.3775  -50.6263 C.3       23 UNK        -0.0205 
      9 C9          3.7884  -16.8563  -50.8767 C.ar      23 UNK        -0.0193 
     10 C10         3.2800  -17.3135  -52.0989 C.ar      23 UNK        -0.1150 
     11 C11         3.0203  -18.6736  -52.3149 C.ar      23 UNK        -0.0193 
     12 C12         3.2857  -19.5823  -51.2850 C.ar      23 UNK        -0.1150 
     13 C13         3.8184  -19.1523  -50.0668 C.ar      23 UNK        -0.0193 
     14 C14         4.0656  -17.7893  -49.8717 C.ar      23 UNK        -0.1150 
     15 C15         4.1872  -20.1625  -48.9862 C.3       23 UNK        -0.0205 
     16 S16         3.1915  -19.9826  -47.4726 S.3       23 UNK        -0.2404 
     17 C17         1.7024  -20.9779  -47.8284 C.3       23 UNK        -0.0398 
     18 CA          1.6999  -22.3391  -47.0824 C.3       11 UNK         0.1400 
     19 N           1.8982  -22.1748  -45.6387 N.am      11 UNK        -0.5000 
     20 C           2.3728  -23.1085  -44.8068 C.2       10 UNK         0.5000 
     21 O           2.7766  -24.2136  -45.1761 O.2       10 UNK        -0.5000 
     22 CA          2.3982  -22.7178  -43.3136 C.3       10 UNK         0.1400 
     23 CB          3.0570  -23.7799  -42.4084 C.3       10 UNK        -0.1800 
     24 N           2.9900  -21.3935  -43.0954 N.am      10 UNK        -0.5000 
     25 C           4.2483  -21.0043  -43.3491 C.2       9 UNK         0.5000 
     26 O           5.1307  -21.7574  -43.7632 O.2       9 UNK        -0.5000 
     27 CA          4.5927  -19.5217  -43.0982 C.3       9 UNK         0.1400 
     28 CB          4.8241  -18.7809  -44.4232 C.3       9 UNK        -0.1800 
     29 N           3.5732  -18.8006  -42.3328 N.am      9 UNK        -0.5000 
     30 C           3.4528  -18.8390  -40.9998 C.2       8 UNK         0.5000 
     31 O           4.1868  -19.5010  -40.2650 O.2       8 UNK        -0.5000 
     32 CA          2.3148  -18.0031  -40.3847 C.3       8 UNK         0.1400 
     33 CB          2.7025  -16.5178  -40.3179 C.3       8 UNK        -0.1800 
     34 N           1.0485  -18.1444  -41.1047 N.am      8 UNK        -0.5000 
     35 C           0.3186  -19.2685  -41.1417 C.2       7 UNK         0.5000 
     36 O           0.6350  -20.3108  -40.5682 O.2       7 UNK        -0.5000 
     37 CA         -0.9728  -19.2307  -41.9783 C.3       7 UNK         0.1400 
     38 CB         -2.1132  -18.5642  -41.1942 C.3       7 UNK        -0.1800 
     39 N          -0.7932  -18.5437  -43.2551 N.am      7 UNK        -0.5000 
     40 C          -0.0157  -18.9877  -44.2523 C.2       6 UNK         0.5000 
     41 O           0.5980  -20.0531  -44.2268 O.2       6 UNK        -0.5000 
     42 CA          0.1188  -18.0732  -45.4774 C.3       6 UNK         0.1400 
     43 CB         -1.1201  -18.2171  -46.3721 C.3       6 UNK        -0.1800 
     44 N           0.2986  -16.6717  -45.1140 N.am      6 UNK        -0.5000 
     45 C           1.3090  -16.1774  -44.3869 C.2       5 UNK         0.5000 
     46 O           2.2280  -16.8556  -43.9305 O.2       5 UNK        -0.5000 
     47 CA          1.2403  -14.6780  -44.0566 C.3       5 UNK         0.1400 
     48 CB          1.7276  -13.8259  -45.2387 C.3       5 UNK        -0.1800 
     49 N          -0.1122  -14.2712  -43.6753 N.am      5 UNK        -0.5000 
     50 C          -0.7323  -14.6626  -42.5529 C.2       4 UNK         0.5000 
     51 O          -0.2127  -15.3784  -41.6959 O.2       4 UNK        -0.5000 
     52 CA         -2.1923  -14.2048  -42.3816 C.3       4 UNK         0.1400 
     53 CB         -2.2519  -12.7698  -41.8368 C.3       4 UNK        -0.1800 
     54 N          -2.9539  -14.2838  -43.6299 N.am      4 UNK        -0.5000 
     55 C          -3.2954  -15.4330  -44.2291 C.2       3 UNK         0.5000 
     56 O          -3.0254  -16.5457  -43.7762 O.2       3 UNK        -0.5000 
     57 CA         -4.0220  -15.3189  -45.5849 C.3       3 UNK         0.1400 
     58 CB         -5.5328  -15.1375  -45.3782 C.3       3 UNK        -0.1800 
     59 N          -3.5160  -14.2496  -46.4565 N.am      3 UNK        -0.5000 
     60 C          -2.2523  -14.1743  -46.8917 C.2       2 UNK         0.5000 
     61 O          -1.3620  -14.9325  -46.5103 O.2       2 UNK        -0.5000 
     62 CA         -1.9067  -13.0806  -47.9078 C.3       2 UNK         0.1400 
     63 CB         -1.4555  -11.7924  -47.2014 C.3       2 UNK        -0.1800 
     64 N          -0.8242  -13.5955  -48.7383 N.am      2 UNK        -0.5000 
     65 C          -0.6075  -13.3234  -50.0270 C.2       1 UNK         0.5000 
     66 O          -1.2519  -12.4851  -50.6587 O.2       1 UNK        -0.5000 
     67 C           0.3998  -23.1316  -47.3589 C.2       11 UNK         0.5000 
     68 O          -0.4050  -23.3486  -46.4494 O.2       11 UNK        -0.5000 
     69 N           0.1918  -23.5286  -48.6224 N.am      12 UNK        -0.5000 
     70 CA         -0.9041  -24.3863  -49.1017 C.3       12 UNK         0.1400 
     71 CB         -0.5760  -24.8341  -50.5369 C.3       12 UNK        -0.1800 
     72 C          -2.3337  -23.7962  -49.0239 C.2       12 UNK         0.5000 
     73 O          -3.2567  -24.3755  -49.5997 O.2       12 UNK        -0.5000 
     74 N          -2.5223  -22.6743  -48.3171 N.am      13 UNK        -0.5000 
     75 CA         -3.8047  -21.9892  -48.1303 C.3       13 UNK         0.1400 
     76 CB         -3.5750  -20.6772  -47.3687 C.3       13 UNK        -0.1800 
     77 C          -4.8852  -22.8401  -47.4391 C.2       13 UNK         0.5000 
     78 O          -6.0704  -22.6503  -47.7098 O.2       13 UNK        -0.5000 
     79 N          -4.4588  -23.7996  -46.6065 N.am      14 UNK        -0.5000 
     80 CA         -5.3240  -24.7922  -45.9661 C.3       14 UNK         0.1400 
     81 CB         -4.4928  -25.6011  -44.9589 C.3       14 UNK        -0.1800 
     82 C          -6.0258  -25.7343  -46.9672 C.2       14 UNK         0.5000 
     83 O          -7.1177  -26.2203  -46.6700 O.2       14 UNK        -0.5000 
     84 N          -5.3973  -25.9656  -48.1282 N.am      15 UNK        -0.5000 
     85 CA         -5.9470  -26.7559  -49.2272 C.3       15 UNK         0.1400 
     86 CB         -4.8248  -27.6044  -49.8469 C.3       15 UNK        -0.1800 
     87 C          -6.5919  -25.8549  -50.2935 C.2       15 UNK         0.5000 
     88 O          -7.6644  -26.1874  -50.7991 O.2       15 UNK        -0.5000 
     89 N          -5.9246  -24.7413  -50.6282 N.am      16 UNK        -0.5000 
     90 CA         -6.3175  -23.8356  -51.7092 C.3       16 UNK         0.1400 
     91 CB         -5.1130  -22.9598  -52.0850 C.3       16 UNK        -0.1800 
     92 C          -7.5302  -22.9427  -51.3874 C.2       16 UNK         0.5000 
     93 O          -8.1594  -22.4440  -52.3208 O.2       16 UNK        -0.5000 
     94 N          -7.8036  -22.7028  -50.0960 N.am      17 UNK        -0.5000 
     95 CA         -8.8095  -21.7964  -49.5157 C.3       17 UNK         0.1400 
     96 CB        -10.2366  -22.1326  -49.9894 C.3       17 UNK        -0.1800 
     97 C          -8.4834  -20.2988  -49.7033 C.2       17 UNK         0.5000 
     98 O          -8.6883  -19.5126  -48.7771 O.2       17 UNK        -0.5000 
     99 N          -7.9405  -19.9371  -50.8717 N.am      18 UNK        -0.5000 
    100 CA        -7.2264  -18.6885  -51.1372 C.3       18 UNK         0.1400 
    101 CB        -7.0879  -18.5338  -52.6615 C.3       18 UNK        -0.1800 
    102 C         -5.8399  -18.6920  -50.4572 C.2       18 UNK         0.5000 
    103 O         -5.4560  -19.6885  -49.8410 O.2       18 UNK        -0.5000 
    104 N         -5.0837  -17.5952  -50.5996 N.am      19 UNK        -0.5000 
    105 CA        -3.7146  -17.4396  -50.0928 C.3       19 UNK         0.1400 
    106 CB        -3.3558  -15.9452  -50.0749 C.3       19 UNK        -0.1800 
    107 C         -2.6900  -18.2893  -50.8814 C.2       19 UNK         0.5000 
    108 O         -1.8050  -17.7465  -51.5474 O.2       19 UNK        -0.5000 
    109 N         -2.8540  -19.6155  -50.7853 N.am      20 UNK        -0.5000 
    110 CA        -2.1538  -20.6769  -51.5104 C.3       20 UNK         0.1400 
    111 CB        -0.6498  -20.6786  -51.1601 C.3       20 UNK        -0.1800 
    112 C         -2.4341  -20.6168  -53.0272 C.2       20 UNK         0.5000 
    113 O         -3.3766  -19.9486  -53.4613 O.2       20 UNK        -0.5000 
    114 N         -1.6013  -21.3031  -53.8219 N.am      21 UNK        -0.5000 
    115 CA        -1.6395  -21.2791  -55.2907 C.3       21 UNK         0.1400 
    116 CB        -0.6439  -22.3189  -55.8273 C.3       21 UNK        -0.1800 
    117 C         -1.3425  -19.8867  -55.8907 C.2       21 UNK         0.5000 
    118 O         -1.6958  -19.6257  -57.0410 O.2       21 UNK        -0.5000 
    119 N         -0.7127  -19.0243  -55.0861 N.am      22 UNK        -0.5000 
    120 CA        -0.4407  -17.6107  -55.3660 C.3       22 UNK         0.1400 
    121 C         -1.6692  -16.6759  -55.1511 C.2       22 UNK         0.5000 
    122 N         -2.7986  -17.1476  -54.6335 N.am      22 UNK        -0.7600 
    123 O         -1.6013  -15.4953  -55.4812 O.2       22 UNK        -0.5000 
    124 C124        0.7903  -17.1208  -54.5610 C.3       23 UNK        -0.0398 
    125 S125        2.3126  -18.0270  -55.0141 S.3       23 UNK        -0.2404 
    126 C126        2.4772  -19.2218  -53.6377 C.3       23 UNK        -0.0205 
    127 H127        0.9182  -18.1419  -50.3430 H         1 UNK         0.0600 
    128 H128       -0.4035  -18.0542  -49.1806 H         1 UNK         0.0600 
    129 H129        1.2629  -18.1781  -48.6150 H         1 UNK         0.0600 
    130 H130        0.0099  -16.1363  -51.2311 H         1 UNK         0.3000 
    131 H131        0.2638  -14.0486  -51.8163 H         1 UNK         0.0600 
    132 H132        1.8587  -12.4510  -50.7055 H         1 UNK         0.0800 
    133 H133        2.2183  -13.6330  -49.4902 H         1 UNK         0.0800 
    134 H134        3.9486  -15.1422  -49.5720 H         1 UNK         0.0800 
    135 H135        5.1624  -15.2260  -50.8202 H         1 UNK         0.0800 
    136 H136        3.0970  -16.6010  -52.8866 H         1 UNK         0.1150 
    137 H137        3.1004  -20.6354  -51.4442 H         1 UNK         0.1150 
    138 H138        4.4816  -17.4564  -48.9310 H         1 UNK         0.1150 
    139 H139        4.1104  -21.1858  -49.3566 H         1 UNK         0.0800 
    140 H140        5.2359  -20.0167  -48.7240 H         1 UNK         0.0800 
    141 H141        1.6284  -21.1201  -48.9072 H         1 UNK         0.0800 
    142 H142        0.8320  -20.3885  -47.5404 H         1 UNK         0.0800 
    143 H143        2.5291  -22.9337  -47.4717 H         1 UNK         0.0600 
    144 H144        1.5357  -21.3187  -45.2269 H         1 UNK         0.3000 
    145 H145        1.3546  -22.6331  -43.0067 H         1 UNK         0.0600 
    146 H146        3.0364  -23.4725  -41.3628 H         1 UNK         0.0600 
    147 H147        2.5276  -24.7308  -42.4775 H         1 UNK         0.0600 
    148 H148        4.0954  -23.9652  -42.6838 H         1 UNK         0.0600 
    149 H149        2.3354  -20.6753  -42.8146 H         1 UNK         0.3000 
    150 H150        5.5306  -19.5026  -42.5392 H         1 UNK         0.0600 
    151 H151        5.5543  -19.2974  -45.0475 H         1 UNK         0.0600 
    152 H152        5.1978  -17.7718  -44.2495 H         1 UNK         0.0600 
    153 H153        3.9004  -18.6972  -44.9947 H         1 UNK         0.0600 
    154 H154        2.9570  -18.1901  -42.8667 H         1 UNK         0.3000 
    155 H155        2.1602  -18.3557  -39.3628 H         1 UNK         0.0600 
    156 H156        3.6360  -16.3812  -39.7706 H         1 UNK         0.0600 
    157 H157        1.9368  -15.9341  -39.8065 H         1 UNK         0.0600 
    158 H158        2.8381  -16.0906  -41.3120 H         1 UNK         0.0600 
    159 H159        0.7026  -17.3199  -41.5826 H         1 UNK         0.3000 
    160 H160       -1.2632  -20.2620  -42.1899 H         1 UNK         0.0600 
    161 H161       -1.9001  -17.5152  -40.9854 H         1 UNK         0.0600 
    162 H162       -2.2761  -19.0644  -40.2388 H         1 UNK         0.0600 
    163 H163       -3.0504  -18.6092  -41.7493 H         1 UNK         0.0600 
    164 H164       -1.3060  -17.6781  -43.3843 H         1 UNK         0.3000 
    165 H165        1.0015  -18.3751  -46.0431 H         1 UNK         0.0600 
    166 H166       -1.1394  -17.4643  -47.1568 H         1 UNK         0.0600 
    167 H167       -1.1266  -19.1954  -46.8488 H         1 UNK         0.0600 
    168 H168       -2.0478  -18.1169  -45.8080 H         1 UNK         0.0600 
    169 H169       -0.3785  -16.0171  -45.5023 H         1 UNK         0.3000 
    170 H170        1.9028  -14.4918  -43.2086 H         1 UNK         0.0600 
    171 H171        2.7440  -14.1014  -45.5226 H         1 UNK         0.0600 
    172 H172        1.0993  -13.9554  -46.1200 H         1 UNK         0.0600 
    173 H173        1.7355  -12.7659  -44.9853 H         1 UNK         0.0600 
    174 H174       -0.6344  -13.7422  -44.3570 H         1 UNK         0.3000 
    175 H175       -2.6639  -14.8658  -41.6510 H         1 UNK         0.0600 
    176 H176       -1.7031  -12.6867  -40.8977 H         1 UNK         0.0600 
    177 H177       -1.8181  -12.0532  -42.5353 H         1 UNK         0.0600 
    178 H178       -3.2800  -12.4661  -41.6389 H         1 UNK         0.0600 
    179 H179       -3.2095  -13.4131  -44.0716 H         1 UNK         0.3000 
    180 H180       -3.8675  -16.2637  -46.1106 H         1 UNK         0.0600 
    181 H181       -5.9389  -15.9301  -44.7481 H         1 UNK         0.0600 
    182 H182       -5.7625  -14.1856  -44.8979 H         1 UNK         0.0600 
    183 H183       -6.0679  -15.1736  -46.3274 H         1 UNK         0.0600 
    184 H184       -4.1951  -13.5815  -46.7915 H         1 UNK         0.3000 
    185 H185       -2.7857  -12.8815  -48.5243 H         1 UNK         0.0600 
    186 H186       -2.2464  -11.3976  -46.5628 H         1 UNK         0.0600 
    187 H187       -0.5789  -11.9631  -46.5751 H         1 UNK         0.0600 
    188 H188       -1.2029  -11.0161  -47.9237 H         1 UNK         0.0600 
    189 H189       -0.2657  -14.3264  -48.2991 H         1 UNK         0.3000 
    190 H190        0.8904  -23.3043  -49.3156 H         1 UNK         0.3000 
    191 H191       -0.9141  -25.2779  -48.4717 H         1 UNK         0.0600 
    192 H192       -0.5745  -23.9932  -51.2305 H         1 UNK         0.0600 
    193 H193       -1.3051  -25.5583  -50.9035 H         1 UNK         0.0600 
    194 H194        0.4010  -25.3150  -50.5883 H         1 UNK         0.0600 
    195 H195       -1.7357  -22.3243  -47.7878 H         1 UNK         0.3000 
    196 H196       -4.1861  -21.7516  -49.1216 H         1 UNK         0.0600 
    197 H197       -4.5177  -20.1597  -47.1845 H         1 UNK         0.0600 
    198 H198       -2.9494  -20.0012  -47.9485 H         1 UNK         0.0600 
    199 H199       -3.0966  -20.8469  -46.4033 H         1 UNK         0.0600 
    200 H200       -3.4664  -23.8814  -46.4370 H         1 UNK         0.3000 
    201 H201       -6.1017  -24.2559  -45.4184 H         1 UNK         0.0600 
    202 H202       -5.1117  -26.3358  -44.4420 H         1 UNK         0.0600 
    203 H203       -3.6815  -26.1413  -45.4487 H         1 UNK         0.0600 
    204 H204       -4.0551  -24.9543  -44.1982 H         1 UNK         0.0600 
    205 H205       -4.5204  -25.4941  -48.3104 H         1 UNK         0.3000 
    206 H206       -6.7141  -27.4385  -48.8551 H         1 UNK         0.0600 
    207 H207       -4.3950  -28.2841  -49.1110 H         1 UNK         0.0600 
    208 H208       -5.2044  -28.2128  -50.6687 H         1 UNK         0.0600 
    209 H209       -4.0176  -26.9860  -50.2417 H         1 UNK         0.0600 
    210 H210       -5.0210  -24.5647  -50.1976 H         1 UNK         0.3000 
    211 H211       -6.5787  -24.4409  -52.5798 H         1 UNK         0.0600 
    212 H212       -5.3319  -22.3466  -52.9604 H         1 UNK         0.0600 
    213 H213       -4.2368  -23.5640  -52.3212 H         1 UNK         0.0600 
    214 H214       -4.8501  -22.2825  -51.2738 H         1 UNK         0.0600 
    215 H215       -7.1644  -23.0891  -49.4093 H         1 UNK         0.3000 
    216 H216       -8.7739  -21.9849  -48.4416 H         1 UNK         0.0600 
    217 H217      -10.9733  -21.5499  -49.4353 H         1 UNK         0.0600 
    218 H218      -10.4672  -23.1859  -49.8294 H         1 UNK         0.0600 
    219 H219      -10.3819  -21.9125  -51.0471 H         1 UNK         0.0600 
    220 H220       -7.8428  -20.6677  -51.5681 H         1 UNK         0.3000 
    221 H221       -7.8065  -17.8536  -50.7396 H         1 UNK         0.0600 
    222 H222       -6.4633  -19.3202  -53.0889 H         1 UNK         0.0600 
    223 H223       -8.0606  -18.5763  -53.1521 H         1 UNK         0.0600 
    224 H224       -6.6372  -17.5771  -52.9269 H         1 UNK         0.0600 
    225 H225       -5.4432  -16.8254  -51.1447 H         1 UNK         0.3000 
    226 H226       -3.6913  -17.7888  -49.0581 H         1 UNK         0.0600 
    227 H227       -4.0620  -15.3744  -49.4719 H         1 UNK         0.0600 
    228 H228       -2.3683  -15.7983  -49.6399 H         1 UNK         0.0600 
    229 H229       -3.3430  -15.5174  -51.0782 H         1 UNK         0.0600 
    230 H230       -3.6976  -19.9068  -50.2971 H         1 UNK         0.3000 
    231 H231       -2.5759  -21.6169  -51.1571 H         1 UNK         0.0600 
    232 H232       -0.5039  -20.6285  -50.0814 H         1 UNK         0.0600 
    233 H233       -0.1298  -19.8316  -51.6063 H         1 UNK         0.0600 
    234 H234       -0.1557  -21.5860  -51.5060 H         1 UNK         0.0600 
    235 H235       -0.8606  -21.8473  -53.4049 H         1 UNK         0.3000 
    236 H236       -2.6443  -21.5654  -55.6083 H         1 UNK         0.0600 
    237 H237       -0.8840  -23.3193  -55.4667 H         1 UNK         0.0600 
    238 H238       -0.6656  -22.3545  -56.9174 H         1 UNK         0.0600 
    239 H239        0.3792  -22.0882  -55.5273 H         1 UNK         0.0600 
    240 H240       -0.4943  -19.3319  -54.1522 H         1 UNK         0.3000 
    241 H241       -0.1940  -17.5254  -56.4260 H         1 UNK         0.0600 
    242 H242       -2.8747  -18.1081  -54.3205 H         1 UNK         0.3800 
    243 H243       -3.5787  -16.5230  -54.5141 H         1 UNK         0.3800 
    244 H244        0.9771  -16.0626  -54.7518 H         1 UNK         0.0800 
    245 H245        0.6080  -17.2073  -53.4883 H         1 UNK         0.0800 
    246 H246        3.1481  -20.0127  -53.9760 H         1 UNK         0.0800 
    247 H247        1.5150  -19.7000  -53.4579 H         1 UNK         0.0800 
@<TRIPOS>BOND
     1    1    2 1    
     2    1  127 1    
     3    1  128 1    
     4    1  129 1    
     5    2    3 2    
     6    2    4 am   BACKBONE|DICT|INTERRES
     7    4    5 1    
     8    4  130 1    
     9    5    6 1    
    10    5   65 1    
    11    5  131 1    
    12    6    7 1    
    13    6  132 1    
    14    6  133 1    
    15    7    8 1    
    16    8    9 1    
    17    8  134 1    
    18    8  135 1    
    19    9   10 ar   
    20    9   14 ar   
    21   10   11 ar   
    22   10  136 1    
    23   11   12 ar   
    24   11  126 1    
    25   12   13 ar   
    26   12  137 1    
    27   13   14 ar   
    28   13   15 1    
    29   14  138 1    
    30   15   16 1    
    31   15  139 1    
    32   15  140 1    
    33   16   17 1    
    34   17   18 1    
    35   17  141 1    
    36   17  142 1    
    37   18   19 1    
    38   18   67 1    
    39   18  143 1    
    40   19   20 am   BACKBONE|DICT|INTERRES
    41   19  144 1    
    42   20   21 2    
    43   20   22 1    
    44   22   23 1    
    45   22   24 1    
    46   22  145 1    
    47   23  146 1    
    48   23  147 1    
    49   23  148 1    
    50   24   25 am   BACKBONE|DICT|INTERRES
    51   24  149 1    
    52   25   26 2    
    53   25   27 1    
    54   27   28 1    
    55   27   29 1    
    56   27  150 1    
    57   28  151 1    
    58   28  152 1    
    59   28  153 1    
    60   29   30 am   BACKBONE|DICT|INTERRES
    61   29  154 1    
    62   30   31 2    
    63   30   32 1    
    64   32   33 1    
    65   32   34 1    
    66   32  155 1    
    67   33  156 1    
    68   33  157 1    
    69   33  158 1    
    70   34   35 am   BACKBONE|DICT|INTERRES
    71   34  159 1    
    72   35   36 2    
    73   35   37 1    
    74   37   38 1    
    75   37   39 1    
    76   37  160 1    
    77   38  161 1    
    78   38  162 1    
    79   38  163 1    
    80   39   40 am   BACKBONE|DICT|INTERRES
    81   39  164 1    
    82   40   41 2    
    83   40   42 1    
    84   42   43 1    
    85   42   44 1    
    86   42  165 1    
    87   43  166 1    
    88   43  167 1    
    89   43  168 1    
    90   44   45 am   BACKBONE|DICT|INTERRES
    91   44  169 1    
    92   45   46 2    
    93   45   47 1    
    94   47   48 1    
    95   47   49 1    
    96   47  170 1    
    97   48  171 1    
    98   48  172 1    
    99   48  173 1    
   100   49   50 am   BACKBONE|DICT|INTERRES
   101   49  174 1    
   102   50   51 2    
   103   50   52 1    
   104   52   53 1    
   105   52   54 1    
   106   52  175 1    
   107   53  176 1    
   108   53  177 1    
   109   53  178 1    
   110   54   55 am   BACKBONE|DICT|INTERRES
   111   54  179 1    
   112   55   56 2    
   113   55   57 1    
   114   57   58 1    
   115   57   59 1    
   116   57  180 1    
   117   58  181 1    
   118   58  182 1    
   119   58  183 1    
   120   59   60 am   BACKBONE|DICT|INTERRES
   121   59  184 1    
   122   60   61 2    
   123   60   62 1    
   124   62   63 1    
   125   62   64 1    
   126   62  185 1    
   127   63  186 1    
   128   63  187 1    
   129   63  188 1    
   130   64   65 am   BACKBONE|DICT|INTERRES
   131   64  189 1    
   132   65   66 2    
   133   67   68 2    
   134   67   69 am   BACKBONE|DICT|INTERRES
   135   69   70 1    
   136   69  190 1    
   137   70   71 1    
   138   70   72 1    
   139   70  191 1    
   140   71  192 1    
   141   71  193 1    
   142   71  194 1    
   143   72   73 2    
   144   72   74 am   BACKBONE|DICT|INTERRES
   145   74   75 1    
   146   74  195 1    
   147   75   76 1    
   148   75   77 1    
   149   75  196 1    
   150   76  197 1    
   151   76  198 1    
   152   76  199 1    
   153   77   78 2    
   154   77   79 am   BACKBONE|DICT|INTERRES
   155   79   80 1    
   156   79  200 1    
   157   80   81 1    
   158   80   82 1    
   159   80  201 1    
   160   81  202 1    
   161   81  203 1    
   162   81  204 1    
   163   82   83 2    
   164   82   84 am   BACKBONE|DICT|INTERRES
   165   84   85 1    
   166   84  205 1    
   167   85   86 1    
   168   85   87 1    
   169   85  206 1    
   170   86  207 1    
   171   86  208 1    
   172   86  209 1    
   173   87   88 2    
   174   87   89 am   BACKBONE|DICT|INTERRES
   175   89   90 1    
   176   89  210 1    
   177   90   91 1    
   178   90   92 1    
   179   90  211 1    
   180   91  212 1    
   181   91  213 1    
   182   91  214 1    
   183   92   93 2    
   184   92   94 am   BACKBONE|DICT|INTERRES
   185   94   95 1    
   186   94  215 1    
   187   95   96 1    
   188   95   97 1    
   189   95  216 1    
   190   96  217 1    
   191   96  218 1    
   192   96  219 1    
   193   97   98 2    
   194   97   99 am   BACKBONE|DICT|INTERRES
   195   99  100 1    
   196   99  220 1    
   197  100  101 1    
   198  100  102 1    
   199  100  221 1    
   200  101  222 1    
   201  101  223 1    
   202  101  224 1    
   203  102  103 2    
   204  102  104 am   BACKBONE|DICT|INTERRES
   205  104  105 1    
   206  104  225 1    
   207  105  106 1    
   208  105  107 1    
   209  105  226 1    
   210  106  227 1    
   211  106  228 1    
   212  106  229 1    
   213  107  108 2    
   214  107  109 am   BACKBONE|DICT|INTERRES
   215  109  110 1    
   216  109  230 1    
   217  110  111 1    
   218  110  112 1    
   219  110  231 1    
   220  111  232 1    
   221  111  233 1    
   222  111  234 1    
   223  112  113 2    
   224  112  114 am   BACKBONE|DICT|INTERRES
   225  114  115 1    
   226  114  235 1    
   227  115  116 1    
   228  115  117 1    
   229  115  236 1    
   230  116  237 1    
   231  116  238 1    
   232  116  239 1    
   233  117  118 2    
   234  117  119 am   BACKBONE|DICT|INTERRES
   235  119  120 1    
   236  119  240 1    
   237  120  121 1    
   238  120  124 1    
   239  120  241 1    
   240  121  122 am   BACKBONE|DICT|INTERRES
   241  121  123 2    
   242  122  242 1    
   243  122  243 1    
   244  124  125 1    
   245  124  244 1    
   246  124  245 1    
   247  125  126 1    
   248  126  246 1    
   249  126  247 1    
@<TRIPOS>SUBSTRUCTURE
     1 UNK         1 GROUP             0       ****    0 ROOT    
