@<TRIPOS>MOLECULE
3R540
247   249    1
SMALL
USER_CHARGES


@<TRIPOS>ATOM
      1 CA          5.4898   -9.0771  -51.4410 C.3       0 UNK        -0.1800 
      2 C           6.0542  -10.2038  -50.5869 C.2       0 UNK         0.5000 
      3 O           7.2596  -10.2395  -50.3375 O.2       0 UNK        -0.5000 
      4 N           5.1910  -11.1265  -50.1471 N.am      1 UNK        -0.5000 
      5 CA          5.5204  -12.2396  -49.2533 C.3       1 UNK         0.1400 
      6 C6          4.4128  -13.3274  -49.2331 C.3       23 UNK        -0.0398 
      7 S7          2.7117  -12.6809  -49.0384 S.3       23 UNK        -0.2404 
      8 C8          1.8883  -14.0323  -48.1392 C.3       23 UNK        -0.0205 
      9 C9          1.8862  -15.3368  -48.9237 C.ar      23 UNK        -0.0193 
     10 C10         1.1572  -15.4374  -50.1120 C.ar      23 UNK        -0.1150 
     11 C11         1.1670  -16.6213  -50.8534 C.ar      23 UNK        -0.0193 
     12 C12         1.9067  -17.7136  -50.3939 C.ar      23 UNK        -0.1150 
     13 C13         2.6282  -17.6340  -49.1982 C.ar      23 UNK        -0.0193 
     14 C14         2.6136  -16.4410  -48.4673 C.ar      23 UNK        -0.1150 
     15 C15         3.4513  -18.8220  -48.7122 C.3       23 UNK        -0.0205 
     16 S16         2.4943  -20.3717  -48.6239 S.3       23 UNK        -0.2404 
     17 C17         1.2844  -19.9530  -47.3289 C.3       23 UNK        -0.0398 
     18 CA          0.2828  -21.0984  -47.0460 C.3       11 UNK         0.1400 
     19 N          -0.3298  -20.9559  -45.7225 N.am      11 UNK        -0.5000 
     20 C          -1.1121  -21.8663  -45.1279 C.2       10 UNK         0.5000 
     21 O          -1.3716  -22.9643  -45.6162 O.2       10 UNK        -0.5000 
     22 CA         -1.7559  -21.4636  -43.7879 C.3       10 UNK         0.1400 
     23 CB         -0.7736  -21.6558  -42.6232 C.3       10 UNK        -0.1800 
     24 N          -2.2546  -20.0871  -43.7974 N.am      10 UNK        -0.5000 
     25 C          -3.2440  -19.6515  -44.5908 C.2       9 UNK         0.5000 
     26 O          -3.8786  -20.3820  -45.3511 O.2       9 UNK        -0.5000 
     27 CA         -3.5409  -18.1413  -44.5758 C.3       9 UNK         0.1400 
     28 CB         -4.4212  -17.7670  -43.3746 C.3       9 UNK        -0.1800 
     29 N          -2.3246  -17.3268  -44.5771 N.am      9 UNK        -0.5000 
     30 C          -1.4197  -17.3174  -45.5674 C.2       8 UNK         0.5000 
     31 O          -1.5393  -17.9631  -46.6075 O.2       8 UNK        -0.5000 
     32 CA         -0.1398  -16.4956  -45.3341 C.3       8 UNK         0.1400 
     33 CB         -0.4027  -15.0010  -45.5638 C.3       8 UNK        -0.1800 
     34 N           0.4109  -16.6941  -43.9944 N.am      8 UNK        -0.5000 
     35 C           0.8476  -17.8629  -43.5073 C.2       7 UNK         0.5000 
     36 O           0.9006  -18.8991  -44.1667 O.2       7 UNK        -0.5000 
     37 CA          1.2302  -17.8955  -42.0181 C.3       7 UNK         0.1400 
     38 CB          2.6580  -17.3784  -41.7916 C.3       7 UNK        -0.1800 
     39 N           0.2931  -17.1292  -41.1980 N.am      7 UNK        -0.5000 
     40 C          -0.9716  -17.4971  -40.9524 C.2       6 UNK         0.5000 
     41 O          -1.4707  -18.5441  -41.3646 O.2       6 UNK        -0.5000 
     42 CA         -1.8291  -16.5107  -40.1382 C.3       6 UNK         0.1400 
     43 CB         -1.5906  -16.7007  -38.6329 C.3       6 UNK        -0.1800 
     44 N          -1.5735  -15.1142  -40.4978 N.am      6 UNK        -0.5000 
     45 C          -1.9079  -14.5673  -41.6750 C.2       5 UNK         0.5000 
     46 O          -2.4930  -15.1780  -42.5688 O.2       5 UNK        -0.5000 
     47 CA         -1.4702  -13.1081  -41.9120 C.3       5 UNK         0.1400 
     48 CB         -2.4925  -12.1331  -41.3093 C.3       5 UNK        -0.1800 
     49 N          -0.1331  -12.7966  -41.3923 N.am      5 UNK        -0.5000 
     50 C           0.9905  -13.4222  -41.7666 C.2       4 UNK         0.5000 
     51 O           1.0066  -14.3709  -42.5525 O.2       4 UNK        -0.5000 
     52 CA          2.3036  -12.9490  -41.1159 C.3       4 UNK         0.1400 
     53 CB          2.4074  -13.4868  -39.6795 C.3       4 UNK        -0.1800 
     54 N           3.4685  -13.4152  -41.8702 N.am      4 UNK        -0.5000 
     55 C           3.8476  -12.9404  -43.0625 C.2       3 UNK         0.5000 
     56 O           3.3408  -11.9567  -43.6092 O.2       3 UNK        -0.5000 
     57 CA          4.9699  -13.7145  -43.7667 C.3       3 UNK         0.1400 
     58 CB          4.4046  -14.9036  -44.5643 C.3       3 UNK        -0.1800 
     59 N           5.6786  -12.8211  -44.6757 N.am      3 UNK        -0.5000 
     60 C           6.9817  -12.8901  -44.9613 C.2       2 UNK         0.5000 
     61 O           7.7382  -13.7455  -44.4968 O.2       2 UNK        -0.5000 
     62 CA          7.5073  -11.8574  -45.9738 C.3       2 UNK         0.1400 
     63 CB          9.0453  -11.7983  -46.0190 C.3       2 UNK        -0.1800 
     64 N           7.0110  -12.1859  -47.3085 N.am      2 UNK        -0.5000 
     65 C           5.8696  -11.7307  -47.8378 C.2       1 UNK         0.5000 
     66 O           5.1124  -10.9499  -47.2562 O.2       1 UNK        -0.5000 
     67 C          -0.7778  -21.2302  -48.1626 C.2       11 UNK         0.5000 
     68 O          -0.6519  -22.1015  -49.0228 O.2       11 UNK        -0.5000 
     69 N          -1.8269  -20.3986  -48.0988 N.am      12 UNK        -0.5000 
     70 CA         -2.9761  -20.4315  -49.0025 C.3       12 UNK         0.1400 
     71 CB         -3.8300  -19.1768  -48.7727 C.3       12 UNK        -0.1800 
     72 C          -3.8196  -21.7126  -48.8545 C.2       12 UNK         0.5000 
     73 O          -4.2798  -22.2552  -49.8580 O.2       12 UNK        -0.5000 
     74 N          -3.9955  -22.1972  -47.6174 N.am      13 UNK        -0.5000 
     75 CA         -4.6581  -23.4694  -47.3142 C.3       13 UNK         0.1400 
     76 CB         -4.9254  -23.5633  -45.8052 C.3       13 UNK        -0.1800 
     77 C          -3.8615  -24.6923  -47.8085 C.2       13 UNK         0.5000 
     78 O          -4.4643  -25.6790  -48.2287 O.2       13 UNK        -0.5000 
     79 N          -2.5269  -24.5913  -47.7774 N.am      14 UNK        -0.5000 
     80 CA         -1.5804  -25.6033  -48.2484 C.3       14 UNK         0.1400 
     81 CB         -0.2377  -25.3952  -47.5273 C.3       14 UNK        -0.1800 
     82 C          -1.3875  -25.6246  -49.7807 C.2       14 UNK         0.5000 
     83 O          -0.5966  -26.4359  -50.2668 O.2       14 UNK        -0.5000 
     84 N          -2.0873  -24.7510  -50.5204 N.am      15 UNK        -0.5000 
     85 CA         -2.0983  -24.7068  -51.9845 C.3       15 UNK         0.1400 
     86 CB         -2.8839  -23.4676  -52.4390 C.3       15 UNK        -0.1800 
     87 C          -2.6963  -25.9808  -52.6164 C.2       15 UNK         0.5000 
     88 O          -3.3943  -26.7430  -51.9413 O.2       15 UNK        -0.5000 
     89 N          -2.4232  -26.1747  -53.9144 N.am      16 UNK        -0.5000 
     90 CA         -2.8708  -27.3115  -54.7240 C.3       16 UNK         0.1400 
     91 CB         -2.4175  -27.1057  -56.1774 C.3       16 UNK        -0.1800 
     92 C          -4.3943  -27.5318  -54.6562 C.2       16 UNK         0.5000 
     93 O          -5.1566  -26.5865  -54.8660 O.2       16 UNK        -0.5000 
     94 N          -4.7911  -28.7679  -54.3232 N.am      17 UNK        -0.5000 
     95 CA         -6.1672  -29.2305  -54.0981 C.3       17 UNK         0.1400 
     96 CB         -6.9946  -29.1443  -55.3984 C.3       17 UNK        -0.1800 
     97 C          -6.8775  -28.5586  -52.8988 C.2       17 UNK         0.5000 
     98 O          -8.1060  -28.6139  -52.8220 O.2       17 UNK        -0.5000 
     99 N          -6.1018  -27.9550  -51.9818 N.am      18 UNK        -0.5000 
    100 CA        -6.5380  -27.2066  -50.7973 C.3       18 UNK         0.1400 
    101 CB        -7.1754  -28.1478  -49.7541 C.3       18 UNK        -0.1800 
    102 C         -7.4335  -26.0074  -51.1697 C.2       18 UNK         0.5000 
    103 O         -8.5248  -25.8474  -50.6198 O.2       18 UNK        -0.5000 
    104 N         -6.9592  -25.2092  -52.1377 N.am      19 UNK        -0.5000 
    105 CA        -7.6878  -24.1041  -52.7675 C.3       19 UNK         0.1400 
    106 CB        -6.8321  -23.5282  -53.9071 C.3       19 UNK        -0.1800 
    107 C         -8.1256  -22.9726  -51.8168 C.2       19 UNK         0.5000 
    108 O         -9.1069  -22.2926  -52.1195 O.2       19 UNK        -0.5000 
    109 N         -7.3906  -22.7803  -50.7094 N.am      20 UNK        -0.5000 
    110 CA        -7.5775  -21.7223  -49.7059 C.3       20 UNK         0.1400 
    111 CB        -8.9243  -21.8798  -48.9700 C.3       20 UNK        -0.1800 
    112 C         -7.3580  -20.3063  -50.2813 C.2       20 UNK         0.5000 
    113 O         -7.9586  -19.3405  -49.8076 O.2       20 UNK        -0.5000 
    114 N         -6.4872  -20.2143  -51.2910 N.am      21 UNK        -0.5000 
    115 CA        -6.1142  -19.0095  -52.0164 C.3       21 UNK         0.1400 
    116 CB        -7.2345  -18.6145  -52.9965 C.3       21 UNK        -0.1800 
    117 C         -4.8072  -19.2958  -52.7670 C.2       21 UNK         0.5000 
    118 O         -4.4989  -20.4587  -53.0399 O.2       21 UNK        -0.5000 
    119 N         -4.0782  -18.2290  -53.1066 N.am      22 UNK        -0.5000 
    120 CA        -2.8282  -18.2835  -53.8852 C.3       22 UNK         0.1400 
    121 C         -3.0278  -18.5182  -55.4135 C.2       22 UNK         0.5000 
    122 N         -4.2430  -18.4771  -55.9469 N.am      22 UNK        -0.7600 
    123 O         -2.0580  -18.7491  -56.1303 O.2       22 UNK        -0.5000 
    124 C124       -1.9560  -17.0283  -53.6303 C.3       23 UNK        -0.0398 
    125 S125       -1.3800  -16.9223  -51.9004 S.3       23 UNK        -0.2404 
    126 C126        0.4066  -16.7077  -52.1662 C.3       23 UNK        -0.0205 
    127 H127        5.6792   -8.1149  -50.9652 H         1 UNK         0.0600 
    128 H128        4.4139   -9.1786  -51.5862 H         1 UNK         0.0600 
    129 H129        5.9663   -9.0740  -52.4213 H         1 UNK         0.0600 
    130 H130        4.2067  -11.0282  -50.3539 H         1 UNK         0.3000 
    131 H131        6.4163  -12.7142  -49.6599 H         1 UNK         0.0600 
    132 H132        4.6171  -14.0668  -48.4564 H         1 UNK         0.0800 
    133 H133        4.4384  -13.8804  -50.1731 H         1 UNK         0.0800 
    134 H134        0.8582  -13.7342  -47.9437 H         1 UNK         0.0800 
    135 H135        2.3627  -14.1588  -47.1666 H         1 UNK         0.0800 
    136 H136        0.5929  -14.5868  -50.4681 H         1 UNK         0.1150 
    137 H137        1.9240  -18.6294  -50.9681 H         1 UNK         0.1150 
    138 H138        3.1779  -16.3676  -47.5482 H         1 UNK         0.1150 
    139 H139        4.2892  -18.9666  -49.3953 H         1 UNK         0.0800 
    140 H140        3.8854  -18.6201  -47.7316 H         1 UNK         0.0800 
    141 H141        0.7646  -19.0300  -47.5912 H         1 UNK         0.0800 
    142 H142        1.8599  -19.7317  -46.4299 H         1 UNK         0.0800 
    143 H143        0.8426  -22.0358  -47.0196 H         1 UNK         0.0600 
    144 H144       -0.1182  -20.0986  -45.2185 H         1 UNK         0.3000 
    145 H145       -2.6091  -22.1237  -43.6194 H         1 UNK         0.0600 
    146 H146       -1.2472  -21.4305  -41.6675 H         1 UNK         0.0600 
    147 H147       -0.4214  -22.6870  -42.5773 H         1 UNK         0.0600 
    148 H148        0.1020  -21.0147  -42.7210 H         1 UNK         0.0600 
    149 H149       -1.8125  -19.4346  -43.1582 H         1 UNK         0.3000 
    150 H150       -4.0962  -17.9058  -45.4859 H         1 UNK         0.0600 
    151 H151       -5.3403  -18.3541  -43.3662 H         1 UNK         0.0600 
    152 H152       -4.7076  -16.7158  -43.4092 H         1 UNK         0.0600 
    153 H153       -3.9102  -17.9429  -42.4281 H         1 UNK         0.0600 
    154 H154       -2.1808  -16.7229  -43.7736 H         1 UNK         0.3000 
    155 H155        0.6092  -16.8269  -46.0564 H         1 UNK         0.0600 
    156 H156       -1.1387  -14.6083  -44.8628 H         1 UNK         0.0600 
    157 H157       -0.7840  -14.8244  -46.5699 H         1 UNK         0.0600 
    158 H158        0.5103  -14.4173  -45.4462 H         1 UNK         0.0600 
    159 H159        0.4623  -15.8705  -43.3975 H         1 UNK         0.3000 
    160 H160        1.1962  -18.9374  -41.6928 H         1 UNK         0.0600 
    161 H161        2.9696  -17.5294  -40.7580 H         1 UNK         0.0600 
    162 H162        2.7411  -16.3154  -42.0110 H         1 UNK         0.0600 
    163 H163        3.3715  -17.9049  -42.4269 H         1 UNK         0.0600 
    164 H164        0.6047  -16.2254  -40.8766 H         1 UNK         0.3000 
    165 H165       -2.8782  -16.7310  -40.3472 H         1 UNK         0.0600 
    166 H166       -2.2492  -16.0604  -38.0457 H         1 UNK         0.0600 
    167 H167       -1.7894  -17.7308  -38.3339 H         1 UNK         0.0600 
    168 H168       -0.5616  -16.4705  -38.3539 H         1 UNK         0.0600 
    169 H169       -1.0930  -14.5437  -39.8181 H         1 UNK         0.3000 
    170 H170       -1.4461  -12.9476  -42.9917 H         1 UNK         0.0600 
    171 H171       -3.4943  -12.3312  -41.6932 H         1 UNK         0.0600 
    172 H172       -2.5354  -12.2138  -40.2225 H         1 UNK         0.0600 
    173 H173       -2.2488  -11.1006  -41.5606 H         1 UNK         0.0600 
    174 H174       -0.0742  -12.0362  -40.7303 H         1 UNK         0.3000 
    175 H175        2.3097  -11.8573  -41.0920 H         1 UNK         0.0600 
    176 H176        2.3937  -14.5774  -39.6544 H         1 UNK         0.0600 
    177 H177        3.3280  -13.1530  -39.2002 H         1 UNK         0.0600 
    178 H178        1.5791  -13.1339  -39.0639 H         1 UNK         0.0600 
    179 H179        3.9276  -14.2376  -41.5087 H         1 UNK         0.3000 
    180 H180        5.6565  -14.0849  -43.0023 H         1 UNK         0.0600 
    181 H181        3.7070  -14.5715  -45.3321 H         1 UNK         0.0600 
    182 H182        3.8691  -15.5969  -43.9172 H         1 UNK         0.0600 
    183 H183        5.1994  -15.4661  -45.0545 H         1 UNK         0.0600 
    184 H184        5.1139  -12.0799  -45.0754 H         1 UNK         0.3000 
    185 H185        7.1472  -10.8725  -45.6680 H         1 UNK         0.0600 
    186 H186        9.4555  -11.5603  -45.0367 H         1 UNK         0.0600 
    187 H187        9.4802  -12.7469  -46.3367 H         1 UNK         0.0600 
    188 H188        9.3878  -11.0267  -46.7087 H         1 UNK         0.0600 
    189 H189        7.5707  -12.8401  -47.8367 H         1 UNK         0.3000 
    190 H190       -1.8270  -19.6667  -47.3926 H         1 UNK         0.3000 
    191 H191       -2.5994  -20.4021  -50.0274 H         1 UNK         0.0600 
    192 H192       -4.2068  -19.1260  -47.7513 H         1 UNK         0.0600 
    193 H193       -4.6901  -19.1589  -49.4382 H         1 UNK         0.0600 
    194 H194       -3.2545  -18.2703  -48.9627 H         1 UNK         0.0600 
    195 H195       -3.6601  -21.6559  -46.8258 H         1 UNK         0.3000 
    196 H196       -5.6219  -23.4843  -47.8248 H         1 UNK         0.0600 
    197 H197       -5.4496  -24.4874  -45.5584 H         1 UNK         0.0600 
    198 H198       -5.5462  -22.7352  -45.4629 H         1 UNK         0.0600 
    199 H199       -3.9998  -23.5474  -45.2299 H         1 UNK         0.0600 
    200 H200       -2.1189  -23.7631  -47.3569 H         1 UNK         0.3000 
    201 H201       -1.9618  -26.5865  -47.9657 H         1 UNK         0.0600 
    202 H202       -0.3600  -25.4434  -46.4451 H         1 UNK         0.0600 
    203 H203        0.2025  -24.4283  -47.7718 H         1 UNK         0.0600 
    204 H204        0.4841  -26.1644  -47.8039 H         1 UNK         0.0600 
    205 H205       -2.7102  -24.1122  -50.0465 H         1 UNK         0.3000 
    206 H206       -1.0645  -24.6097  -52.3219 H         1 UNK         0.0600 
    207 H207       -2.4734  -22.5553  -52.0051 H         1 UNK         0.0600 
    208 H208       -2.8530  -23.3502  -53.5226 H         1 UNK         0.0600 
    209 H209       -3.9329  -23.5328  -52.1495 H         1 UNK         0.0600 
    210 H210       -1.8706  -25.4825  -54.3984 H         1 UNK         0.3000 
    211 H211       -2.3691  -28.1994  -54.3340 H         1 UNK         0.0600 
    212 H212       -2.8511  -26.2025  -56.6090 H         1 UNK         0.0600 
    213 H213       -2.7200  -27.9461  -56.8035 H         1 UNK         0.0600 
    214 H214       -1.3326  -27.0245  -56.2465 H         1 UNK         0.0600 
    215 H215       -4.0775  -29.4636  -54.1535 H         1 UNK         0.3000 
    216 H216       -6.0859  -30.2862  -53.8356 H         1 UNK         0.0600 
    217 H217       -7.9562  -29.6461  -55.2854 H         1 UNK         0.0600 
    218 H218       -6.4769  -29.6247  -56.2287 H         1 UNK         0.0600 
    219 H219       -7.1989  -28.1115  -55.6820 H         1 UNK         0.0600 
    220 H220       -5.1023  -27.9189  -52.1518 H         1 UNK         0.3000 
    221 H221       -5.6361  -26.7873  -50.3510 H         1 UNK         0.0600 
    222 H222       -8.1097  -28.5815  -50.1116 H         1 UNK         0.0600 
    223 H223       -6.5012  -28.9652  -49.4987 H         1 UNK         0.0600 
    224 H224       -7.3959  -27.6101  -48.8312 H         1 UNK         0.0600 
    225 H225       -6.0739  -25.4540  -52.5593 H         1 UNK         0.3000 
    226 H226       -8.5955  -24.5253  -53.2042 H         1 UNK         0.0600 
    227 H227       -7.3537  -22.7178  -54.4183 H         1 UNK         0.0600 
    228 H228       -5.8877  -23.1257  -53.5396 H         1 UNK         0.0600 
    229 H229       -6.6063  -24.2875  -54.6557 H         1 UNK         0.0600 
    230 H230       -6.5820  -23.3712  -50.5743 H         1 UNK         0.3000 
    231 H231       -6.7953  -21.8598  -48.9622 H         1 UNK         0.0600 
    232 H232       -9.0458  -22.8922  -48.5844 H         1 UNK         0.0600 
    233 H233       -9.7722  -21.6638  -49.6202 H         1 UNK         0.0600 
    234 H234       -8.9856  -21.2000  -48.1195 H         1 UNK         0.0600 
    235 H235       -5.9840  -21.0424  -51.5889 H         1 UNK         0.3000 
    236 H236       -5.9430  -18.1994  -51.3049 H         1 UNK         0.0600 
    237 H237       -8.1634  -18.3930  -52.4710 H         1 UNK         0.0600 
    238 H238       -6.9660  -17.7225  -53.5634 H         1 UNK         0.0600 
    239 H239       -7.4392  -19.4125  -53.7117 H         1 UNK         0.0600 
    240 H240       -4.3966  -17.3068  -52.8473 H         1 UNK         0.3000 
    241 H241       -2.2604  -19.1486  -53.5359 H         1 UNK         0.0600 
    242 H242       -4.3550  -18.6356  -56.9361 H         1 UNK         0.3800 
    243 H243       -5.0504  -18.2942  -55.3745 H         1 UNK         0.3800 
    244 H244       -2.5121  -16.1205  -53.8695 H         1 UNK         0.0800 
    245 H245       -1.0865  -17.0273  -54.2902 H         1 UNK         0.0800 
    246 H246        0.7843  -17.5361  -52.7677 H         1 UNK         0.0800 
    247 H247        0.5801  -15.7997  -52.7457 H         1 UNK         0.0800 
@<TRIPOS>BOND
     1    1    2 1    
     2    1  127 1    
     3    1  128 1    
     4    1  129 1    
     5    2    3 2    
     6    2    4 am   BACKBONE|DICT|INTERRES
     7    4    5 1    
     8    4  130 1    
     9    5    6 1    
    10    5   65 1    
    11    5  131 1    
    12    6    7 1    
    13    6  132 1    
    14    6  133 1    
    15    7    8 1    
    16    8    9 1    
    17    8  134 1    
    18    8  135 1    
    19    9   10 ar   
    20    9   14 ar   
    21   10   11 ar   
    22   10  136 1    
    23   11   12 ar   
    24   11  126 1    
    25   12   13 ar   
    26   12  137 1    
    27   13   14 ar   
    28   13   15 1    
    29   14  138 1    
    30   15   16 1    
    31   15  139 1    
    32   15  140 1    
    33   16   17 1    
    34   17   18 1    
    35   17  141 1    
    36   17  142 1    
    37   18   19 1    
    38   18   67 1    
    39   18  143 1    
    40   19   20 am   BACKBONE|DICT|INTERRES
    41   19  144 1    
    42   20   21 2    
    43   20   22 1    
    44   22   23 1    
    45   22   24 1    
    46   22  145 1    
    47   23  146 1    
    48   23  147 1    
    49   23  148 1    
    50   24   25 am   BACKBONE|DICT|INTERRES
    51   24  149 1    
    52   25   26 2    
    53   25   27 1    
    54   27   28 1    
    55   27   29 1    
    56   27  150 1    
    57   28  151 1    
    58   28  152 1    
    59   28  153 1    
    60   29   30 am   BACKBONE|DICT|INTERRES
    61   29  154 1    
    62   30   31 2    
    63   30   32 1    
    64   32   33 1    
    65   32   34 1    
    66   32  155 1    
    67   33  156 1    
    68   33  157 1    
    69   33  158 1    
    70   34   35 am   BACKBONE|DICT|INTERRES
    71   34  159 1    
    72   35   36 2    
    73   35   37 1    
    74   37   38 1    
    75   37   39 1    
    76   37  160 1    
    77   38  161 1    
    78   38  162 1    
    79   38  163 1    
    80   39   40 am   BACKBONE|DICT|INTERRES
    81   39  164 1    
    82   40   41 2    
    83   40   42 1    
    84   42   43 1    
    85   42   44 1    
    86   42  165 1    
    87   43  166 1    
    88   43  167 1    
    89   43  168 1    
    90   44   45 am   BACKBONE|DICT|INTERRES
    91   44  169 1    
    92   45   46 2    
    93   45   47 1    
    94   47   48 1    
    95   47   49 1    
    96   47  170 1    
    97   48  171 1    
    98   48  172 1    
    99   48  173 1    
   100   49   50 am   BACKBONE|DICT|INTERRES
   101   49  174 1    
   102   50   51 2    
   103   50   52 1    
   104   52   53 1    
   105   52   54 1    
   106   52  175 1    
   107   53  176 1    
   108   53  177 1    
   109   53  178 1    
   110   54   55 am   BACKBONE|DICT|INTERRES
   111   54  179 1    
   112   55   56 2    
   113   55   57 1    
   114   57   58 1    
   115   57   59 1    
   116   57  180 1    
   117   58  181 1    
   118   58  182 1    
   119   58  183 1    
   120   59   60 am   BACKBONE|DICT|INTERRES
   121   59  184 1    
   122   60   61 2    
   123   60   62 1    
   124   62   63 1    
   125   62   64 1    
   126   62  185 1    
   127   63  186 1    
   128   63  187 1    
   129   63  188 1    
   130   64   65 am   BACKBONE|DICT|INTERRES
   131   64  189 1    
   132   65   66 2    
   133   67   68 2    
   134   67   69 am   BACKBONE|DICT|INTERRES
   135   69   70 1    
   136   69  190 1    
   137   70   71 1    
   138   70   72 1    
   139   70  191 1    
   140   71  192 1    
   141   71  193 1    
   142   71  194 1    
   143   72   73 2    
   144   72   74 am   BACKBONE|DICT|INTERRES
   145   74   75 1    
   146   74  195 1    
   147   75   76 1    
   148   75   77 1    
   149   75  196 1    
   150   76  197 1    
   151   76  198 1    
   152   76  199 1    
   153   77   78 2    
   154   77   79 am   BACKBONE|DICT|INTERRES
   155   79   80 1    
   156   79  200 1    
   157   80   81 1    
   158   80   82 1    
   159   80  201 1    
   160   81  202 1    
   161   81  203 1    
   162   81  204 1    
   163   82   83 2    
   164   82   84 am   BACKBONE|DICT|INTERRES
   165   84   85 1    
   166   84  205 1    
   167   85   86 1    
   168   85   87 1    
   169   85  206 1    
   170   86  207 1    
   171   86  208 1    
   172   86  209 1    
   173   87   88 2    
   174   87   89 am   BACKBONE|DICT|INTERRES
   175   89   90 1    
   176   89  210 1    
   177   90   91 1    
   178   90   92 1    
   179   90  211 1    
   180   91  212 1    
   181   91  213 1    
   182   91  214 1    
   183   92   93 2    
   184   92   94 am   BACKBONE|DICT|INTERRES
   185   94   95 1    
   186   94  215 1    
   187   95   96 1    
   188   95   97 1    
   189   95  216 1    
   190   96  217 1    
   191   96  218 1    
   192   96  219 1    
   193   97   98 2    
   194   97   99 am   BACKBONE|DICT|INTERRES
   195   99  100 1    
   196   99  220 1    
   197  100  101 1    
   198  100  102 1    
   199  100  221 1    
   200  101  222 1    
   201  101  223 1    
   202  101  224 1    
   203  102  103 2    
   204  102  104 am   BACKBONE|DICT|INTERRES
   205  104  105 1    
   206  104  225 1    
   207  105  106 1    
   208  105  107 1    
   209  105  226 1    
   210  106  227 1    
   211  106  228 1    
   212  106  229 1    
   213  107  108 2    
   214  107  109 am   BACKBONE|DICT|INTERRES
   215  109  110 1    
   216  109  230 1    
   217  110  111 1    
   218  110  112 1    
   219  110  231 1    
   220  111  232 1    
   221  111  233 1    
   222  111  234 1    
   223  112  113 2    
   224  112  114 am   BACKBONE|DICT|INTERRES
   225  114  115 1    
   226  114  235 1    
   227  115  116 1    
   228  115  117 1    
   229  115  236 1    
   230  116  237 1    
   231  116  238 1    
   232  116  239 1    
   233  117  118 2    
   234  117  119 am   BACKBONE|DICT|INTERRES
   235  119  120 1    
   236  119  240 1    
   237  120  121 1    
   238  120  124 1    
   239  120  241 1    
   240  121  122 am   BACKBONE|DICT|INTERRES
   241  121  123 2    
   242  122  242 1    
   243  122  243 1    
   244  124  125 1    
   245  124  244 1    
   246  124  245 1    
   247  125  126 1    
   248  126  246 1    
   249  126  247 1    
@<TRIPOS>SUBSTRUCTURE
     1 UNK         1 GROUP             0       ****    0 ROOT    
