@<TRIPOS>MOLECULE
3R540
247   249    1
SMALL
USER_CHARGES


@<TRIPOS>ATOM
      1 CA         -0.7479  -12.2112  -42.2614 C.3       0 UNK        -0.1800 
      2 C          -1.4526  -11.8484  -43.5575 C.2       0 UNK         0.5000 
      3 O          -1.4952  -10.6720  -43.9165 O.2       0 UNK        -0.5000 
      4 N          -2.0163  -12.8405  -44.2591 N.am      1 UNK        -0.5000 
      5 CA         -2.8386  -12.6330  -45.4586 C.3       1 UNK         0.1400 
      6 C6         -3.7634  -13.8398  -45.7547 C.3       23 UNK        -0.0398 
      7 S7         -2.8795  -15.3554  -46.2556 S.3       23 UNK        -0.2404 
      8 C8         -3.3195  -15.4512  -48.0170 C.3       23 UNK        -0.0205 
      9 C9         -2.2425  -16.1625  -48.8162 C.ar      23 UNK        -0.0193 
     10 C10        -1.3830  -15.4292  -49.6382 C.ar      23 UNK        -0.1150 
     11 C11        -0.4065  -16.0765  -50.3982 C.ar      23 UNK        -0.0193 
     12 C12        -0.2910  -17.4671  -50.3248 C.ar      23 UNK        -0.1150 
     13 C13        -1.1409  -18.2155  -49.5038 C.ar      23 UNK        -0.0193 
     14 C14        -2.1123  -17.5520  -48.7457 C.ar      23 UNK        -0.1150 
     15 C15        -0.9784  -19.7305  -49.4388 C.3       23 UNK        -0.0205 
     16 S16        -2.5460  -20.6397  -49.6389 S.3       23 UNK        -0.2404 
     17 C17        -2.9383  -21.0585  -47.9095 C.3       23 UNK        -0.0398 
     18 CA         -2.2500  -22.3846  -47.4923 C.3       11 UNK         0.1400 
     19 N          -1.0994  -22.1685  -46.6115 N.am      11 UNK        -0.5000 
     20 C          -0.2020  -23.1129  -46.2962 C.2       10 UNK         0.5000 
     21 O          -0.2288  -24.2586  -46.7418 O.2       10 UNK        -0.5000 
     22 CA          0.8681  -22.7313  -45.2620 C.3       10 UNK         0.1400 
     23 CB          2.0082  -21.9321  -45.9114 C.3       10 UNK        -0.1800 
     24 N           0.2932  -21.9736  -44.1512 N.am      10 UNK        -0.5000 
     25 C          -0.5398  -22.4941  -43.2387 C.2       9 UNK         0.5000 
     26 O          -0.8739  -23.6792  -43.2144 O.2       9 UNK        -0.5000 
     27 CA         -1.1291  -21.5164  -42.2059 C.3       9 UNK         0.1400 
     28 CB         -0.1603  -21.3212  -41.0302 C.3       9 UNK        -0.1800 
     29 N          -1.4581  -20.2121  -42.7835 N.am      9 UNK        -0.5000 
     30 C          -2.4169  -20.0055  -43.6971 C.2       8 UNK         0.5000 
     31 O          -3.1354  -20.8949  -44.1505 O.2       8 UNK        -0.5000 
     32 CA         -2.5627  -18.5699  -44.2285 C.3       8 UNK         0.1400 
     33 CB         -3.3924  -17.7187  -43.2552 C.3       8 UNK        -0.1800 
     34 N          -1.2804  -17.9096  -44.4750 N.am      8 UNK        -0.5000 
     35 C          -0.3214  -18.3366  -45.3030 C.2       7 UNK         0.5000 
     36 O          -0.3878  -19.4041  -45.9132 O.2       7 UNK        -0.5000 
     37 CA          0.9415  -17.4630  -45.4607 C.3       7 UNK         0.1400 
     38 CB          0.8096  -16.5005  -46.6497 C.3       7 UNK        -0.1800 
     39 N           1.3980  -16.7329  -44.2695 N.am      7 UNK        -0.5000 
     40 C           0.7847  -15.7804  -43.5498 C.2       6 UNK         0.5000 
     41 O          -0.3779  -15.4071  -43.7128 O.2       6 UNK        -0.5000 
     42 CA          1.6613  -15.1026  -42.4832 C.3       6 UNK         0.1400 
     43 CB          1.9999  -16.0732  -41.3402 C.3       6 UNK        -0.1800 
     44 N           2.8935  -14.5606  -43.0594 N.am      6 UNK        -0.5000 
     45 C           2.9400  -13.5859  -43.9785 C.2       5 UNK         0.5000 
     46 O           1.9483  -12.9856  -44.4061 O.2       5 UNK        -0.5000 
     47 CA          4.3318  -13.2416  -44.5251 C.3       5 UNK         0.1400 
     48 CB          4.8096  -14.3063  -45.5285 C.3       5 UNK        -0.1800 
     49 N           4.2619  -11.9466  -45.1875 N.am      5 UNK        -0.5000 
     50 C           5.2557  -11.0596  -45.3018 C.2       4 UNK         0.5000 
     51 O           6.3956  -11.2554  -44.8778 O.2       4 UNK        -0.5000 
     52 CA          4.9307   -9.7301  -46.0138 C.3       4 UNK         0.1400 
     53 CB          5.5667   -9.7010  -47.4124 C.3       4 UNK        -0.1800 
     54 N           3.4931   -9.4920  -46.1528 N.am      4 UNK        -0.5000 
     55 C           2.6724   -9.0804  -45.1804 C.2       3 UNK         0.5000 
     56 O           3.0541   -8.7858  -44.0475 O.2       3 UNK        -0.5000 
     57 CA          1.1700   -9.0161  -45.5177 C.3       3 UNK         0.1400 
     58 CB          0.8282   -7.7551  -46.3336 C.3       3 UNK        -0.1800 
     59 N           0.6451  -10.2333  -46.1531 N.am      3 UNK        -0.5000 
     60 C           0.9087  -10.7501  -47.3644 C.2       2 UNK         0.5000 
     61 O           1.6755  -10.2281  -48.1748 O.2       2 UNK        -0.5000 
     62 CA          0.2369  -12.0892  -47.7302 C.3       2 UNK         0.1400 
     63 CB          1.2913  -13.1873  -47.9401 C.3       2 UNK        -0.1800 
     64 N          -0.7189  -12.5328  -46.7138 N.am      2 UNK        -0.5000 
     65 C          -2.0151  -12.1902  -46.6897 C.2       1 UNK         0.5000 
     66 O          -2.5610  -11.5261  -47.5717 O.2       1 UNK        -0.5000 
     67 C          -3.2503  -23.3991  -46.9050 C.2       11 UNK         0.5000 
     68 O          -3.7537  -24.2363  -47.6523 O.2       11 UNK        -0.5000 
     69 N          -3.4875  -23.3446  -45.5864 N.am      12 UNK        -0.5000 
     70 CA         -4.3130  -24.3057  -44.8538 C.3       12 UNK         0.1400 
     71 CB         -4.5268  -23.8218  -43.4119 C.3       12 UNK        -0.1800 
     72 C          -3.7232  -25.7273  -44.8767 C.2       12 UNK         0.5000 
     73 O          -4.4578  -26.6791  -45.1414 O.2       12 UNK        -0.5000 
     74 N          -2.4049  -25.8449  -44.6569 N.am      13 UNK        -0.5000 
     75 CA         -1.6569  -27.1032  -44.7528 C.3       13 UNK         0.1400 
     76 CB         -0.2248  -26.8874  -44.2411 C.3       13 UNK        -0.1800 
     77 C          -1.6473  -27.6877  -46.1801 C.2       13 UNK         0.5000 
     78 O          -1.7413  -28.9040  -46.3453 O.2       13 UNK        -0.5000 
     79 N          -1.5802  -26.8029  -47.1822 N.am      14 UNK        -0.5000 
     80 CA         -1.6775  -27.1101  -48.6097 C.3       14 UNK         0.1400 
     81 CB         -1.0448  -25.9465  -49.3870 C.3       14 UNK        -0.1800 
     82 C          -3.1203  -27.3545  -49.1026 C.2       14 UNK         0.5000 
     83 O          -3.3059  -27.6181  -50.2942 O.2       14 UNK        -0.5000 
     84 N          -4.1133  -27.2067  -48.2100 N.am      15 UNK        -0.5000 
     85 CA         -5.5613  -27.3243  -48.4300 C.3       15 UNK         0.1400 
     86 CB         -5.9317  -28.7920  -48.7258 C.3       15 UNK        -0.1800 
     87 C          -6.1148  -26.3537  -49.4981 C.2       15 UNK         0.5000 
     88 O          -7.1498  -26.6365  -50.1037 O.2       15 UNK        -0.5000 
     89 N          -5.3885  -25.2503  -49.7386 N.am      16 UNK        -0.5000 
     90 CA         -5.5443  -24.2848  -50.8333 C.3       16 UNK         0.1400 
     91 CB         -6.8015  -23.4205  -50.6117 C.3       16 UNK        -0.1800 
     92 C          -5.4972  -24.9289  -52.2412 C.2       16 UNK         0.5000 
     93 O          -6.0575  -24.3721  -53.1875 O.2       16 UNK        -0.5000 
     94 N          -4.8484  -26.0971  -52.3497 N.am      17 UNK        -0.5000 
     95 CA         -4.7635  -26.9088  -53.5605 C.3       17 UNK         0.1400 
     96 CB         -5.3739  -28.2920  -53.2816 C.3       17 UNK        -0.1800 
     97 C          -3.3065  -27.0387  -54.0202 C.2       17 UNK         0.5000 
     98 O          -3.0241  -26.8317  -55.2008 O.2       17 UNK        -0.5000 
     99 N          -2.4004  -27.3530  -53.0827 N.am      18 UNK        -0.5000 
    100 CA        -0.9623  -27.4758  -53.3428 C.3       18 UNK         0.1400 
    101 CB        -0.3467  -28.4552  -52.3295 C.3       18 UNK        -0.1800 
    102 C         -0.2270  -26.1179  -53.3450 C.2       18 UNK         0.5000 
    103 O          0.9459  -26.0687  -53.7178 O.2       18 UNK        -0.5000 
    104 N         -0.9197  -25.0455  -52.9446 N.am      19 UNK        -0.5000 
    105 CA        -0.4587  -23.6637  -52.9743 C.3       19 UNK         0.1400 
    106 CB         0.1139  -23.2727  -51.6010 C.3       19 UNK        -0.1800 
    107 C         -1.6577  -22.7800  -53.3370 C.2       19 UNK         0.5000 
    108 O         -2.7712  -23.0566  -52.8833 O.2       19 UNK        -0.5000 
    109 N         -1.4102  -21.7392  -54.1386 N.am      20 UNK        -0.5000 
    110 CA        -2.3963  -20.7197  -54.4902 C.3       20 UNK         0.1400 
    111 CB        -2.0266  -20.1139  -55.8535 C.3       20 UNK        -0.1800 
    112 C         -2.4321  -19.6270  -53.4102 C.2       20 UNK         0.5000 
    113 O         -1.3874  -19.2942  -52.8496 O.2       20 UNK        -0.5000 
    114 N         -3.6220  -19.0610  -53.1765 N.am      21 UNK        -0.5000 
    115 CA        -3.8911  -18.0580  -52.1401 C.3       21 UNK         0.1400 
    116 CB        -5.3623  -18.1857  -51.7090 C.3       21 UNK        -0.1800 
    117 C         -3.5392  -16.6091  -52.5445 C.2       21 UNK         0.5000 
    118 O         -3.9332  -15.6771  -51.8424 O.2       21 UNK        -0.5000 
    119 N         -2.8335  -16.4354  -53.6704 N.am      22 UNK        -0.5000 
    120 CA        -2.3479  -15.1508  -54.2103 C.3       22 UNK         0.1400 
    121 C         -3.4647  -14.1672  -54.6829 C.2       22 UNK         0.5000 
    122 N         -4.6948  -14.6167  -54.9002 N.am      22 UNK        -0.7600 
    123 O         -3.2105  -12.9843  -54.8953 O.2       22 UNK        -0.5000 
    124 C124       -1.2933  -14.4659  -53.2922 C.3       23 UNK        -0.0398 
    125 S125        0.1971  -15.4952  -53.0539 S.3       23 UNK        -0.2404 
    126 C126        0.5420  -15.2765  -51.2785 C.3       23 UNK        -0.0205 
    127 H127       -1.0912  -11.5630  -41.4553 H         1 UNK         0.0600 
    128 H128        0.3278  -12.0773  -42.3697 H         1 UNK         0.0600 
    129 H129       -0.9529  -13.2414  -41.9713 H         1 UNK         0.0600 
    130 H130       -1.8699  -13.8038  -43.9773 H         1 UNK         0.3000 
    131 H131       -3.5031  -11.7952  -45.2348 H         1 UNK         0.0600 
    132 H132       -4.4988  -13.5703  -46.5143 H         1 UNK         0.0800 
    133 H133       -4.3475  -14.0758  -44.8644 H         1 UNK         0.0800 
    134 H134       -4.2695  -15.9760  -48.1260 H         1 UNK         0.0800 
    135 H135       -3.4731  -14.4493  -48.4210 H         1 UNK         0.0800 
    136 H136       -1.4784  -14.3538  -49.6891 H         1 UNK         0.1150 
    137 H137        0.4623  -17.9672  -50.9172 H         1 UNK         0.1150 
    138 H138       -2.7738  -18.1112  -48.1016 H         1 UNK         0.1150 
    139 H139       -0.3089  -20.0660  -50.2320 H         1 UNK         0.0800 
    140 H140       -0.4936  -20.0025  -48.5015 H         1 UNK         0.0800 
    141 H141       -4.0265  -21.1202  -47.8450 H         1 UNK         0.0800 
    142 H142       -2.6583  -20.2381  -47.2483 H         1 UNK         0.0800 
    143 H143       -1.8519  -22.8669  -48.3869 H         1 UNK         0.0600 
    144 H144       -0.9802  -21.2362  -46.2256 H         1 UNK         0.3000 
    145 H145        1.2901  -23.6554  -44.8610 H         1 UNK         0.0600 
    146 H146        2.7836  -21.6898  -45.1847 H         1 UNK         0.0600 
    147 H147        2.4790  -22.5089  -46.7084 H         1 UNK         0.0600 
    148 H148        1.6563  -20.9988  -46.3507 H         1 UNK         0.0600 
    149 H149        0.4678  -20.9798  -44.1391 H         1 UNK         0.3000 
    150 H150       -2.0505  -21.9570  -41.8195 H         1 UNK         0.0600 
    151 H151        0.0898  -22.2774  -40.5685 H         1 UNK         0.0600 
    152 H152       -0.6017  -20.6936  -40.2558 H         1 UNK         0.0600 
    153 H153        0.7734  -20.8559  -41.3485 H         1 UNK         0.0600 
    154 H154       -0.9089  -19.4221  -42.4786 H         1 UNK         0.3000 
    155 H155       -3.0940  -18.6195  -45.1811 H         1 UNK         0.0600 
    156 H156       -2.8894  -17.5992  -42.2949 H         1 UNK         0.0600 
    157 H157       -4.3635  -18.1775  -43.0646 H         1 UNK         0.0600 
    158 H158       -3.5786  -16.7237  -43.6585 H         1 UNK         0.0600 
    159 H159       -1.1479  -16.9889  -44.0622 H         1 UNK         0.3000 
    160 H160        1.7498  -18.1558  -45.7000 H         1 UNK         0.0600 
    161 H161        0.0358  -15.7516  -46.4838 H         1 UNK         0.0600 
    162 H162        0.5570  -17.0402  -47.5609 H         1 UNK         0.0600 
    163 H163        1.7479  -15.9784  -46.8349 H         1 UNK         0.0600 
    164 H164        2.3478  -16.9455  -44.0010 H         1 UNK         0.3000 
    165 H165        1.0991  -14.2750  -42.0551 H         1 UNK         0.0600 
    166 H166        1.0925  -16.4937  -40.9044 H         1 UNK         0.0600 
    167 H167        2.6186  -16.9054  -41.6774 H         1 UNK         0.0600 
    168 H168        2.5357  -15.5632  -40.5393 H         1 UNK         0.0600 
    169 H169        3.7568  -14.9914  -42.7617 H         1 UNK         0.3000 
    170 H170        5.0259  -13.1867  -43.6839 H         1 UNK         0.0600 
    171 H171        4.8783  -15.2887  -45.0601 H         1 UNK         0.0600 
    172 H172        4.1286  -14.3933  -46.3761 H         1 UNK         0.0600 
    173 H173        5.7985  -14.0651  -45.9187 H         1 UNK         0.0600 
    174 H174        3.3328  -11.6881  -45.4930 H         1 UNK         0.3000 
    175 H175        5.3650   -8.9227  -45.4208 H         1 UNK         0.0600 
    176 H176        5.1615  -10.4851  -48.0535 H         1 UNK         0.0600 
    177 H177        5.3944   -8.7433  -47.9038 H         1 UNK         0.0600 
    178 H178        6.6462   -9.8468  -47.3558 H         1 UNK         0.0600 
    179 H179        3.0710   -9.7197  -47.0499 H         1 UNK         0.3000 
    180 H180        0.6421   -8.9367  -44.5660 H         1 UNK         0.0600 
    181 H181       -0.2441   -7.6841  -46.5161 H         1 UNK         0.0600 
    182 H182        1.3347   -7.7392  -47.2989 H         1 UNK         0.0600 
    183 H183        1.1270   -6.8541  -45.7965 H         1 UNK         0.0600 
    184 H184        0.0022  -10.7527  -45.5681 H         1 UNK         0.3000 
    185 H185       -0.2810  -11.9410  -48.6801 H         1 UNK         0.0600 
    186 H186        0.8283  -14.1130  -48.2784 H         1 UNK         0.0600 
    187 H187        2.0183  -12.8976  -48.6997 H         1 UNK         0.0600 
    188 H188        1.8413  -13.4018  -47.0247 H         1 UNK         0.0600 
    189 H189       -0.3470  -13.0732  -45.9435 H         1 UNK         0.3000 
    190 H190       -3.0985  -22.5762  -45.0466 H         1 UNK         0.3000 
    191 H191       -5.2883  -24.3447  -45.3435 H         1 UNK         0.0600 
    192 H192       -5.1569  -24.5172  -42.8561 H         1 UNK         0.0600 
    193 H193       -5.0201  -22.8499  -43.3921 H         1 UNK         0.0600 
    194 H194       -3.5846  -23.7293  -42.8722 H         1 UNK         0.0600 
    195 H195       -1.8732  -25.0175  -44.4061 H         1 UNK         0.3000 
    196 H196       -2.1442  -27.8311  -44.1009 H         1 UNK         0.0600 
    197 H197        0.3108  -26.1502  -44.8396 H         1 UNK         0.0600 
    198 H198       -0.2240  -26.5414  -43.2073 H         1 UNK         0.0600 
    199 H199        0.3464  -27.8159  -44.2745 H         1 UNK         0.0600 
    200 H200       -1.4230  -25.8270  -46.9485 H         1 UNK         0.3000 
    201 H201       -1.1053  -28.0166  -48.8152 H         1 UNK         0.0600 
    202 H202        0.0028  -25.8106  -49.1178 H         1 UNK         0.0600 
    203 H203       -1.5657  -25.0103  -49.1940 H         1 UNK         0.0600 
    204 H204       -1.0841  -26.1144  -50.4597 H         1 UNK         0.0600 
    205 H205       -3.8524  -26.9418  -47.2685 H         1 UNK         0.3000 
    206 H206       -6.0362  -27.0422  -47.4896 H         1 UNK         0.0600 
    207 H207       -5.5369  -29.4595  -47.9599 H         1 UNK         0.0600 
    208 H208       -7.0134  -28.9288  -48.7461 H         1 UNK         0.0600 
    209 H209       -5.5419  -29.1196  -49.6903 H         1 UNK         0.0600 
    210 H210       -4.6112  -25.0659  -49.1081 H         1 UNK         0.3000 
    211 H211       -4.6769  -23.6250  -50.7771 H         1 UNK         0.0600 
    212 H212       -6.8519  -22.6080  -51.3374 H         1 UNK         0.0600 
    213 H213       -6.7965  -22.9671  -49.6204 H         1 UNK         0.0600 
    214 H214       -7.7160  -24.0060  -50.7095 H         1 UNK         0.0600 
    215 H215       -4.4209  -26.4899  -51.5178 H         1 UNK         0.3000 
    216 H216       -5.3269  -26.4492  -54.3751 H         1 UNK         0.0600 
    217 H217       -4.8603  -28.8065  -52.4682 H         1 UNK         0.0600 
    218 H218       -5.3178  -28.9302  -54.1643 H         1 UNK         0.0600 
    219 H219       -6.4255  -28.2064  -53.0069 H         1 UNK         0.0600 
    220 H220       -2.7070  -27.5199  -52.1283 H         1 UNK         0.3000 
    221 H221       -0.8210  -27.9081  -54.3357 H         1 UNK         0.0600 
    222 H222       -0.8054  -29.4407  -52.4117 H         1 UNK         0.0600 
    223 H223       -0.4701  -28.1189  -51.3020 H         1 UNK         0.0600 
    224 H224        0.7222  -28.5818  -52.5061 H         1 UNK         0.0600 
    225 H225       -1.8977  -25.1543  -52.7109 H         1 UNK         0.3000 
    226 H226        0.3131  -23.5456  -53.7381 H         1 UNK         0.0600 
    227 H227       -0.6450  -23.3237  -50.8194 H         1 UNK         0.0600 
    228 H228        0.9368  -23.9272  -51.3132 H         1 UNK         0.0600 
    229 H229        0.4967  -22.2516  -51.6162 H         1 UNK         0.0600 
    230 H230       -0.4594  -21.5500  -54.4204 H         1 UNK         0.3000 
    231 H231       -3.3842  -21.1792  -54.5708 H         1 UNK         0.0600 
    232 H232       -1.0499  -19.6285  -55.8285 H         1 UNK         0.0600 
    233 H233       -2.7579  -19.3649  -56.1602 H         1 UNK         0.0600 
    234 H234       -2.0012  -20.8785  -56.6301 H         1 UNK         0.0600 
    235 H235       -4.4220  -19.3699  -53.7098 H         1 UNK         0.3000 
    236 H236       -3.2759  -18.2879  -51.2714 H         1 UNK         0.0600 
    237 H237       -5.5863  -19.1983  -51.3725 H         1 UNK         0.0600 
    238 H238       -5.5888  -17.5166  -50.8778 H         1 UNK         0.0600 
    239 H239       -6.0434  -17.9414  -52.5247 H         1 UNK         0.0600 
    240 H240       -2.5460  -17.2606  -54.1740 H         1 UNK         0.3000 
    241 H241       -1.8326  -15.4138  -55.1346 H         1 UNK         0.0600 
    242 H242       -5.4082  -13.9789  -55.2168 H         1 UNK         0.3800 
    243 H243       -4.9222  -15.5841  -54.7366 H         1 UNK         0.3800 
    244 H244       -1.7344  -14.2118  -52.3281 H         1 UNK         0.0800 
    245 H245       -0.9561  -13.5233  -53.7259 H         1 UNK         0.0800 
    246 H246        1.5641  -15.6008  -51.0788 H         1 UNK         0.0800 
    247 H247        0.5075  -14.2150  -51.0283 H         1 UNK         0.0800 
@<TRIPOS>BOND
     1    1    2 1    
     2    1  127 1    
     3    1  128 1    
     4    1  129 1    
     5    2    3 2    
     6    2    4 am   BACKBONE|DICT|INTERRES
     7    4    5 1    
     8    4  130 1    
     9    5    6 1    
    10    5   65 1    
    11    5  131 1    
    12    6    7 1    
    13    6  132 1    
    14    6  133 1    
    15    7    8 1    
    16    8    9 1    
    17    8  134 1    
    18    8  135 1    
    19    9   10 ar   
    20    9   14 ar   
    21   10   11 ar   
    22   10  136 1    
    23   11   12 ar   
    24   11  126 1    
    25   12   13 ar   
    26   12  137 1    
    27   13   14 ar   
    28   13   15 1    
    29   14  138 1    
    30   15   16 1    
    31   15  139 1    
    32   15  140 1    
    33   16   17 1    
    34   17   18 1    
    35   17  141 1    
    36   17  142 1    
    37   18   19 1    
    38   18   67 1    
    39   18  143 1    
    40   19   20 am   BACKBONE|DICT|INTERRES
    41   19  144 1    
    42   20   21 2    
    43   20   22 1    
    44   22   23 1    
    45   22   24 1    
    46   22  145 1    
    47   23  146 1    
    48   23  147 1    
    49   23  148 1    
    50   24   25 am   BACKBONE|DICT|INTERRES
    51   24  149 1    
    52   25   26 2    
    53   25   27 1    
    54   27   28 1    
    55   27   29 1    
    56   27  150 1    
    57   28  151 1    
    58   28  152 1    
    59   28  153 1    
    60   29   30 am   BACKBONE|DICT|INTERRES
    61   29  154 1    
    62   30   31 2    
    63   30   32 1    
    64   32   33 1    
    65   32   34 1    
    66   32  155 1    
    67   33  156 1    
    68   33  157 1    
    69   33  158 1    
    70   34   35 am   BACKBONE|DICT|INTERRES
    71   34  159 1    
    72   35   36 2    
    73   35   37 1    
    74   37   38 1    
    75   37   39 1    
    76   37  160 1    
    77   38  161 1    
    78   38  162 1    
    79   38  163 1    
    80   39   40 am   BACKBONE|DICT|INTERRES
    81   39  164 1    
    82   40   41 2    
    83   40   42 1    
    84   42   43 1    
    85   42   44 1    
    86   42  165 1    
    87   43  166 1    
    88   43  167 1    
    89   43  168 1    
    90   44   45 am   BACKBONE|DICT|INTERRES
    91   44  169 1    
    92   45   46 2    
    93   45   47 1    
    94   47   48 1    
    95   47   49 1    
    96   47  170 1    
    97   48  171 1    
    98   48  172 1    
    99   48  173 1    
   100   49   50 am   BACKBONE|DICT|INTERRES
   101   49  174 1    
   102   50   51 2    
   103   50   52 1    
   104   52   53 1    
   105   52   54 1    
   106   52  175 1    
   107   53  176 1    
   108   53  177 1    
   109   53  178 1    
   110   54   55 am   BACKBONE|DICT|INTERRES
   111   54  179 1    
   112   55   56 2    
   113   55   57 1    
   114   57   58 1    
   115   57   59 1    
   116   57  180 1    
   117   58  181 1    
   118   58  182 1    
   119   58  183 1    
   120   59   60 am   BACKBONE|DICT|INTERRES
   121   59  184 1    
   122   60   61 2    
   123   60   62 1    
   124   62   63 1    
   125   62   64 1    
   126   62  185 1    
   127   63  186 1    
   128   63  187 1    
   129   63  188 1    
   130   64   65 am   BACKBONE|DICT|INTERRES
   131   64  189 1    
   132   65   66 2    
   133   67   68 2    
   134   67   69 am   BACKBONE|DICT|INTERRES
   135   69   70 1    
   136   69  190 1    
   137   70   71 1    
   138   70   72 1    
   139   70  191 1    
   140   71  192 1    
   141   71  193 1    
   142   71  194 1    
   143   72   73 2    
   144   72   74 am   BACKBONE|DICT|INTERRES
   145   74   75 1    
   146   74  195 1    
   147   75   76 1    
   148   75   77 1    
   149   75  196 1    
   150   76  197 1    
   151   76  198 1    
   152   76  199 1    
   153   77   78 2    
   154   77   79 am   BACKBONE|DICT|INTERRES
   155   79   80 1    
   156   79  200 1    
   157   80   81 1    
   158   80   82 1    
   159   80  201 1    
   160   81  202 1    
   161   81  203 1    
   162   81  204 1    
   163   82   83 2    
   164   82   84 am   BACKBONE|DICT|INTERRES
   165   84   85 1    
   166   84  205 1    
   167   85   86 1    
   168   85   87 1    
   169   85  206 1    
   170   86  207 1    
   171   86  208 1    
   172   86  209 1    
   173   87   88 2    
   174   87   89 am   BACKBONE|DICT|INTERRES
   175   89   90 1    
   176   89  210 1    
   177   90   91 1    
   178   90   92 1    
   179   90  211 1    
   180   91  212 1    
   181   91  213 1    
   182   91  214 1    
   183   92   93 2    
   184   92   94 am   BACKBONE|DICT|INTERRES
   185   94   95 1    
   186   94  215 1    
   187   95   96 1    
   188   95   97 1    
   189   95  216 1    
   190   96  217 1    
   191   96  218 1    
   192   96  219 1    
   193   97   98 2    
   194   97   99 am   BACKBONE|DICT|INTERRES
   195   99  100 1    
   196   99  220 1    
   197  100  101 1    
   198  100  102 1    
   199  100  221 1    
   200  101  222 1    
   201  101  223 1    
   202  101  224 1    
   203  102  103 2    
   204  102  104 am   BACKBONE|DICT|INTERRES
   205  104  105 1    
   206  104  225 1    
   207  105  106 1    
   208  105  107 1    
   209  105  226 1    
   210  106  227 1    
   211  106  228 1    
   212  106  229 1    
   213  107  108 2    
   214  107  109 am   BACKBONE|DICT|INTERRES
   215  109  110 1    
   216  109  230 1    
   217  110  111 1    
   218  110  112 1    
   219  110  231 1    
   220  111  232 1    
   221  111  233 1    
   222  111  234 1    
   223  112  113 2    
   224  112  114 am   BACKBONE|DICT|INTERRES
   225  114  115 1    
   226  114  235 1    
   227  115  116 1    
   228  115  117 1    
   229  115  236 1    
   230  116  237 1    
   231  116  238 1    
   232  116  239 1    
   233  117  118 2    
   234  117  119 am   BACKBONE|DICT|INTERRES
   235  119  120 1    
   236  119  240 1    
   237  120  121 1    
   238  120  124 1    
   239  120  241 1    
   240  121  122 am   BACKBONE|DICT|INTERRES
   241  121  123 2    
   242  122  242 1    
   243  122  243 1    
   244  124  125 1    
   245  124  244 1    
   246  124  245 1    
   247  125  126 1    
   248  126  246 1    
   249  126  247 1    
@<TRIPOS>SUBSTRUCTURE
     1 UNK         1 GROUP             0       ****    0 ROOT    
