@<TRIPOS>MOLECULE
3R540
247   249    1
SMALL
USER_CHARGES


@<TRIPOS>ATOM
      1 CA         -4.1975  -10.2298  -49.0038 C.3       0 UNK        -0.1800 
      2 C          -3.1219  -11.0851  -48.3485 C.2       0 UNK         0.5000 
      3 O          -3.2277  -11.3921  -47.1607 O.2       0 UNK        -0.5000 
      4 N          -2.0986  -11.4743  -49.1227 N.am      1 UNK        -0.5000 
      5 CA         -0.9236  -12.2497  -48.7002 C.3       1 UNK         0.1400 
      6 C6         -1.3057  -13.6079  -48.0402 C.3       23 UNK        -0.0398 
      7 S7         -0.0943  -14.9316  -48.3749 S.3       23 UNK        -0.2404 
      8 C8         -0.9776  -15.8547  -49.6650 C.3       23 UNK        -0.0205 
      9 C9         -0.1312  -16.9863  -50.2214 C.ar      23 UNK        -0.0193 
     10 C10         0.7678  -16.7382  -51.2637 C.ar      23 UNK        -0.1150 
     11 C11         1.5409  -17.7756  -51.7918 C.ar      23 UNK        -0.0193 
     12 C12         1.4087  -19.0647  -51.2706 C.ar      23 UNK        -0.1150 
     13 C13         0.5156  -19.3251  -50.2290 C.ar      23 UNK        -0.0193 
     14 C14        -0.2546  -18.2813  -49.7065 C.ar      23 UNK        -0.1150 
     15 C15         0.3685  -20.7442  -49.7047 C.3       23 UNK        -0.0205 
     16 S16         1.5597  -21.1262  -48.3822 S.3       23 UNK        -0.2404 
     17 C17         0.5870  -20.7646  -46.8820 C.3       23 UNK        -0.0398 
     18 CA         -0.1184  -22.0258  -46.3170 C.3       11 UNK         0.1400 
     19 N          -0.4053  -21.9058  -44.8882 N.am      11 UNK        -0.5000 
     20 C          -0.9230  -22.8690  -44.1126 C.2       10 UNK         0.5000 
     21 O          -1.1644  -24.0123  -44.4992 O.2       10 UNK        -0.5000 
     22 CA         -1.2842  -22.4639  -42.6745 C.3       10 UNK         0.1400 
     23 CB         -0.0533  -22.5298  -41.7578 C.3       10 UNK        -0.1800 
     24 N          -1.8683  -21.1233  -42.6234 N.am      10 UNK        -0.5000 
     25 C          -3.0842  -20.8120  -43.0928 C.2       9 UNK         0.5000 
     26 O          -3.8592  -21.6330  -43.5844 O.2       9 UNK        -0.5000 
     27 CA         -3.4825  -19.3259  -43.0372 C.3       9 UNK         0.1400 
     28 CB         -3.9572  -18.9413  -41.6279 C.3       9 UNK        -0.1800 
     29 N          -2.3991  -18.4301  -43.4483 N.am      9 UNK        -0.5000 
     30 C          -1.9114  -18.3650  -44.6944 C.2       8 UNK         0.5000 
     31 O          -2.3112  -19.0636  -45.6244 O.2       8 UNK        -0.5000 
     32 CA         -0.7585  -17.3779  -44.9426 C.3       8 UNK         0.1400 
     33 CB         -1.2994  -15.9490  -45.0904 C.3       8 UNK        -0.1800 
     34 N           0.3077  -17.3796  -43.9379 N.am      8 UNK        -0.5000 
     35 C           0.9505  -18.4477  -43.4409 C.2       7 UNK         0.5000 
     36 O           0.5835  -19.6118  -43.5945 O.2       7 UNK        -0.5000 
     37 CA          2.2729  -18.1375  -42.7122 C.3       7 UNK         0.1400 
     38 CB          3.0536  -19.3977  -42.2859 C.3       7 UNK        -0.1800 
     39 N           3.0950  -17.2429  -43.5330 N.am      7 UNK        -0.5000 
     40 C           3.5628  -17.4746  -44.7705 C.2       6 UNK         0.5000 
     41 O           3.5799  -18.5801  -45.3115 O.2       6 UNK        -0.5000 
     42 CA          4.0370  -16.2451  -45.5660 C.3       6 UNK         0.1400 
     43 CB          2.9393  -15.8190  -46.5563 C.3       6 UNK        -0.1800 
     44 N           4.3627  -15.1127  -44.6951 N.am      6 UNK        -0.5000 
     45 C           5.5692  -14.9041  -44.1498 C.2       5 UNK         0.5000 
     46 O           6.5633  -15.5840  -44.4062 O.2       5 UNK        -0.5000 
     47 CA          5.6798  -13.7616  -43.1218 C.3       5 UNK         0.1400 
     48 CB          6.0781  -12.4459  -43.8047 C.3       5 UNK        -0.1800 
     49 N           4.4430  -13.5683  -42.3594 N.am      5 UNK        -0.5000 
     50 C           4.0221  -14.4084  -41.4011 C.2       4 UNK         0.5000 
     51 O           4.6506  -15.4072  -41.0514 O.2       4 UNK        -0.5000 
     52 CA          2.6661  -14.1136  -40.7307 C.3       4 UNK         0.1400 
     53 CB          2.8761  -13.3856  -39.3945 C.3       4 UNK        -0.1800 
     54 N           1.7411  -13.3346  -41.5544 N.am      4 UNK        -0.5000 
     55 C           1.2167  -13.7273  -42.7218 C.2       3 UNK         0.5000 
     56 O           1.4845  -14.8030  -43.2620 O.2       3 UNK        -0.5000 
     57 CA          0.2478  -12.7567  -43.4256 C.3       3 UNK         0.1400 
     58 CB         -0.1101  -11.5004  -42.6000 C.3       3 UNK        -0.1800 
     59 N           0.7416  -12.3706  -44.7487 N.am      3 UNK        -0.5000 
     60 C           1.9086  -11.7771  -45.0450 C.2       2 UNK         0.5000 
     61 O           2.7644  -11.5013  -44.2027 O.2       2 UNK        -0.5000 
     62 CA          2.1716  -11.4468  -46.5306 C.3       2 UNK         0.1400 
     63 CB          3.5677  -11.9148  -46.9727 C.3       2 UNK        -0.1800 
     64 N           1.1627  -12.0348  -47.4203 N.am      2 UNK        -0.5000 
     65 C           0.0512  -11.4120  -47.8337 C.2       1 UNK         0.5000 
     66 O          -0.2011  -10.2359  -47.5591 O.2       1 UNK        -0.5000 
     67 C          -1.3926  -22.3747  -47.1108 C.2       11 UNK         0.5000 
     68 O          -1.3906  -23.3517  -47.8577 O.2       11 UNK        -0.5000 
     69 N          -2.4662  -21.5973  -46.9046 N.am      12 UNK        -0.5000 
     70 CA         -3.7722  -21.7996  -47.5307 C.3       12 UNK         0.1400 
     71 CB         -4.7102  -20.6401  -47.1680 C.3       12 UNK        -0.1800 
     72 C          -4.4110  -23.1514  -47.1729 C.2       12 UNK         0.5000 
     73 O          -4.9699  -23.7990  -48.0576 O.2       12 UNK        -0.5000 
     74 N          -4.2848  -23.5675  -45.9043 N.am      13 UNK        -0.5000 
     75 CA         -4.7414  -24.8671  -45.4119 C.3       13 UNK         0.1400 
     76 CB         -4.6327  -24.9129  -43.8804 C.3       13 UNK        -0.1800 
     77 C          -3.9843  -26.0428  -46.0559 C.2       13 UNK         0.5000 
     78 O          -4.6223  -26.9888  -46.5186 O.2       13 UNK        -0.5000 
     79 N          -2.6479  -25.9463  -46.1192 N.am      14 UNK        -0.5000 
     80 CA         -1.7708  -26.9283  -46.7658 C.3       14 UNK         0.1400 
     81 CB         -0.3055  -26.5788  -46.4650 C.3       14 UNK        -0.1800 
     82 C          -2.0044  -27.0325  -48.2856 C.2       14 UNK         0.5000 
     83 O          -1.9631  -28.1307  -48.8405 O.2       14 UNK        -0.5000 
     84 N          -2.2867  -25.8877  -48.9173 N.am      15 UNK        -0.5000 
     85 CA         -2.6470  -25.7471  -50.3274 C.3       15 UNK         0.1400 
     86 CB         -2.3819  -24.2920  -50.7306 C.3       15 UNK        -0.1800 
     87 C          -4.1096  -26.1231  -50.6447 C.2       15 UNK         0.5000 
     88 O          -4.5076  -26.0290  -51.8096 O.2       15 UNK        -0.5000 
     89 N          -4.8948  -26.4790  -49.6144 N.am      16 UNK        -0.5000 
     90 CA         -6.3169  -26.8461  -49.6408 C.3       16 UNK         0.1400 
     91 CB         -6.4961  -28.2058  -50.3465 C.3       16 UNK        -0.1800 
     92 C          -7.2340  -25.7520  -50.2323 C.2       16 UNK         0.5000 
     93 O          -8.2969  -26.0674  -50.7698 O.2       16 UNK        -0.5000 
     94 N          -6.7808  -24.4905  -50.1596 N.am      17 UNK        -0.5000 
     95 CA         -7.3319  -23.2939  -50.8060 C.3       17 UNK         0.1400 
     96 CB         -8.6642  -22.8914  -50.1421 C.3       17 UNK        -0.1800 
     97 C          -7.4406  -23.4040  -52.3473 C.2       17 UNK         0.5000 
     98 O          -8.2376  -22.6851  -52.9528 O.2       17 UNK        -0.5000 
     99 N          -6.6520  -24.3037  -52.9526 N.am      18 UNK        -0.5000 
    100 CA        -6.6582  -24.6038  -54.3826 C.3       18 UNK         0.1400 
    101 CB        -6.8666  -26.1145  -54.5775 C.3       18 UNK        -0.1800 
    102 C         -5.3485  -24.1473  -55.0383 C.2       18 UNK         0.5000 
    103 O         -5.3875  -23.5042  -56.0874 O.2       18 UNK        -0.5000 
    104 N         -4.2130  -24.4629  -54.3999 N.am      19 UNK        -0.5000 
    105 CA        -2.8706  -24.0913  -54.8618 C.3       19 UNK         0.1400 
    106 CB        -1.8954  -25.2299  -54.5129 C.3       19 UNK        -0.1800 
    107 C         -2.3935  -22.7329  -54.3005 C.2       19 UNK         0.5000 
    108 O         -1.2387  -22.3616  -54.5122 O.2       19 UNK        -0.5000 
    109 N         -3.2747  -22.0235  -53.5872 N.am      20 UNK        -0.5000 
    110 CA        -3.0446  -20.7273  -52.9594 C.3       20 UNK         0.1400 
    111 CB        -2.6667  -20.9632  -51.4892 C.3       20 UNK        -0.1800 
    112 C         -4.3437  -19.9060  -53.0543 C.2       20 UNK         0.5000 
    113 O         -5.4117  -20.5043  -53.1985 O.2       20 UNK        -0.5000 
    114 N         -4.3071  -18.5727  -52.9305 N.am      21 UNK        -0.5000 
    115 CA        -3.1322  -17.7029  -52.8263 C.3       21 UNK         0.1400 
    116 CB        -3.5852  -16.3716  -52.2045 C.3       21 UNK        -0.1800 
    117 C         -2.4720  -17.4497  -54.1944 C.2       21 UNK         0.5000 
    118 O         -3.0901  -17.6875  -55.2343 O.2       21 UNK        -0.5000 
    119 N         -1.2344  -16.9421  -54.1605 N.am      22 UNK        -0.5000 
    120 CA        -0.4692  -16.5216  -55.3483 C.3       22 UNK         0.1400 
    121 C         -1.0061  -15.2380  -56.0526 C.2       22 UNK         0.5000 
    122 N         -1.8926  -14.4585  -55.4449 N.am      22 UNK        -0.7600 
    123 O         -0.6113  -14.9462  -57.1782 O.2       22 UNK        -0.5000 
    124 C124        1.0404  -16.3640  -55.0339 C.3       23 UNK        -0.0398 
    125 S125        1.8385  -17.9302  -54.5426 S.3       23 UNK        -0.2404 
    126 C126        2.5350  -17.5163  -52.9120 C.3       23 UNK        -0.0205 
    127 H127       -3.9849  -10.0462  -50.0573 H         1 UNK         0.0600 
    128 H128       -4.2692   -9.2665  -48.4987 H         1 UNK         0.0600 
    129 H129       -5.1656  -10.7256  -48.9339 H         1 UNK         0.0600 
    130 H130       -2.0737  -11.1570  -50.0817 H         1 UNK         0.3000 
    131 H131       -0.3915  -12.4595  -49.6295 H         1 UNK         0.0600 
    132 H132       -1.4354  -13.5036  -46.9620 H         1 UNK         0.0800 
    133 H133       -2.2770  -13.9429  -48.4070 H         1 UNK         0.0800 
    134 H134       -1.9124  -16.2463  -49.2603 H         1 UNK         0.0800 
    135 H135       -1.2465  -15.1662  -50.4663 H         1 UNK         0.0800 
    136 H136        0.8720  -15.7360  -51.6552 H         1 UNK         0.1150 
    137 H137        2.0033  -19.8698  -51.6796 H         1 UNK         0.1150 
    138 H138       -0.9518  -18.4762  -48.9036 H         1 UNK         0.1150 
    139 H139       -0.6515  -20.9092  -49.3613 H         1 UNK         0.0800 
    140 H140        0.5255  -21.4516  -50.5204 H         1 UNK         0.0800 
    141 H141       -0.1131  -19.9491  -47.0676 H         1 UNK         0.0800 
    142 H142        1.2959  -20.3796  -46.1472 H         1 UNK         0.0800 
    143 H143        0.5662  -22.8715  -46.4132 H         1 UNK         0.0600 
    144 H144       -0.1933  -21.0089  -44.4552 H         1 UNK         0.3000 
    145 H145       -2.0241  -23.1748  -42.3008 H         1 UNK         0.0600 
    146 H146       -0.3142  -22.2822  -40.7288 H         1 UNK         0.0600 
    147 H147        0.3731  -23.5336  -41.7528 H         1 UNK         0.0600 
    148 H148        0.7304  -21.8437  -42.0798 H         1 UNK         0.0600 
    149 H149       -1.2599  -20.3764  -42.3191 H         1 UNK         0.3000 
    150 H150       -4.3177  -19.1828  -43.7264 H         1 UNK         0.0600 
    151 H151       -4.7752  -19.5856  -41.3028 H         1 UNK         0.0600 
    152 H152       -4.3236  -17.9149  -41.6020 H         1 UNK         0.0600 
    153 H153       -3.1565  -19.0310  -40.8927 H         1 UNK         0.0600 
    154 H154       -1.9976  -17.8340  -42.7397 H         1 UNK         0.3000 
    155 H155       -0.2928  -17.6576  -45.8897 H         1 UNK         0.0600 
    156 H156       -0.5028  -15.2559  -45.3591 H         1 UNK         0.0600 
    157 H157       -1.7549  -15.5928  -44.1660 H         1 UNK         0.0600 
    158 H158       -2.0560  -15.8957  -45.8745 H         1 UNK         0.0600 
    159 H159        0.7087  -16.4684  -43.7327 H         1 UNK         0.3000 
    160 H160        2.0129  -17.5837  -41.8090 H         1 UNK         0.0600 
    161 H161        3.2831  -20.0450  -43.1327 H         1 UNK         0.0600 
    162 H162        2.4756  -19.9879  -41.5744 H         1 UNK         0.0600 
    163 H163        3.9933  -19.1323  -41.8015 H         1 UNK         0.0600 
    164 H164        3.1025  -16.2803  -43.2250 H         1 UNK         0.3000 
    165 H165        4.9168  -16.5425  -46.1405 H         1 UNK         0.0600 
    166 H166        2.0796  -15.3835  -46.0454 H         1 UNK         0.0600 
    167 H167        3.3145  -15.0918  -47.2742 H         1 UNK         0.0600 
    168 H168        2.5757  -16.6695  -47.1355 H         1 UNK         0.0600 
    169 H169        3.5944  -14.5203  -44.4121 H         1 UNK         0.3000 
    170 H170        6.4755  -14.0255  -42.4216 H         1 UNK         0.0600 
    171 H171        7.0243  -12.5534  -44.3365 H         1 UNK         0.0600 
    172 H172        5.3309  -12.1270  -44.5292 H         1 UNK         0.0600 
    173 H173        6.2028  -11.6444  -43.0765 H         1 UNK         0.0600 
    174 H174        3.8644  -12.7773  -42.6156 H         1 UNK         0.3000 
    175 H175        2.1925  -15.0756  -40.5237 H         1 UNK         0.0600 
    176 H176        3.3223  -12.4008  -39.5393 H         1 UNK         0.0600 
    177 H177        1.9330  -13.2533  -38.8639 H         1 UNK         0.0600 
    178 H178        3.5385  -13.9530  -38.7391 H         1 UNK         0.0600 
    179 H179        1.4875  -12.4231  -41.2021 H         1 UNK         0.3000 
    180 H180       -0.6743  -13.3157  -43.5879 H         1 UNK         0.0600 
    181 H181        0.7593  -10.8725  -42.4018 H         1 UNK         0.0600 
    182 H182       -0.5565  -11.7698  -41.6419 H         1 UNK         0.0600 
    183 H183       -0.8407  -10.8874  -43.1281 H         1 UNK         0.0600 
    184 H184        0.1253  -12.5759  -45.5193 H         1 UNK         0.3000 
    185 H185        2.1490  -10.3591  -46.6228 H         1 UNK         0.0600 
    186 H186        3.7012  -11.8119  -48.0497 H         1 UNK         0.0600 
    187 H187        4.3425  -11.3133  -46.4972 H         1 UNK         0.0600 
    188 H188        3.7532  -12.9534  -46.7057 H         1 UNK         0.0600 
    189 H189        1.3072  -12.9994  -47.6902 H         1 UNK         0.3000 
    190 H190       -2.3846  -20.7881  -46.2926 H         1 UNK         0.3000 
    191 H191       -3.6221  -21.7840  -48.6106 H         1 UNK         0.0600 
    192 H192       -4.3114  -19.6879  -47.5183 H         1 UNK         0.0600 
    193 H193       -4.8575  -20.5646  -46.0899 H         1 UNK         0.0600 
    194 H194       -5.6908  -20.7707  -47.6276 H         1 UNK         0.0600 
    195 H195       -3.8484  -22.9512  -45.2276 H         1 UNK         0.3000 
    196 H196       -5.7959  -24.9689  -45.6766 H         1 UNK         0.0600 
    197 H197       -4.9884  -25.8680  -43.4922 H         1 UNK         0.0600 
    198 H198       -5.2353  -24.1300  -43.4198 H         1 UNK         0.0600 
    199 H199       -3.6043  -24.7839  -43.5432 H         1 UNK         0.0600 
    200 H200       -2.1914  -25.1449  -45.6911 H         1 UNK         0.3000 
    201 H201       -1.9849  -27.9062  -46.3297 H         1 UNK         0.0600 
    202 H202       -0.1124  -26.5825  -45.3922 H         1 UNK         0.0600 
    203 H203       -0.0407  -25.5924  -46.8477 H         1 UNK         0.0600 
    204 H204        0.3715  -27.3023  -46.9208 H         1 UNK         0.0600 
    205 H205       -2.2206  -25.0215  -48.3890 H         1 UNK         0.3000 
    206 H206       -2.0062  -26.3974  -50.9259 H         1 UNK         0.0600 
    207 H207       -1.3250  -24.0408  -50.6389 H         1 UNK         0.0600 
    208 H208       -2.6755  -24.0995  -51.7591 H         1 UNK         0.0600 
    209 H209       -2.9465  -23.6045  -50.1024 H         1 UNK         0.0600 
    210 H210       -4.4786  -26.4740  -48.6916 H         1 UNK         0.3000 
    211 H211       -6.6202  -26.9660  -48.6000 H         1 UNK         0.0600 
    212 H212       -6.2692  -28.1400  -51.4112 H         1 UNK         0.0600 
    213 H213       -7.5206  -28.5671  -50.2512 H         1 UNK         0.0600 
    214 H214       -5.8452  -28.9639  -49.9108 H         1 UNK         0.0600 
    215 H215       -5.9410  -24.3353  -49.6063 H         1 UNK         0.3000 
    216 H216       -6.6144  -22.4944  -50.6155 H         1 UNK         0.0600 
    217 H217       -8.5539  -22.8043  -49.0611 H         1 UNK         0.0600 
    218 H218       -9.4510  -23.6193  -50.3421 H         1 UNK         0.0600 
    219 H219       -9.0106  -21.9250  -50.5097 H         1 UNK         0.0600 
    220 H220       -6.0272  -24.8627  -52.3808 H         1 UNK         0.3000 
    221 H221       -7.4784  -24.0850  -54.8831 H         1 UNK         0.0600 
    222 H222       -6.0806  -26.6991  -54.0976 H         1 UNK         0.0600 
    223 H223       -7.8204  -26.4344  -54.1574 H         1 UNK         0.0600 
    224 H224       -6.8724  -26.3754  -55.6365 H         1 UNK         0.0600 
    225 H225       -4.2639  -25.0056  -53.5438 H         1 UNK         0.3000 
    226 H226       -2.8758  -23.9922  -55.9492 H         1 UNK         0.0600 
    227 H227       -2.2066  -26.1657  -54.9774 H         1 UNK         0.0600 
    228 H228       -0.8894  -25.0122  -54.8735 H         1 UNK         0.0600 
    229 H229       -1.8284  -25.4006  -53.4395 H         1 UNK         0.0600 
    230 H230       -4.2307  -22.3491  -53.5305 H         1 UNK         0.3000 
    231 H231       -2.2370  -20.2091  -53.4777 H         1 UNK         0.0600 
    232 H232       -2.4617  -20.0323  -50.9628 H         1 UNK         0.0600 
    233 H233       -1.7749  -21.5833  -51.4163 H         1 UNK         0.0600 
    234 H234       -3.4725  -21.4647  -50.9539 H         1 UNK         0.0600 
    235 H235       -5.1841  -18.0817  -53.0141 H         1 UNK         0.3000 
    236 H236       -2.3883  -18.1487  -52.1661 H         1 UNK         0.0600 
    237 H237       -3.9587  -16.5186  -51.1908 H         1 UNK         0.0600 
    238 H238       -2.7649  -15.6570  -52.1466 H         1 UNK         0.0600 
    239 H239       -4.3787  -15.9040  -52.7890 H         1 UNK         0.0600 
    240 H240       -0.7774  -16.8022  -53.2715 H         1 UNK         0.3000 
    241 H241       -0.5645  -17.3187  -56.0884 H         1 UNK         0.0600 
    242 H242       -2.2307  -14.6802  -54.5236 H         1 UNK         0.3800 
    243 H243       -2.2316  -13.6352  -55.9178 H         1 UNK         0.3800 
    244 H244        1.5793  -16.0043  -55.9125 H         1 UNK         0.0800 
    245 H245        1.1867  -15.6057  -54.2636 H         1 UNK         0.0800 
    246 H246        2.8820  -16.4821  -52.8945 H         1 UNK         0.0800 
    247 H247        3.4232  -18.1290  -52.7509 H         1 UNK         0.0800 
@<TRIPOS>BOND
     1    1    2 1    
     2    1  127 1    
     3    1  128 1    
     4    1  129 1    
     5    2    3 2    
     6    2    4 am   BACKBONE|DICT|INTERRES
     7    4    5 1    
     8    4  130 1    
     9    5    6 1    
    10    5   65 1    
    11    5  131 1    
    12    6    7 1    
    13    6  132 1    
    14    6  133 1    
    15    7    8 1    
    16    8    9 1    
    17    8  134 1    
    18    8  135 1    
    19    9   10 ar   
    20    9   14 ar   
    21   10   11 ar   
    22   10  136 1    
    23   11   12 ar   
    24   11  126 1    
    25   12   13 ar   
    26   12  137 1    
    27   13   14 ar   
    28   13   15 1    
    29   14  138 1    
    30   15   16 1    
    31   15  139 1    
    32   15  140 1    
    33   16   17 1    
    34   17   18 1    
    35   17  141 1    
    36   17  142 1    
    37   18   19 1    
    38   18   67 1    
    39   18  143 1    
    40   19   20 am   BACKBONE|DICT|INTERRES
    41   19  144 1    
    42   20   21 2    
    43   20   22 1    
    44   22   23 1    
    45   22   24 1    
    46   22  145 1    
    47   23  146 1    
    48   23  147 1    
    49   23  148 1    
    50   24   25 am   BACKBONE|DICT|INTERRES
    51   24  149 1    
    52   25   26 2    
    53   25   27 1    
    54   27   28 1    
    55   27   29 1    
    56   27  150 1    
    57   28  151 1    
    58   28  152 1    
    59   28  153 1    
    60   29   30 am   BACKBONE|DICT|INTERRES
    61   29  154 1    
    62   30   31 2    
    63   30   32 1    
    64   32   33 1    
    65   32   34 1    
    66   32  155 1    
    67   33  156 1    
    68   33  157 1    
    69   33  158 1    
    70   34   35 am   BACKBONE|DICT|INTERRES
    71   34  159 1    
    72   35   36 2    
    73   35   37 1    
    74   37   38 1    
    75   37   39 1    
    76   37  160 1    
    77   38  161 1    
    78   38  162 1    
    79   38  163 1    
    80   39   40 am   BACKBONE|DICT|INTERRES
    81   39  164 1    
    82   40   41 2    
    83   40   42 1    
    84   42   43 1    
    85   42   44 1    
    86   42  165 1    
    87   43  166 1    
    88   43  167 1    
    89   43  168 1    
    90   44   45 am   BACKBONE|DICT|INTERRES
    91   44  169 1    
    92   45   46 2    
    93   45   47 1    
    94   47   48 1    
    95   47   49 1    
    96   47  170 1    
    97   48  171 1    
    98   48  172 1    
    99   48  173 1    
   100   49   50 am   BACKBONE|DICT|INTERRES
   101   49  174 1    
   102   50   51 2    
   103   50   52 1    
   104   52   53 1    
   105   52   54 1    
   106   52  175 1    
   107   53  176 1    
   108   53  177 1    
   109   53  178 1    
   110   54   55 am   BACKBONE|DICT|INTERRES
   111   54  179 1    
   112   55   56 2    
   113   55   57 1    
   114   57   58 1    
   115   57   59 1    
   116   57  180 1    
   117   58  181 1    
   118   58  182 1    
   119   58  183 1    
   120   59   60 am   BACKBONE|DICT|INTERRES
   121   59  184 1    
   122   60   61 2    
   123   60   62 1    
   124   62   63 1    
   125   62   64 1    
   126   62  185 1    
   127   63  186 1    
   128   63  187 1    
   129   63  188 1    
   130   64   65 am   BACKBONE|DICT|INTERRES
   131   64  189 1    
   132   65   66 2    
   133   67   68 2    
   134   67   69 am   BACKBONE|DICT|INTERRES
   135   69   70 1    
   136   69  190 1    
   137   70   71 1    
   138   70   72 1    
   139   70  191 1    
   140   71  192 1    
   141   71  193 1    
   142   71  194 1    
   143   72   73 2    
   144   72   74 am   BACKBONE|DICT|INTERRES
   145   74   75 1    
   146   74  195 1    
   147   75   76 1    
   148   75   77 1    
   149   75  196 1    
   150   76  197 1    
   151   76  198 1    
   152   76  199 1    
   153   77   78 2    
   154   77   79 am   BACKBONE|DICT|INTERRES
   155   79   80 1    
   156   79  200 1    
   157   80   81 1    
   158   80   82 1    
   159   80  201 1    
   160   81  202 1    
   161   81  203 1    
   162   81  204 1    
   163   82   83 2    
   164   82   84 am   BACKBONE|DICT|INTERRES
   165   84   85 1    
   166   84  205 1    
   167   85   86 1    
   168   85   87 1    
   169   85  206 1    
   170   86  207 1    
   171   86  208 1    
   172   86  209 1    
   173   87   88 2    
   174   87   89 am   BACKBONE|DICT|INTERRES
   175   89   90 1    
   176   89  210 1    
   177   90   91 1    
   178   90   92 1    
   179   90  211 1    
   180   91  212 1    
   181   91  213 1    
   182   91  214 1    
   183   92   93 2    
   184   92   94 am   BACKBONE|DICT|INTERRES
   185   94   95 1    
   186   94  215 1    
   187   95   96 1    
   188   95   97 1    
   189   95  216 1    
   190   96  217 1    
   191   96  218 1    
   192   96  219 1    
   193   97   98 2    
   194   97   99 am   BACKBONE|DICT|INTERRES
   195   99  100 1    
   196   99  220 1    
   197  100  101 1    
   198  100  102 1    
   199  100  221 1    
   200  101  222 1    
   201  101  223 1    
   202  101  224 1    
   203  102  103 2    
   204  102  104 am   BACKBONE|DICT|INTERRES
   205  104  105 1    
   206  104  225 1    
   207  105  106 1    
   208  105  107 1    
   209  105  226 1    
   210  106  227 1    
   211  106  228 1    
   212  106  229 1    
   213  107  108 2    
   214  107  109 am   BACKBONE|DICT|INTERRES
   215  109  110 1    
   216  109  230 1    
   217  110  111 1    
   218  110  112 1    
   219  110  231 1    
   220  111  232 1    
   221  111  233 1    
   222  111  234 1    
   223  112  113 2    
   224  112  114 am   BACKBONE|DICT|INTERRES
   225  114  115 1    
   226  114  235 1    
   227  115  116 1    
   228  115  117 1    
   229  115  236 1    
   230  116  237 1    
   231  116  238 1    
   232  116  239 1    
   233  117  118 2    
   234  117  119 am   BACKBONE|DICT|INTERRES
   235  119  120 1    
   236  119  240 1    
   237  120  121 1    
   238  120  124 1    
   239  120  241 1    
   240  121  122 am   BACKBONE|DICT|INTERRES
   241  121  123 2    
   242  122  242 1    
   243  122  243 1    
   244  124  125 1    
   245  124  244 1    
   246  124  245 1    
   247  125  126 1    
   248  126  246 1    
   249  126  247 1    
@<TRIPOS>SUBSTRUCTURE
     1 UNK         1 GROUP             0       ****    0 ROOT    
