@<TRIPOS>MOLECULE
3R540
247   249    1
SMALL
USER_CHARGES


@<TRIPOS>ATOM
      1 CA         -0.4761   -9.1624  -46.3910 C.3       0 UNK        -0.1800 
      2 C          -0.1761  -10.5924  -45.9684 C.2       0 UNK         0.5000 
      3 O           0.6633  -10.8095  -45.0940 O.2       0 UNK        -0.5000 
      4 N          -0.8718  -11.5706  -46.5639 N.am      1 UNK        -0.5000 
      5 CA         -0.6744  -13.0090  -46.3270 C.3       1 UNK         0.1400 
      6 C6         -1.4268  -13.8901  -47.3536 C.3       23 UNK        -0.0398 
      7 S7         -0.8757  -13.5754  -49.0628 S.3       23 UNK        -0.2404 
      8 C8         -2.1589  -14.4445  -50.0197 C.3       23 UNK        -0.0205 
      9 C9         -2.1125  -15.9529  -49.8183 C.ar      23 UNK        -0.0193 
     10 C10        -1.0308  -16.6932  -50.3074 C.ar      23 UNK        -0.1150 
     11 C11        -0.9849  -18.0784  -50.1327 C.ar      23 UNK        -0.0193 
     12 C12        -2.0404  -18.7250  -49.4881 C.ar      23 UNK        -0.1150 
     13 C13        -3.1205  -17.9980  -48.9803 C.ar      23 UNK        -0.0193 
     14 C14        -3.1524  -16.6106  -49.1512 C.ar      23 UNK        -0.1150 
     15 C15        -4.2498  -18.7164  -48.2529 C.3       23 UNK        -0.0205 
     16 S16        -4.1948  -18.5025  -46.4399 S.3       23 UNK        -0.2404 
     17 C17        -2.4744  -18.9283  -45.9938 C.3       23 UNK        -0.0398 
     18 CA         -2.0278  -20.3622  -46.3715 C.3       11 UNK         0.1400 
     19 N          -0.5696  -20.4704  -46.4328 N.am      11 UNK        -0.5000 
     20 C           0.1085  -21.4427  -47.0535 C.2       10 UNK         0.5000 
     21 O          -0.4353  -22.3170  -47.7241 O.2       10 UNK        -0.5000 
     22 CA          1.6401  -21.4681  -46.8625 C.3       10 UNK         0.1400 
     23 CB          2.3577  -20.6547  -47.9450 C.3       10 UNK        -0.1800 
     24 N           2.0571  -20.9815  -45.5474 N.am      10 UNK        -0.5000 
     25 C           1.8359  -21.6371  -44.4009 C.2       9 UNK         0.5000 
     26 O           1.3001  -22.7434  -44.3455 O.2       9 UNK        -0.5000 
     27 CA          2.2357  -20.9179  -43.0987 C.3       9 UNK         0.1400 
     28 CB          3.7343  -21.0954  -42.8142 C.3       9 UNK        -0.1800 
     29 N           1.9056  -19.4917  -43.1185 N.am      9 UNK        -0.5000 
     30 C           0.6599  -19.0016  -43.1960 C.2       8 UNK         0.5000 
     31 O          -0.3503  -19.7041  -43.2000 O.2       8 UNK        -0.5000 
     32 CA          0.5198  -17.4788  -43.3632 C.3       8 UNK         0.1400 
     33 CB          0.6551  -16.7607  -42.0121 C.3       8 UNK        -0.1800 
     34 N           1.4865  -16.9356  -44.3169 N.am      8 UNK        -0.5000 
     35 C           1.5268  -17.2459  -45.6198 C.2       7 UNK         0.5000 
     36 O           0.7340  -18.0103  -46.1621 O.2       7 UNK        -0.5000 
     37 CA          2.6780  -16.6568  -46.4494 C.3       7 UNK         0.1400 
     38 CB          2.3401  -15.2424  -46.9324 C.3       7 UNK        -0.1800 
     39 N           3.9310  -16.6386  -45.6986 N.am      7 UNK        -0.5000 
     40 C           4.6315  -17.7362  -45.3826 C.2       6 UNK         0.5000 
     41 O           4.3163  -18.8743  -45.7318 O.2       6 UNK        -0.5000 
     42 CA          5.8668  -17.5243  -44.4894 C.3       6 UNK         0.1400 
     43 CB          7.0759  -17.0833  -45.3278 C.3       6 UNK        -0.1800 
     44 N           5.6257  -16.5445  -43.4278 N.am      6 UNK        -0.5000 
     45 C           4.7813  -16.7393  -42.4056 C.2       5 UNK         0.5000 
     46 O           4.1368  -17.7752  -42.2409 O.2       5 UNK        -0.5000 
     47 CA          4.6003  -15.5693  -41.4208 C.3       5 UNK         0.1400 
     48 CB          5.6904  -15.6032  -40.3393 C.3       5 UNK        -0.1800 
     49 N           4.5823  -14.2443  -42.0501 N.am      5 UNK        -0.5000 
     50 C           3.6942  -13.8439  -42.9697 C.2       4 UNK         0.5000 
     51 O           2.8570  -14.5875  -43.4798 O.2       4 UNK        -0.5000 
     52 CA          3.7409  -12.3645  -43.3870 C.3       4 UNK         0.1400 
     53 CB          3.9485  -12.2139  -44.9020 C.3       4 UNK        -0.1800 
     54 N           2.5055  -11.6850  -43.0035 N.am      4 UNK        -0.5000 
     55 C           2.1717  -11.3685  -41.7451 C.2       3 UNK         0.5000 
     56 O           2.8980  -11.5767  -40.7722 O.2       3 UNK        -0.5000 
     57 CA          0.8020  -10.7055  -41.5359 C.3       3 UNK         0.1400 
     58 CB          0.8506   -9.2205  -41.9310 C.3       3 UNK        -0.1800 
     59 N          -0.2442  -11.3761  -42.3066 N.am      3 UNK        -0.5000 
     60 C          -1.0477  -12.3354  -41.8253 C.2       2 UNK         0.5000 
     61 O          -0.9703  -12.7767  -40.6782 O.2       2 UNK        -0.5000 
     62 CA         -2.1459  -12.8790  -42.7625 C.3       2 UNK         0.1400 
     63 CB         -3.4947  -12.2137  -42.4473 C.3       2 UNK        -0.1800 
     64 N          -1.8390  -12.6715  -44.1777 N.am      2 UNK        -0.5000 
     65 C          -1.0133  -13.4516  -44.8874 C.2       1 UNK         0.5000 
     66 O          -0.5123  -14.4815  -44.4445 O.2       1 UNK        -0.5000 
     67 C          -2.6414  -21.4487  -45.4670 C.2       11 UNK         0.5000 
     68 O          -3.6615  -22.0313  -45.8341 O.2       11 UNK        -0.5000 
     69 N          -1.9759  -21.7712  -44.3481 N.am      12 UNK        -0.5000 
     70 CA         -2.3175  -22.8979  -43.4735 C.3       12 UNK         0.1400 
     71 CB         -1.4978  -22.8120  -42.1775 C.3       12 UNK        -0.1800 
     72 C          -2.1339  -24.2702  -44.1567 C.2       12 UNK         0.5000 
     73 O          -2.8663  -25.2072  -43.8389 O.2       12 UNK        -0.5000 
     74 N          -1.2024  -24.3503  -45.1182 N.am      13 UNK        -0.5000 
     75 CA         -0.9970  -25.4946  -46.0127 C.3       13 UNK         0.1400 
     76 CB          0.4477  -25.4687  -46.5393 C.3       13 UNK        -0.1800 
     77 C          -2.0211  -25.5690  -47.1716 C.2       13 UNK         0.5000 
     78 O          -1.9598  -26.5164  -47.9561 O.2       13 UNK        -0.5000 
     79 N          -2.9490  -24.6014  -47.2280 N.am      14 UNK        -0.5000 
     80 CA         -4.0789  -24.4267  -48.1421 C.3       14 UNK         0.1400 
     81 CB         -4.9314  -25.7046  -48.2711 C.3       14 UNK        -0.1800 
     82 C          -3.6861  -23.8723  -49.5221 C.2       14 UNK         0.5000 
     83 O          -2.6840  -24.2781  -50.1145 O.2       14 UNK        -0.5000 
     84 N          -4.5443  -22.9790  -50.0335 N.am      15 UNK        -0.5000 
     85 CA         -4.4792  -22.4241  -51.3875 C.3       15 UNK         0.1400 
     86 CB         -5.0920  -21.0143  -51.3869 C.3       15 UNK        -0.1800 
     87 C          -5.1744  -23.3128  -52.4387 C.2       15 UNK         0.5000 
     88 O          -5.1070  -22.9801  -53.6219 O.2       15 UNK        -0.5000 
     89 N          -5.8236  -24.4017  -51.9968 N.am      16 UNK        -0.5000 
     90 CA         -6.5681  -25.3888  -52.7873 C.3       16 UNK         0.1400 
     91 CB         -5.6312  -26.1566  -53.7412 C.3       16 UNK        -0.1800 
     92 C          -7.7754  -24.7583  -53.5065 C.2       16 UNK         0.5000 
     93 O          -7.8279  -24.7374  -54.7360 O.2       16 UNK        -0.5000 
     94 N          -8.7121  -24.2261  -52.7070 N.am      17 UNK        -0.5000 
     95 CA         -9.9530  -23.5622  -53.1322 C.3       17 UNK         0.1400 
     96 CB        -10.9096  -24.5640  -53.8139 C.3       17 UNK        -0.1800 
     97 C          -9.6896  -22.2992  -53.9796 C.2       17 UNK         0.5000 
     98 O         -10.3499  -22.0775  -54.9961 O.2       17 UNK        -0.5000 
     99 N          -8.7098  -21.5020  -53.5282 N.am      18 UNK        -0.5000 
    100 CA        -8.2395  -20.2448  -54.1210 C.3       18 UNK         0.1400 
    101 CB        -9.3540  -19.1767  -54.1228 C.3       18 UNK        -0.1800 
    102 C         -7.5620  -20.4111  -55.4992 C.2       18 UNK         0.5000 
    103 O         -7.5148  -19.4557  -56.2757 O.2       18 UNK        -0.5000 
    104 N         -7.0010  -21.5999  -55.7659 N.am      19 UNK        -0.5000 
    105 CA        -6.1588  -21.8748  -56.9349 C.3       19 UNK         0.1400 
    106 CB        -6.0788  -23.3936  -57.1485 C.3       19 UNK        -0.1800 
    107 C         -4.7406  -21.2811  -56.8020 C.2       19 UNK         0.5000 
    108 O         -4.0284  -21.1921  -57.8026 O.2       19 UNK        -0.5000 
    109 N         -4.3646  -20.9039  -55.5706 N.am      20 UNK        -0.5000 
    110 CA        -3.0581  -20.4091  -55.1338 C.3       20 UNK         0.1400 
    111 CB        -2.6705  -19.1000  -55.8527 C.3       20 UNK        -0.1800 
    112 C         -1.9788  -21.5050  -55.2111 C.2       20 UNK         0.5000 
    113 O         -0.8509  -21.2402  -55.6308 O.2       20 UNK        -0.5000 
    114 N         -2.3509  -22.7246  -54.7906 N.am      21 UNK        -0.5000 
    115 CA        -1.4410  -23.8655  -54.6565 C.3       21 UNK         0.1400 
    116 CB        -2.2483  -25.1378  -54.3667 C.3       21 UNK        -0.1800 
    117 C         -0.3735  -23.6382  -53.5695 C.2       21 UNK         0.5000 
    118 O          0.7828  -24.0100  -53.7730 O.2       21 UNK        -0.5000 
    119 N         -0.7816  -22.9858  -52.4706 N.am      22 UNK        -0.5000 
    120 CA         0.0726  -22.4984  -51.3758 C.3       22 UNK         0.1400 
    121 C          0.8680  -23.6316  -50.6634 C.2       22 UNK         0.5000 
    122 N          0.1927  -24.6958  -50.2491 N.am      22 UNK        -0.7600 
    123 O          2.0813  -23.5581  -50.4856 O.2       22 UNK        -0.5000 
    124 C124        0.9373  -21.2881  -51.8313 C.3       23 UNK        -0.0398 
    125 S125       -0.1026  -19.8110  -52.1163 S.3       23 UNK        -0.2404 
    126 C126        0.2205  -18.8842  -50.5839 C.3       23 UNK        -0.0205 
    127 H127        0.4229   -8.6958  -46.7934 H         1 UNK         0.0600 
    128 H128       -0.8083   -8.5801  -45.5316 H         1 UNK         0.0600 
    129 H129       -1.2536   -9.1196  -47.1541 H         1 UNK         0.0600 
    130 H130       -1.5429  -11.3355  -47.2816 H         1 UNK         0.3000 
    131 H131        0.3925  -13.1925  -46.4540 H         1 UNK         0.0600 
    132 H132       -1.2629  -14.9497  -47.1446 H         1 UNK         0.0800 
    133 H133       -2.5033  -13.7235  -47.2866 H         1 UNK         0.0800 
    134 H134       -2.0155  -14.2251  -51.0786 H         1 UNK         0.0800 
    135 H135       -3.1393  -14.0446  -49.7563 H         1 UNK         0.0800 
    136 H136       -0.2183  -16.1859  -50.8085 H         1 UNK         0.1150 
    137 H137       -2.0045  -19.7985  -49.3763 H         1 UNK         0.1150 
    138 H138       -3.9880  -16.0455  -48.7627 H         1 UNK         0.1150 
    139 H139       -5.2063  -18.3410  -48.6192 H         1 UNK         0.0800 
    140 H140       -4.2431  -19.7821  -48.4828 H         1 UNK         0.0800 
    141 H141       -2.3365  -18.7504  -44.9262 H         1 UNK         0.0800 
    142 H142       -1.8370  -18.1976  -46.4926 H         1 UNK         0.0800 
    143 H143       -2.3908  -20.5816  -47.3731 H         1 UNK         0.0600 
    144 H144       -0.0419  -19.7171  -46.0000 H         1 UNK         0.3000 
    145 H145        1.9661  -22.5061  -46.9557 H         1 UNK         0.0600 
    146 H146        3.4383  -20.6746  -47.8028 H         1 UNK         0.0600 
    147 H147        2.1575  -21.0740  -48.9282 H         1 UNK         0.0600 
    148 H148        2.0401  -19.6122  -47.9483 H         1 UNK         0.0600 
    149 H149        2.5415  -20.0917  -45.5198 H         1 UNK         0.3000 
    150 H150        1.6776  -21.3782  -42.2809 H         1 UNK         0.0600 
    151 H151        4.0031  -22.1518  -42.7788 H         1 UNK         0.0600 
    152 H152        4.0066  -20.6575  -41.8537 H         1 UNK         0.0600 
    153 H153        4.3493  -20.6242  -43.5814 H         1 UNK         0.0600 
    154 H154        2.6843  -18.8415  -43.0672 H         1 UNK         0.3000 
    155 H155       -0.4786  -17.2751  -43.7554 H         1 UNK         0.0600 
    156 H156        1.6291  -16.9365  -41.5571 H         1 UNK         0.0600 
    157 H157       -0.1032  -17.1081  -41.3097 H         1 UNK         0.0600 
    158 H158        0.5269  -15.6835  -42.1233 H         1 UNK         0.0600 
    159 H159        2.1181  -16.2190  -43.9676 H         1 UNK         0.3000 
    160 H160        2.8157  -17.2884  -47.3295 H         1 UNK         0.0600 
    161 H161        2.1656  -14.5747  -46.0907 H         1 UNK         0.0600 
    162 H162        1.4375  -15.2479  -47.5448 H         1 UNK         0.0600 
    163 H163        3.1441  -14.8238  -47.5375 H         1 UNK         0.0600 
    164 H164        4.2196  -15.7504  -45.3165 H         1 UNK         0.3000 
    165 H165        6.1069  -18.4817  -44.0218 H         1 UNK         0.0600 
    166 H166        7.9735  -17.0054  -44.7141 H         1 UNK         0.0600 
    167 H167        7.2857  -17.8050  -46.1184 H         1 UNK         0.0600 
    168 H168        6.9082  -16.1157  -45.8024 H         1 UNK         0.0600 
    169 H169        6.1156  -15.6643  -43.4905 H         1 UNK         0.3000 
    170 H170        3.6356  -15.7060  -40.9287 H         1 UNK         0.0600 
    171 H171        5.7139  -16.5720  -39.8383 H         1 UNK         0.0600 
    172 H172        6.6813  -15.4267  -40.7596 H         1 UNK         0.0600 
    173 H173        5.5104  -14.8482  -39.5737 H         1 UNK         0.0600 
    174 H174        5.2291  -13.5654  -41.6752 H         1 UNK         0.3000 
    175 H175        4.5792  -11.8789  -42.8831 H         1 UNK         0.0600 
    176 H176        3.0833  -12.5643  -45.4642 H         1 UNK         0.0600 
    177 H177        4.1125  -11.1704  -45.1710 H         1 UNK         0.0600 
    178 H178        4.8177  -12.7790  -45.2407 H         1 UNK         0.0600 
    179 H179        1.8503  -11.4771  -43.7520 H         1 UNK         0.3000 
    180 H180        0.5663  -10.7547  -40.4706 H         1 UNK         0.0600 
    181 H181        1.0821   -9.0871  -42.9883 H         1 UNK         0.0600 
    182 H182        1.6130   -8.6902  -41.3591 H         1 UNK         0.0600 
    183 H183       -0.1029   -8.7303  -41.7337 H         1 UNK         0.0600 
    184 H184       -0.3112  -11.1232  -43.2846 H         1 UNK         0.3000 
    185 H185       -2.2439  -13.9499  -42.5707 H         1 UNK         0.0600 
    186 H186       -3.7736  -12.3707  -41.4045 H         1 UNK         0.0600 
    187 H187       -3.4634  -11.1371  -42.6202 H         1 UNK         0.0600 
    188 H188       -4.2930  -12.6302  -43.0619 H         1 UNK         0.0600 
    189 H189       -2.2221  -11.8466  -44.6159 H         1 UNK         0.3000 
    190 H190       -1.1825  -21.2006  -44.0684 H         1 UNK         0.3000 
    191 H191       -3.3729  -22.8031  -43.2100 H         1 UNK         0.0600 
    192 H192       -0.4294  -22.9108  -42.3660 H         1 UNK         0.0600 
    193 H193       -1.7818  -23.6047  -41.4843 H         1 UNK         0.0600 
    194 H194       -1.6611  -21.8613  -41.6695 H         1 UNK         0.0600 
    195 H195       -0.6035  -23.5486  -45.2703 H         1 UNK         0.3000 
    196 H196       -1.1166  -26.4084  -45.4273 H         1 UNK         0.0600 
    197 H197        0.6719  -26.3729  -47.1061 H         1 UNK         0.0600 
    198 H198        1.1666  -25.4119  -45.7218 H         1 UNK         0.0600 
    199 H199        0.6237  -24.6212  -47.1999 H         1 UNK         0.0600 
    200 H200       -2.8656  -23.8563  -46.5477 H         1 UNK         0.3000 
    201 H201       -4.7066  -23.6775  -47.6580 H         1 UNK         0.0600 
    202 H202       -5.8690  -25.4966  -48.7872 H         1 UNK         0.0600 
    203 H203       -5.1853  -26.1114  -47.2921 H         1 UNK         0.0600 
    204 H204       -4.4189  -26.4830  -48.8371 H         1 UNK         0.0600 
    205 H205       -5.3378  -22.6942  -49.4766 H         1 UNK         0.3000 
    206 H206       -3.4349  -22.3305  -51.6874 H         1 UNK         0.0600 
    207 H207       -4.5190  -20.3408  -50.7516 H         1 UNK         0.0600 
    208 H208       -5.0910  -20.5782  -52.3864 H         1 UNK         0.0600 
    209 H209       -6.1230  -21.0193  -51.0319 H         1 UNK         0.0600 
    210 H210       -5.8116  -24.5680  -51.0022 H         1 UNK         0.3000 
    211 H211       -6.9716  -26.1145  -52.0794 H         1 UNK         0.0600 
    212 H212       -5.2201  -25.5090  -54.5143 H         1 UNK         0.0600 
    213 H213       -6.1667  -26.9616  -54.2456 H         1 UNK         0.0600 
    214 H214       -4.8002  -26.6083  -53.1999 H         1 UNK         0.0600 
    215 H215       -8.5684  -24.2790  -51.7083 H         1 UNK         0.3000 
    216 H216      -10.4431  -23.2155  -52.2213 H         1 UNK         0.0600 
    217 H217      -11.8793  -24.1051  -54.0105 H         1 UNK         0.0600 
    218 H218      -11.0862  -25.4335  -53.1809 H         1 UNK         0.0600 
    219 H219      -10.5176  -24.9175  -54.7679 H         1 UNK         0.0600 
    220 H220       -8.2285  -21.7936  -52.6900 H         1 UNK         0.3000 
    221 H221       -7.4542  -19.8835  -53.4557 H         1 UNK         0.0600 
    222 H222      -10.1462  -19.4164  -54.8325 H         1 UNK         0.0600 
    223 H223       -9.8057  -19.0756  -53.1360 H         1 UNK         0.0600 
    224 H224       -8.9581  -18.1982  -54.3970 H         1 UNK         0.0600 
    225 H225       -7.0867  -22.3496  -55.0916 H         1 UNK         0.3000 
    226 H226       -6.6240  -21.4297  -57.8168 H         1 UNK         0.0600 
    227 H227       -7.0701  -23.8255  -57.2865 H         1 UNK         0.0600 
    228 H228       -5.4925  -23.6355  -58.0357 H         1 UNK         0.0600 
    229 H229       -5.6103  -23.8923  -56.2995 H         1 UNK         0.0600 
    230 H230       -5.0140  -21.1241  -54.8274 H         1 UNK         0.3000 
    231 H231       -3.1641  -20.1722  -54.0741 H         1 UNK         0.0600 
    232 H232       -3.4656  -18.3583  -55.7766 H         1 UNK         0.0600 
    233 H233       -2.4593  -19.2602  -56.9101 H         1 UNK         0.0600 
    234 H234       -1.7763  -18.6641  -55.4056 H         1 UNK         0.0600 
    235 H235       -3.3147  -22.8680  -54.5075 H         1 UNK         0.3000 
    236 H236       -0.9250  -23.9992  -55.6096 H         1 UNK         0.0600 
    237 H237       -1.5919  -26.0042  -54.2768 H         1 UNK         0.0600 
    238 H238       -2.8098  -25.0553  -53.4356 H         1 UNK         0.0600 
    239 H239       -2.9510  -25.3467  -55.1729 H         1 UNK         0.0600 
    240 H240       -1.7581  -22.7562  -52.3938 H         1 UNK         0.3000 
    241 H241       -0.6054  -22.1324  -50.6031 H         1 UNK         0.0600 
    242 H242        0.6768  -25.4491  -49.7907 H         1 UNK         0.3800 
    243 H243       -0.8228  -24.7086  -50.3102 H         1 UNK         0.3800 
    244 H244        1.4745  -21.5217  -52.7513 H         1 UNK         0.0800 
    245 H245        1.7097  -21.0443  -51.1042 H         1 UNK         0.0800 
    246 H246        1.0913  -18.2420  -50.7236 H         1 UNK         0.0800 
    247 H247        0.4724  -19.5764  -49.7818 H         1 UNK         0.0800 
@<TRIPOS>BOND
     1    1    2 1    
     2    1  127 1    
     3    1  128 1    
     4    1  129 1    
     5    2    3 2    
     6    2    4 am   BACKBONE|DICT|INTERRES
     7    4    5 1    
     8    4  130 1    
     9    5    6 1    
    10    5   65 1    
    11    5  131 1    
    12    6    7 1    
    13    6  132 1    
    14    6  133 1    
    15    7    8 1    
    16    8    9 1    
    17    8  134 1    
    18    8  135 1    
    19    9   10 ar   
    20    9   14 ar   
    21   10   11 ar   
    22   10  136 1    
    23   11   12 ar   
    24   11  126 1    
    25   12   13 ar   
    26   12  137 1    
    27   13   14 ar   
    28   13   15 1    
    29   14  138 1    
    30   15   16 1    
    31   15  139 1    
    32   15  140 1    
    33   16   17 1    
    34   17   18 1    
    35   17  141 1    
    36   17  142 1    
    37   18   19 1    
    38   18   67 1    
    39   18  143 1    
    40   19   20 am   BACKBONE|DICT|INTERRES
    41   19  144 1    
    42   20   21 2    
    43   20   22 1    
    44   22   23 1    
    45   22   24 1    
    46   22  145 1    
    47   23  146 1    
    48   23  147 1    
    49   23  148 1    
    50   24   25 am   BACKBONE|DICT|INTERRES
    51   24  149 1    
    52   25   26 2    
    53   25   27 1    
    54   27   28 1    
    55   27   29 1    
    56   27  150 1    
    57   28  151 1    
    58   28  152 1    
    59   28  153 1    
    60   29   30 am   BACKBONE|DICT|INTERRES
    61   29  154 1    
    62   30   31 2    
    63   30   32 1    
    64   32   33 1    
    65   32   34 1    
    66   32  155 1    
    67   33  156 1    
    68   33  157 1    
    69   33  158 1    
    70   34   35 am   BACKBONE|DICT|INTERRES
    71   34  159 1    
    72   35   36 2    
    73   35   37 1    
    74   37   38 1    
    75   37   39 1    
    76   37  160 1    
    77   38  161 1    
    78   38  162 1    
    79   38  163 1    
    80   39   40 am   BACKBONE|DICT|INTERRES
    81   39  164 1    
    82   40   41 2    
    83   40   42 1    
    84   42   43 1    
    85   42   44 1    
    86   42  165 1    
    87   43  166 1    
    88   43  167 1    
    89   43  168 1    
    90   44   45 am   BACKBONE|DICT|INTERRES
    91   44  169 1    
    92   45   46 2    
    93   45   47 1    
    94   47   48 1    
    95   47   49 1    
    96   47  170 1    
    97   48  171 1    
    98   48  172 1    
    99   48  173 1    
   100   49   50 am   BACKBONE|DICT|INTERRES
   101   49  174 1    
   102   50   51 2    
   103   50   52 1    
   104   52   53 1    
   105   52   54 1    
   106   52  175 1    
   107   53  176 1    
   108   53  177 1    
   109   53  178 1    
   110   54   55 am   BACKBONE|DICT|INTERRES
   111   54  179 1    
   112   55   56 2    
   113   55   57 1    
   114   57   58 1    
   115   57   59 1    
   116   57  180 1    
   117   58  181 1    
   118   58  182 1    
   119   58  183 1    
   120   59   60 am   BACKBONE|DICT|INTERRES
   121   59  184 1    
   122   60   61 2    
   123   60   62 1    
   124   62   63 1    
   125   62   64 1    
   126   62  185 1    
   127   63  186 1    
   128   63  187 1    
   129   63  188 1    
   130   64   65 am   BACKBONE|DICT|INTERRES
   131   64  189 1    
   132   65   66 2    
   133   67   68 2    
   134   67   69 am   BACKBONE|DICT|INTERRES
   135   69   70 1    
   136   69  190 1    
   137   70   71 1    
   138   70   72 1    
   139   70  191 1    
   140   71  192 1    
   141   71  193 1    
   142   71  194 1    
   143   72   73 2    
   144   72   74 am   BACKBONE|DICT|INTERRES
   145   74   75 1    
   146   74  195 1    
   147   75   76 1    
   148   75   77 1    
   149   75  196 1    
   150   76  197 1    
   151   76  198 1    
   152   76  199 1    
   153   77   78 2    
   154   77   79 am   BACKBONE|DICT|INTERRES
   155   79   80 1    
   156   79  200 1    
   157   80   81 1    
   158   80   82 1    
   159   80  201 1    
   160   81  202 1    
   161   81  203 1    
   162   81  204 1    
   163   82   83 2    
   164   82   84 am   BACKBONE|DICT|INTERRES
   165   84   85 1    
   166   84  205 1    
   167   85   86 1    
   168   85   87 1    
   169   85  206 1    
   170   86  207 1    
   171   86  208 1    
   172   86  209 1    
   173   87   88 2    
   174   87   89 am   BACKBONE|DICT|INTERRES
   175   89   90 1    
   176   89  210 1    
   177   90   91 1    
   178   90   92 1    
   179   90  211 1    
   180   91  212 1    
   181   91  213 1    
   182   91  214 1    
   183   92   93 2    
   184   92   94 am   BACKBONE|DICT|INTERRES
   185   94   95 1    
   186   94  215 1    
   187   95   96 1    
   188   95   97 1    
   189   95  216 1    
   190   96  217 1    
   191   96  218 1    
   192   96  219 1    
   193   97   98 2    
   194   97   99 am   BACKBONE|DICT|INTERRES
   195   99  100 1    
   196   99  220 1    
   197  100  101 1    
   198  100  102 1    
   199  100  221 1    
   200  101  222 1    
   201  101  223 1    
   202  101  224 1    
   203  102  103 2    
   204  102  104 am   BACKBONE|DICT|INTERRES
   205  104  105 1    
   206  104  225 1    
   207  105  106 1    
   208  105  107 1    
   209  105  226 1    
   210  106  227 1    
   211  106  228 1    
   212  106  229 1    
   213  107  108 2    
   214  107  109 am   BACKBONE|DICT|INTERRES
   215  109  110 1    
   216  109  230 1    
   217  110  111 1    
   218  110  112 1    
   219  110  231 1    
   220  111  232 1    
   221  111  233 1    
   222  111  234 1    
   223  112  113 2    
   224  112  114 am   BACKBONE|DICT|INTERRES
   225  114  115 1    
   226  114  235 1    
   227  115  116 1    
   228  115  117 1    
   229  115  236 1    
   230  116  237 1    
   231  116  238 1    
   232  116  239 1    
   233  117  118 2    
   234  117  119 am   BACKBONE|DICT|INTERRES
   235  119  120 1    
   236  119  240 1    
   237  120  121 1    
   238  120  124 1    
   239  120  241 1    
   240  121  122 am   BACKBONE|DICT|INTERRES
   241  121  123 2    
   242  122  242 1    
   243  122  243 1    
   244  124  125 1    
   245  124  244 1    
   246  124  245 1    
   247  125  126 1    
   248  126  246 1    
   249  126  247 1    
@<TRIPOS>SUBSTRUCTURE
     1 UNK         1 GROUP             0       ****    0 ROOT    
