@<TRIPOS>MOLECULE
3R540
247   249    1
SMALL
USER_CHARGES


@<TRIPOS>ATOM
      1 CA          0.2623  -16.0291  -50.9283 C.3       0 UNK        -0.1800 
      2 C          -0.5474  -15.9030  -49.6459 C.2       0 UNK         0.5000 
      3 O          -1.6373  -15.3327  -49.6676 O.2       0 UNK        -0.5000 
      4 N          -0.0171  -16.4394  -48.5374 N.am      1 UNK        -0.5000 
      5 CA         -0.6150  -16.4275  -47.1930 C.3       1 UNK         0.1400 
      6 C6         -1.9100  -17.2786  -47.0679 C.3       23 UNK        -0.0398 
      7 S7         -1.5831  -19.0541  -47.3302 S.3       23 UNK        -0.2404 
      8 C8         -2.1356  -19.2931  -49.0413 C.3       23 UNK        -0.0205 
      9 C9         -3.6197  -19.5897  -49.1199 C.ar      23 UNK        -0.0193 
     10 C10        -4.5366  -18.5823  -49.4207 C.ar      23 UNK        -0.1150 
     11 C11        -5.9022  -18.8698  -49.4834 C.ar      23 UNK        -0.0193 
     12 C12        -6.3502  -20.1656  -49.2004 C.ar      23 UNK        -0.1150 
     13 C13        -5.4383  -21.1837  -48.9015 C.ar      23 UNK        -0.0193 
     14 C14        -4.0728  -20.8902  -48.9007 C.ar      23 UNK        -0.1150 
     15 C15        -5.9252  -22.5990  -48.6077 C.3       23 UNK        -0.0205 
     16 S16        -5.6328  -23.1026  -46.8762 S.3       23 UNK        -0.2404 
     17 C17        -3.8963  -23.6735  -46.9215 C.3       23 UNK        -0.0398 
     18 CA         -2.9449  -22.7421  -46.1248 C.3       11 UNK         0.1400 
     19 N          -3.1986  -22.8359  -44.6798 N.am      11 UNK        -0.5000 
     20 C          -2.8755  -21.8901  -43.7912 C.2       10 UNK         0.5000 
     21 O          -2.3884  -20.8060  -44.1159 O.2       10 UNK        -0.5000 
     22 CA         -3.1044  -22.2303  -42.3051 C.3       10 UNK         0.1400 
     23 CB         -2.4587  -23.5737  -41.9156 C.3       10 UNK        -0.1800 
     24 N          -2.5026  -21.1818  -41.4929 N.am      10 UNK        -0.5000 
     25 C          -3.0945  -20.4899  -40.5124 C.2       9 UNK         0.5000 
     26 O          -4.2083  -20.7579  -40.0600 O.2       9 UNK        -0.5000 
     27 CA         -2.3158  -19.2782  -39.9500 C.3       9 UNK         0.1400 
     28 CB         -1.6614  -19.6335  -38.6065 C.3       9 UNK        -0.1800 
     29 N          -1.2779  -18.7991  -40.8660 N.am      9 UNK        -0.5000 
     30 C          -1.5136  -18.2395  -42.0622 C.2       8 UNK         0.5000 
     31 O          -2.6279  -17.8541  -42.4177 O.2       8 UNK        -0.5000 
     32 CA         -0.3245  -18.1217  -43.0381 C.3       8 UNK         0.1400 
     33 CB         -0.0664  -16.6558  -43.4082 C.3       8 UNK        -0.1800 
     34 N           0.9197  -18.7235  -42.5439 N.am      8 UNK        -0.5000 
     35 C           1.1575  -20.0411  -42.4346 C.2       7 UNK         0.5000 
     36 O           0.3400  -20.9058  -42.7456 O.2       7 UNK        -0.5000 
     37 CA          2.5178  -20.4782  -41.8540 C.3       7 UNK         0.1400 
     38 CB          3.4313  -21.0426  -42.9533 C.3       7 UNK        -0.1800 
     39 N           3.2335  -19.4132  -41.1504 N.am      7 UNK        -0.5000 
     40 C           2.8679  -18.8744  -39.9786 C.2       6 UNK         0.5000 
     41 O           1.8713  -19.2257  -39.3466 O.2       6 UNK        -0.5000 
     42 CA          3.7494  -17.7241  -39.4526 C.3       6 UNK         0.1400 
     43 CB          4.8563  -18.2683  -38.5372 C.3       6 UNK        -0.1800 
     44 N           4.3570  -16.9379  -40.5331 N.am      6 UNK        -0.5000 
     45 C           3.6641  -16.1375  -41.3533 C.2       5 UNK         0.5000 
     46 O           2.4484  -15.9627  -41.2615 O.2       5 UNK        -0.5000 
     47 CA          4.4423  -15.4725  -42.4989 C.3       5 UNK         0.1400 
     48 CB          4.1711  -16.2036  -43.8241 C.3       5 UNK        -0.1800 
     49 N           4.0408  -14.0746  -42.6306 N.am      5 UNK        -0.5000 
     50 C           4.5859  -13.0673  -41.9331 C.2       4 UNK         0.5000 
     51 O           5.5408  -13.2100  -41.1677 O.2       4 UNK        -0.5000 
     52 CA          3.9742  -11.6616  -42.1108 C.3       4 UNK         0.1400 
     53 CB          4.7635  -10.8612  -43.1582 C.3       4 UNK        -0.1800 
     54 N           2.5654  -11.6884  -42.5014 N.am      4 UNK        -0.5000 
     55 C           1.5597  -12.1097  -41.7232 C.2       3 UNK         0.5000 
     56 O           1.6989  -12.4057  -40.5359 O.2       3 UNK        -0.5000 
     57 CA          0.1633  -12.2265  -42.3722 C.3       3 UNK         0.1400 
     58 CB         -0.7740  -11.1353  -41.8306 C.3       3 UNK        -0.1800 
     59 N           0.1384  -12.1780  -43.8408 N.am      3 UNK        -0.5000 
     60 C           0.7291  -13.0556  -44.6617 C.2       2 UNK         0.5000 
     61 O           1.4925  -13.9453  -44.2807 O.2       2 UNK        -0.5000 
     62 CA          0.4558  -12.8863  -46.1666 C.3       2 UNK         0.1400 
     63 CB          1.6125  -12.1328  -46.8406 C.3       2 UNK        -0.1800 
     64 N           0.3001  -14.1921  -46.8037 N.am      2 UNK        -0.5000 
     65 C          -0.7619  -14.9931  -46.6381 C.2       1 UNK         0.5000 
     66 O          -1.7957  -14.6421  -46.0663 O.2       1 UNK        -0.5000 
     67 C          -1.4644  -23.0205  -46.4935 C.2       11 UNK         0.5000 
     68 O          -1.1056  -22.9323  -47.6674 O.2       11 UNK        -0.5000 
     69 N          -0.6343  -23.3768  -45.5031 N.am      12 UNK        -0.5000 
     70 CA          0.7443  -23.8438  -45.6549 C.3       12 UNK         0.1400 
     71 CB          1.2425  -24.3301  -44.2845 C.3       12 UNK        -0.1800 
     72 C           1.7335  -22.8256  -46.2567 C.2       12 UNK         0.5000 
     73 O           2.7605  -23.2451  -46.7917 O.2       12 UNK        -0.5000 
     74 N           1.4357  -21.5222  -46.1555 N.am      13 UNK        -0.5000 
     75 CA          2.3080  -20.4479  -46.6407 C.3       13 UNK         0.1400 
     76 CB          1.9136  -19.1118  -45.9910 C.3       13 UNK        -0.1800 
     77 C           2.4010  -20.3296  -48.1768 C.2       13 UNK         0.5000 
     78 O           3.3819  -19.7610  -48.6589 O.2       13 UNK        -0.5000 
     79 N           1.4270  -20.8682  -48.9242 N.am      14 UNK        -0.5000 
     80 CA          1.4742  -20.9470  -50.3837 C.3       14 UNK         0.1400 
     81 CB          1.0999  -19.6010  -51.0309 C.3       14 UNK        -0.1800 
     82 C           0.5835  -22.1034  -50.8572 C.2       14 UNK         0.5000 
     83 O          -0.6437  -22.0096  -50.7849 O.2       14 UNK        -0.5000 
     84 N           1.2311  -23.1826  -51.3119 N.am      15 UNK        -0.5000 
     85 CA          0.6190  -24.4448  -51.7275 C.3       15 UNK         0.1400 
     86 CB          1.7371  -25.4097  -52.1535 C.3       15 UNK        -0.1800 
     87 C          -0.4265  -24.3111  -52.8524 C.2       15 UNK         0.5000 
     88 O          -0.3920  -23.3566  -53.6352 O.2       15 UNK        -0.5000 
     89 N          -1.3272  -25.3029  -52.9082 N.am      16 UNK        -0.5000 
     90 CA         -2.4238  -25.4475  -53.8720 C.3       16 UNK         0.1400 
     91 CB         -1.8716  -25.7266  -55.2863 C.3       16 UNK        -0.1800 
     92 C          -3.4135  -24.2654  -53.8349 C.2       16 UNK         0.5000 
     93 O          -3.8822  -23.8275  -54.8840 O.2       16 UNK        -0.5000 
     94 N          -3.6937  -23.7613  -52.6234 N.am      17 UNK        -0.5000 
     95 CA         -4.5546  -22.6103  -52.3297 C.3       17 UNK         0.1400 
     96 CB         -6.0290  -22.9369  -52.6490 C.3       17 UNK        -0.1800 
     97 C          -4.0496  -21.3247  -53.0138 C.2       17 UNK         0.5000 
     98 O          -4.7792  -20.7046  -53.7922 O.2       17 UNK        -0.5000 
     99 N          -2.7811  -20.9883  -52.7321 N.am      18 UNK        -0.5000 
    100 CA        -2.0223  -19.8762  -53.3083 C.3       18 UNK         0.1400 
    101 CB        -2.6116  -18.5195  -52.8661 C.3       18 UNK        -0.1800 
    102 C         -1.8720  -20.0028  -54.8366 C.2       18 UNK         0.5000 
    103 O         -2.1451  -19.0477  -55.5634 O.2       18 UNK        -0.5000 
    104 N         -1.4695  -21.1972  -55.2984 N.am      19 UNK        -0.5000 
    105 CA        -1.3377  -21.5852  -56.7087 C.3       19 UNK         0.1400 
    106 CB        -0.1349  -20.8696  -57.3575 C.3       19 UNK        -0.1800 
    107 C         -2.6549  -21.3973  -57.4946 C.2       19 UNK         0.5000 
    108 O         -2.6653  -20.7998  -58.5721 O.2       19 UNK        -0.5000 
    109 N         -3.7463  -21.8951  -56.9001 N.am      20 UNK        -0.5000 
    110 CA        -5.1389  -21.8595  -57.3475 C.3       20 UNK         0.1400 
    111 CB        -5.3048  -22.5483  -58.7178 C.3       20 UNK        -0.1800 
    112 C         -5.8095  -20.4712  -57.3056 C.2       20 UNK         0.5000 
    113 O         -6.9669  -20.3689  -57.7164 O.2       20 UNK        -0.5000 
    114 N         -5.1350  -19.4358  -56.7805 N.am      21 UNK        -0.5000 
    115 CA        -5.6846  -18.0798  -56.6556 C.3       21 UNK         0.1400 
    116 CB        -4.5816  -17.0986  -56.2366 C.3       21 UNK        -0.1800 
    117 C         -6.8856  -17.9905  -55.6933 C.2       21 UNK         0.5000 
    118 O         -7.7903  -17.1896  -55.9341 O.2       21 UNK        -0.5000 
    119 N         -6.8920  -18.8358  -54.6560 N.am      22 UNK        -0.5000 
    120 CA        -8.0246  -19.0399  -53.7391 C.3       22 UNK         0.1400 
    121 C         -8.8977  -20.2743  -54.1212 C.2       22 UNK         0.5000 
    122 N         -8.7355  -20.8816  -55.2917 N.am      22 UNK        -0.7600 
    123 O         -9.7615  -20.6841  -53.3506 O.2       22 UNK        -0.5000 
    124 C124       -7.5561  -19.0944  -52.2628 C.3       23 UNK        -0.0398 
    125 S125       -6.8810  -17.5043  -51.6782 S.3       23 UNK        -0.2404 
    126 C126       -6.8847  -17.7785  -49.8770 C.3       23 UNK        -0.0205 
    127 H127        1.2760  -16.3800  -50.7345 H         1 UNK         0.0600 
    128 H128        0.3307  -15.0620  -51.4265 H         1 UNK         0.0600 
    129 H129       -0.2199  -16.7308  -51.6085 H         1 UNK         0.0600 
    130 H130        0.8796  -16.8990  -48.6035 H         1 UNK         0.3000 
    131 H131        0.1279  -16.8839  -46.5405 H         1 UNK         0.0600 
    132 H132       -2.3304  -17.1907  -46.0646 H         1 UNK         0.0800 
    133 H133       -2.6839  -16.9264  -47.7501 H         1 UNK         0.0800 
    134 H134       -1.8774  -18.4242  -49.6429 H         1 UNK         0.0800 
    135 H135       -1.5868  -20.1340  -49.4563 H         1 UNK         0.0800 
    136 H136       -4.1883  -17.5793  -49.6248 H         1 UNK         0.1150 
    137 H137       -7.4083  -20.3842  -49.2321 H         1 UNK         0.1150 
    138 H138       -3.3478  -21.6664  -48.7154 H         1 UNK         0.1150 
    139 H139       -6.9964  -22.6706  -48.8017 H         1 UNK         0.0800 
    140 H140       -5.4543  -23.3089  -49.2879 H         1 UNK         0.0800 
    141 H141       -3.5854  -23.7710  -47.9624 H         1 UNK         0.0800 
    142 H142       -3.8585  -24.6865  -46.5176 H         1 UNK         0.0800 
    143 H143       -3.1389  -21.7124  -46.4293 H         1 UNK         0.0600 
    144 H144       -3.6179  -23.6956  -44.3562 H         1 UNK         0.3000 
    145 H145       -4.1820  -22.2789  -42.1369 H         1 UNK         0.0600 
    146 H146       -2.5738  -23.7666  -40.8488 H         1 UNK         0.0600 
    147 H147       -2.9200  -24.4104  -42.4408 H         1 UNK         0.0600 
    148 H148       -1.3911  -23.5860  -42.1404 H         1 UNK         0.0600 
    149 H149       -1.6119  -20.8503  -41.8489 H         1 UNK         0.3000 
    150 H150       -3.0308  -18.4696  -39.7855 H         1 UNK         0.0600 
    151 H151       -1.1549  -18.7705  -38.1736 H         1 UNK         0.0600 
    152 H152       -2.4067  -19.9694  -37.8844 H         1 UNK         0.0600 
    153 H153       -0.9260  -20.4318  -38.7168 H         1 UNK         0.0600 
    154 H154       -0.3258  -19.0479  -40.6351 H         1 UNK         0.3000 
    155 H155       -0.6137  -18.6503  -43.9488 H         1 UNK         0.0600 
    156 H156        0.1908  -16.0566  -42.5353 H         1 UNK         0.0600 
    157 H157       -0.9518  -16.2047  -43.8562 H         1 UNK         0.0600 
    158 H158        0.7443  -16.5681  -44.1301 H         1 UNK         0.0600 
    159 H159        1.6253  -18.0763  -42.2203 H         1 UNK         0.3000 
    160 H160        2.3136  -21.2792  -41.1403 H         1 UNK         0.0600 
    161 H161        3.7639  -20.2673  -43.6432 H         1 UNK         0.0600 
    162 H162        2.9218  -21.8078  -43.5387 H         1 UNK         0.0600 
    163 H163        4.3192  -21.5062  -42.5233 H         1 UNK         0.0600 
    164 H164        4.0686  -19.0615  -41.5943 H         1 UNK         0.3000 
    165 H165        3.1122  -17.0623  -38.8619 H         1 UNK         0.0600 
    166 H166        5.4428  -17.4583  -38.1031 H         1 UNK         0.0600 
    167 H167        4.4326  -18.8401  -37.7104 H         1 UNK         0.0600 
    168 H168        5.5388  -18.9269  -39.0759 H         1 UNK         0.0600 
    169 H169        5.3549  -17.0328  -40.6578 H         1 UNK         0.3000 
    170 H170        5.5130  -15.5303  -42.2913 H         1 UNK         0.0600 
    171 H171        4.4720  -17.2502  -43.7647 H         1 UNK         0.0600 
    172 H172        3.1139  -16.1813  -44.0893 H         1 UNK         0.0600 
    173 H173        4.7283  -15.7506  -44.6441 H         1 UNK         0.0600 
    174 H174        3.2064  -13.9024  -43.1831 H         1 UNK         0.3000 
    175 H175        4.0524  -11.1435  -41.1527 H         1 UNK         0.0600 
    176 H176        4.7057  -11.3231  -44.1447 H         1 UNK         0.0600 
    177 H177        4.3879   -9.8412  -43.2414 H         1 UNK         0.0600 
    178 H178        5.8182  -10.7967  -42.8871 H         1 UNK         0.0600 
    179 H179        2.3562  -11.4649  -43.4626 H         1 UNK         0.3000 
    180 H180       -0.2376  -13.1977  -42.0745 H         1 UNK         0.0600 
    181 H181       -0.4397  -10.1389  -42.1224 H         1 UNK         0.0600 
    182 H182       -0.8187  -11.1603  -40.7409 H         1 UNK         0.0600 
    183 H183       -1.7918  -11.2704  -42.1969 H         1 UNK         0.0600 
    184 H184       -0.4459  -11.4598  -44.2442 H         1 UNK         0.3000 
    185 H185       -0.4645  -12.3150  -46.3063 H         1 UNK         0.0600 
    186 H186        1.7380  -11.1402  -46.4064 H         1 UNK         0.0600 
    187 H187        2.5595  -12.6626  -46.7278 H         1 UNK         0.0600 
    188 H188        1.4277  -11.9992  -47.9067 H         1 UNK         0.0600 
    189 H189        1.1147  -14.5617  -47.2704 H         1 UNK         0.3000 
    190 H190       -1.0034  -23.3838  -44.5647 H         1 UNK         0.3000 
    191 H191        0.7244  -24.7004  -46.3316 H         1 UNK         0.0600 
    192 H192        0.6392  -25.1610  -43.9182 H         1 UNK         0.0600 
    193 H193        2.2741  -24.6803  -44.3401 H         1 UNK         0.0600 
    194 H194        1.2038  -23.5356  -43.5385 H         1 UNK         0.0600 
    195 H195        0.5724  -21.2546  -45.7035 H         1 UNK         0.3000 
    196 H196        3.3227  -20.6724  -46.3043 H         1 UNK         0.0600 
    197 H197        2.3214  -18.2584  -46.5345 H         1 UNK         0.0600 
    198 H198        2.2966  -19.0438  -44.9757 H         1 UNK         0.0600 
    199 H199        0.8354  -18.9922  -45.9387 H         1 UNK         0.0600 
    200 H200        0.6509  -21.3429  -48.4771 H         1 UNK         0.3000 
    201 H201        2.5003  -21.1755  -50.6814 H         1 UNK         0.0600 
    202 H202        1.1769  -19.6619  -52.1165 H         1 UNK         0.0600 
    203 H203        1.7738  -18.8076  -50.7099 H         1 UNK         0.0600 
    204 H204        0.0857  -19.2934  -50.7867 H         1 UNK         0.0600 
    205 H205        2.2389  -23.1542  -51.3528 H         1 UNK         0.3000 
    206 H206        0.1176  -24.8583  -50.8500 H         1 UNK         0.0600 
    207 H207        2.4450  -25.5787  -51.3418 H         1 UNK         0.0600 
    208 H208        1.3343  -26.3833  -52.4359 H         1 UNK         0.0600 
    209 H209        2.2927  -25.0252  -53.0099 H         1 UNK         0.0600 
    210 H210       -1.2628  -26.0414  -52.2211 H         1 UNK         0.3000 
    211 H211       -2.9933  -26.3254  -53.5637 H         1 UNK         0.0600 
    212 H212       -1.3226  -24.8735  -55.6843 H         1 UNK         0.0600 
    213 H213       -2.6783  -25.9509  -55.9853 H         1 UNK         0.0600 
    214 H214       -1.1994  -26.5845  -55.2836 H         1 UNK         0.0600 
    215 H215       -3.2288  -24.1756  -51.8283 H         1 UNK         0.3000 
    216 H216       -4.4768  -22.4366  -51.2586 H         1 UNK         0.0600 
    217 H217       -6.6908  -22.1489  -52.2923 H         1 UNK         0.0600 
    218 H218       -6.3412  -23.8612  -52.1633 H         1 UNK         0.0600 
    219 H219       -6.2010  -23.0468  -53.7203 H         1 UNK         0.0600 
    220 H220       -2.2520  -21.5750  -52.0949 H         1 UNK         0.3000 
    221 H221       -1.0157  -19.9498  -52.9016 H         1 UNK         0.0600 
    222 H222       -3.6294  -18.3781  -53.2285 H         1 UNK         0.0600 
    223 H223       -2.6392  -18.4361  -51.7828 H         1 UNK         0.0600 
    224 H224       -2.0116  -17.6890  -53.2393 H         1 UNK         0.0600 
    225 H225       -1.2465  -21.9268  -54.6251 H         1 UNK         0.3000 
    226 H226       -1.1261  -22.6550  -56.7149 H         1 UNK         0.0600 
    227 H227        0.7801  -21.0486  -56.7929 H         1 UNK         0.0600 
    228 H228        0.0337  -21.2325  -58.3720 H         1 UNK         0.0600 
    229 H229       -0.2869  -19.7915  -57.4169 H         1 UNK         0.0600 
    230 H230       -3.6220  -22.3946  -56.0216 H         1 UNK         0.3000 
    231 H231       -5.6831  -22.4611  -56.6180 H         1 UNK         0.0600 
    232 H232       -4.8536  -21.9677  -59.5226 H         1 UNK         0.0600 
    233 H233       -6.3590  -22.6788  -58.9649 H         1 UNK         0.0600 
    234 H234       -4.8491  -23.5385  -58.7192 H         1 UNK         0.0600 
    235 H235       -4.1974  -19.5843  -56.4277 H         1 UNK         0.3000 
    236 H236       -6.0371  -17.7796  -57.6445 H         1 UNK         0.0600 
    237 H237       -4.2050  -17.3211  -55.2389 H         1 UNK         0.0600 
    238 H238       -3.7403  -17.1283  -56.9293 H         1 UNK         0.0600 
    239 H239       -4.9564  -16.0745  -56.2223 H         1 UNK         0.0600 
    240 H240       -6.1018  -19.4623  -54.5222 H         1 UNK         0.3000 
    241 H241       -8.7067  -18.1920  -53.8199 H         1 UNK         0.0600 
    242 H242       -8.0789  -20.5354  -55.9800 H         1 UNK         0.3800 
    243 H243       -9.3209  -21.6698  -55.5177 H         1 UNK         0.3800 
    244 H244       -8.3832  -19.3618  -51.6033 H         1 UNK         0.0800 
    245 H245       -6.7944  -19.8619  -52.1317 H         1 UNK         0.0800 
    246 H246       -6.6153  -16.8477  -49.3759 H         1 UNK         0.0800 
    247 H247       -7.8939  -18.0245  -49.5431 H         1 UNK         0.0800 
@<TRIPOS>BOND
     1    1    2 1    
     2    1  127 1    
     3    1  128 1    
     4    1  129 1    
     5    2    3 2    
     6    2    4 am   BACKBONE|DICT|INTERRES
     7    4    5 1    
     8    4  130 1    
     9    5    6 1    
    10    5   65 1    
    11    5  131 1    
    12    6    7 1    
    13    6  132 1    
    14    6  133 1    
    15    7    8 1    
    16    8    9 1    
    17    8  134 1    
    18    8  135 1    
    19    9   10 ar   
    20    9   14 ar   
    21   10   11 ar   
    22   10  136 1    
    23   11   12 ar   
    24   11  126 1    
    25   12   13 ar   
    26   12  137 1    
    27   13   14 ar   
    28   13   15 1    
    29   14  138 1    
    30   15   16 1    
    31   15  139 1    
    32   15  140 1    
    33   16   17 1    
    34   17   18 1    
    35   17  141 1    
    36   17  142 1    
    37   18   19 1    
    38   18   67 1    
    39   18  143 1    
    40   19   20 am   BACKBONE|DICT|INTERRES
    41   19  144 1    
    42   20   21 2    
    43   20   22 1    
    44   22   23 1    
    45   22   24 1    
    46   22  145 1    
    47   23  146 1    
    48   23  147 1    
    49   23  148 1    
    50   24   25 am   BACKBONE|DICT|INTERRES
    51   24  149 1    
    52   25   26 2    
    53   25   27 1    
    54   27   28 1    
    55   27   29 1    
    56   27  150 1    
    57   28  151 1    
    58   28  152 1    
    59   28  153 1    
    60   29   30 am   BACKBONE|DICT|INTERRES
    61   29  154 1    
    62   30   31 2    
    63   30   32 1    
    64   32   33 1    
    65   32   34 1    
    66   32  155 1    
    67   33  156 1    
    68   33  157 1    
    69   33  158 1    
    70   34   35 am   BACKBONE|DICT|INTERRES
    71   34  159 1    
    72   35   36 2    
    73   35   37 1    
    74   37   38 1    
    75   37   39 1    
    76   37  160 1    
    77   38  161 1    
    78   38  162 1    
    79   38  163 1    
    80   39   40 am   BACKBONE|DICT|INTERRES
    81   39  164 1    
    82   40   41 2    
    83   40   42 1    
    84   42   43 1    
    85   42   44 1    
    86   42  165 1    
    87   43  166 1    
    88   43  167 1    
    89   43  168 1    
    90   44   45 am   BACKBONE|DICT|INTERRES
    91   44  169 1    
    92   45   46 2    
    93   45   47 1    
    94   47   48 1    
    95   47   49 1    
    96   47  170 1    
    97   48  171 1    
    98   48  172 1    
    99   48  173 1    
   100   49   50 am   BACKBONE|DICT|INTERRES
   101   49  174 1    
   102   50   51 2    
   103   50   52 1    
   104   52   53 1    
   105   52   54 1    
   106   52  175 1    
   107   53  176 1    
   108   53  177 1    
   109   53  178 1    
   110   54   55 am   BACKBONE|DICT|INTERRES
   111   54  179 1    
   112   55   56 2    
   113   55   57 1    
   114   57   58 1    
   115   57   59 1    
   116   57  180 1    
   117   58  181 1    
   118   58  182 1    
   119   58  183 1    
   120   59   60 am   BACKBONE|DICT|INTERRES
   121   59  184 1    
   122   60   61 2    
   123   60   62 1    
   124   62   63 1    
   125   62   64 1    
   126   62  185 1    
   127   63  186 1    
   128   63  187 1    
   129   63  188 1    
   130   64   65 am   BACKBONE|DICT|INTERRES
   131   64  189 1    
   132   65   66 2    
   133   67   68 2    
   134   67   69 am   BACKBONE|DICT|INTERRES
   135   69   70 1    
   136   69  190 1    
   137   70   71 1    
   138   70   72 1    
   139   70  191 1    
   140   71  192 1    
   141   71  193 1    
   142   71  194 1    
   143   72   73 2    
   144   72   74 am   BACKBONE|DICT|INTERRES
   145   74   75 1    
   146   74  195 1    
   147   75   76 1    
   148   75   77 1    
   149   75  196 1    
   150   76  197 1    
   151   76  198 1    
   152   76  199 1    
   153   77   78 2    
   154   77   79 am   BACKBONE|DICT|INTERRES
   155   79   80 1    
   156   79  200 1    
   157   80   81 1    
   158   80   82 1    
   159   80  201 1    
   160   81  202 1    
   161   81  203 1    
   162   81  204 1    
   163   82   83 2    
   164   82   84 am   BACKBONE|DICT|INTERRES
   165   84   85 1    
   166   84  205 1    
   167   85   86 1    
   168   85   87 1    
   169   85  206 1    
   170   86  207 1    
   171   86  208 1    
   172   86  209 1    
   173   87   88 2    
   174   87   89 am   BACKBONE|DICT|INTERRES
   175   89   90 1    
   176   89  210 1    
   177   90   91 1    
   178   90   92 1    
   179   90  211 1    
   180   91  212 1    
   181   91  213 1    
   182   91  214 1    
   183   92   93 2    
   184   92   94 am   BACKBONE|DICT|INTERRES
   185   94   95 1    
   186   94  215 1    
   187   95   96 1    
   188   95   97 1    
   189   95  216 1    
   190   96  217 1    
   191   96  218 1    
   192   96  219 1    
   193   97   98 2    
   194   97   99 am   BACKBONE|DICT|INTERRES
   195   99  100 1    
   196   99  220 1    
   197  100  101 1    
   198  100  102 1    
   199  100  221 1    
   200  101  222 1    
   201  101  223 1    
   202  101  224 1    
   203  102  103 2    
   204  102  104 am   BACKBONE|DICT|INTERRES
   205  104  105 1    
   206  104  225 1    
   207  105  106 1    
   208  105  107 1    
   209  105  226 1    
   210  106  227 1    
   211  106  228 1    
   212  106  229 1    
   213  107  108 2    
   214  107  109 am   BACKBONE|DICT|INTERRES
   215  109  110 1    
   216  109  230 1    
   217  110  111 1    
   218  110  112 1    
   219  110  231 1    
   220  111  232 1    
   221  111  233 1    
   222  111  234 1    
   223  112  113 2    
   224  112  114 am   BACKBONE|DICT|INTERRES
   225  114  115 1    
   226  114  235 1    
   227  115  116 1    
   228  115  117 1    
   229  115  236 1    
   230  116  237 1    
   231  116  238 1    
   232  116  239 1    
   233  117  118 2    
   234  117  119 am   BACKBONE|DICT|INTERRES
   235  119  120 1    
   236  119  240 1    
   237  120  121 1    
   238  120  124 1    
   239  120  241 1    
   240  121  122 am   BACKBONE|DICT|INTERRES
   241  121  123 2    
   242  122  242 1    
   243  122  243 1    
   244  124  125 1    
   245  124  244 1    
   246  124  245 1    
   247  125  126 1    
   248  126  246 1    
   249  126  247 1    
@<TRIPOS>SUBSTRUCTURE
     1 UNK         1 GROUP             0       ****    0 ROOT    
