@<TRIPOS>MOLECULE
3R540
247   249    1
SMALL
USER_CHARGES


@<TRIPOS>ATOM
      1 CA          3.3257  -10.5083  -48.8044 C.3       0 UNK        -0.1800 
      2 C           2.8657  -11.7305  -48.0232 C.2       0 UNK         0.5000 
      3 O           3.1033  -11.8131  -46.8187 O.2       0 UNK        -0.5000 
      4 N           2.1934  -12.6715  -48.6994 N.am      1 UNK        -0.5000 
      5 CA          1.6937  -13.9319  -48.1338 C.3       1 UNK         0.1400 
      6 C6          1.1348  -14.8572  -49.2447 C.3       23 UNK        -0.0398 
      7 S7          1.1724  -16.6279  -48.8088 S.3       23 UNK        -0.2404 
      8 C8          2.8092  -17.1366  -49.4260 C.3       23 UNK        -0.0205 
      9 C9          2.7540  -18.5238  -50.0451 C.ar      23 UNK        -0.0193 
     10 C10         2.3487  -18.6742  -51.3727 C.ar      23 UNK        -0.1150 
     11 C11         2.2881  -19.9405  -51.9580 C.ar      23 UNK        -0.0193 
     12 C12         2.6530  -21.0621  -51.2068 C.ar      23 UNK        -0.1150 
     13 C13         3.0578  -20.9333  -49.8731 C.ar      23 UNK        -0.0193 
     14 C14         3.1111  -19.6529  -49.3021 C.ar      23 UNK        -0.1150 
     15 C15         3.4398  -22.1949  -49.0950 C.3       23 UNK        -0.0205 
     16 S16         3.1764  -22.0753  -47.2917 S.3       23 UNK        -0.2404 
     17 C17         2.7565  -23.7895  -46.8233 C.3       23 UNK        -0.0398 
     18 CA          1.2376  -24.0464  -46.6427 C.3       11 UNK         0.1400 
     19 N           0.5877  -23.0829  -45.7453 N.am      11 UNK        -0.5000 
     20 C          -0.6285  -23.2598  -45.2070 C.2       10 UNK         0.5000 
     21 O          -1.3043  -24.2754  -45.3733 O.2       10 UNK        -0.5000 
     22 CA         -1.2142  -22.0876  -44.3945 C.3       10 UNK         0.1400 
     23 CB         -0.6784  -22.1030  -42.9555 C.3       10 UNK        -0.1800 
     24 N          -0.9498  -20.7783  -44.9946 N.am      10 UNK        -0.5000 
     25 C          -1.3286  -20.4057  -46.2245 C.2       9 UNK         0.5000 
     26 O          -2.0067  -21.1256  -46.9552 O.2       9 UNK        -0.5000 
     27 CA         -0.8790  -19.0247  -46.7489 C.3       9 UNK         0.1400 
     28 CB         -2.0959  -18.1586  -47.1120 C.3       9 UNK        -0.1800 
     29 N          -0.0153  -18.2504  -45.8535 N.am      9 UNK        -0.5000 
     30 C           1.2233  -18.5686  -45.4513 C.2       8 UNK         0.5000 
     31 O           1.7641  -19.6413  -45.7060 O.2       8 UNK        -0.5000 
     32 CA          1.9789  -17.5262  -44.6052 C.3       8 UNK         0.1400 
     33 CB          3.1535  -16.9306  -45.3967 C.3       8 UNK        -0.1800 
     34 N           1.1072  -16.4383  -44.1598 N.am      8 UNK        -0.5000 
     35 C           0.3191  -16.4851  -43.0816 C.2       7 UNK         0.5000 
     36 O           0.2898  -17.4457  -42.3109 O.2       7 UNK        -0.5000 
     37 CA         -0.6055  -15.2667  -42.8849 C.3       7 UNK         0.1400 
     38 CB         -1.9606  -15.4707  -43.5897 C.3       7 UNK        -0.1800 
     39 N          -0.7687  -14.8838  -41.4800 N.am      7 UNK        -0.5000 
     40 C          -1.3793  -15.5376  -40.4787 C.2       6 UNK         0.5000 
     41 O          -2.0604  -16.5536  -40.6277 O.2       6 UNK        -0.5000 
     42 CA         -1.2289  -14.9295  -39.0631 C.3       6 UNK         0.1400 
     43 CB         -1.2119  -16.0025  -37.9536 C.3       6 UNK        -0.1800 
     44 N          -0.0891  -14.0110  -38.9219 N.am      6 UNK        -0.5000 
     45 C           1.2155  -14.3010  -39.0407 C.2       5 UNK         0.5000 
     46 O           1.6665  -15.4309  -39.2356 O.2       5 UNK        -0.5000 
     47 CA          2.1785  -13.0985  -38.9848 C.3       5 UNK         0.1400 
     48 CB          3.2779  -13.3139  -37.9320 C.3       5 UNK        -0.1800 
     49 N           2.8026  -12.8274  -40.2833 N.am      5 UNK        -0.5000 
     50 C           2.1473  -12.5580  -41.4207 C.2       4 UNK         0.5000 
     51 O           0.9171  -12.5292  -41.5100 O.2       4 UNK        -0.5000 
     52 CA          3.0165  -12.3008  -42.6687 C.3       4 UNK         0.1400 
     53 CB          3.4419  -13.6284  -43.3127 C.3       4 UNK        -0.1800 
     54 N           2.3188  -11.5046  -43.6780 N.am      4 UNK        -0.5000 
     55 C           1.9089  -10.2383  -43.5228 C.2       3 UNK         0.5000 
     56 O           2.1720   -9.5502  -42.5349 O.2       3 UNK        -0.5000 
     57 CA          1.0650   -9.6317  -44.6599 C.3       3 UNK         0.1400 
     58 CB          1.9259   -8.7114  -45.5394 C.3       3 UNK        -0.1800 
     59 N           0.4282  -10.6476  -45.5032 N.am      3 UNK        -0.5000 
     60 C          -0.6994  -11.3018  -45.1881 C.2       2 UNK         0.5000 
     61 O          -1.3270  -11.1112  -44.1466 O.2       2 UNK        -0.5000 
     62 CA         -1.2358  -12.3253  -46.2094 C.3       2 UNK         0.1400 
     63 CB         -2.4520  -11.7526  -46.9536 C.3       2 UNK        -0.1800 
     64 N          -0.2325  -12.7320  -47.1955 N.am      2 UNK        -0.5000 
     65 C           0.6676  -13.7048  -47.0005 C.2       1 UNK         0.5000 
     66 O           0.7352  -14.3708  -45.9674 O.2       1 UNK        -0.5000 
     67 C           0.5117  -24.1475  -47.9991 C.2       11 UNK         0.5000 
     68 O           0.3703  -25.2476  -48.5300 O.2       11 UNK        -0.5000 
     69 N           0.0377  -23.0070  -48.5177 N.am      12 UNK        -0.5000 
     70 CA         -0.7179  -22.9114  -49.7644 C.3       12 UNK         0.1400 
     71 CB         -0.8531  -21.4385  -50.1613 C.3       12 UNK        -0.1800 
     72 C          -2.1008  -23.5736  -49.6545 C.2       12 UNK         0.5000 
     73 O          -2.5190  -24.2696  -50.5793 O.2       12 UNK        -0.5000 
     74 N          -2.7656  -23.3770  -48.5087 N.am      13 UNK        -0.5000 
     75 CA         -4.0274  -24.0194  -48.1524 C.3       13 UNK         0.1400 
     76 CB         -4.5867  -23.3771  -46.8746 C.3       13 UNK        -0.1800 
     77 C          -3.8772  -25.5424  -47.9880 C.2       13 UNK         0.5000 
     78 O          -4.7124  -26.2865  -48.5009 O.2       13 UNK        -0.5000 
     79 N          -2.7969  -25.9812  -47.3236 N.am      14 UNK        -0.5000 
     80 CA         -2.4428  -27.3935  -47.1512 C.3       14 UNK         0.1400 
     81 CB         -1.2795  -27.5169  -46.1559 C.3       14 UNK        -0.1800 
     82 C          -2.1004  -28.0949  -48.4801 C.2       14 UNK         0.5000 
     83 O          -2.4946  -29.2442  -48.6805 O.2       14 UNK        -0.5000 
     84 N          -1.4069  -27.3797  -49.3765 N.am      15 UNK        -0.5000 
     85 CA         -1.0946  -27.8137  -50.7407 C.3       15 UNK         0.1400 
     86 CB          0.0307  -26.9263  -51.2970 C.3       15 UNK        -0.1800 
     87 C          -2.3101  -27.7864  -51.6909 C.2       15 UNK         0.5000 
     88 O          -2.2316  -28.3626  -52.7767 O.2       15 UNK        -0.5000 
     89 N          -3.3926  -27.1111  -51.2764 N.am      16 UNK        -0.5000 
     90 CA         -4.6276  -26.8474  -52.0179 C.3       16 UNK         0.1400 
     91 CB         -5.4037  -28.1535  -52.2856 C.3       16 UNK        -0.1800 
     92 C          -4.3772  -26.0106  -53.2889 C.2       16 UNK         0.5000 
     93 O          -4.9327  -26.3034  -54.3506 O.2       16 UNK        -0.5000 
     94 N          -3.5403  -24.9725  -53.1575 N.am      17 UNK        -0.5000 
     95 CA         -3.1731  -24.0260  -54.2115 C.3       17 UNK         0.1400 
     96 CB         -1.8458  -23.3562  -53.8265 C.3       17 UNK        -0.1800 
     97 C          -4.3035  -23.0081  -54.4735 C.2       17 UNK         0.5000 
     98 O          -4.1469  -21.8131  -54.2063 O.2       17 UNK        -0.5000 
     99 N          -5.4332  -23.5356  -54.9661 N.am      18 UNK        -0.5000 
    100 CA        -6.7382  -22.9002  -55.1680 C.3       18 UNK         0.1400 
    101 CB        -6.6245  -21.6702  -56.0939 C.3       18 UNK        -0.1800 
    102 C         -7.4387  -22.5459  -53.8411 C.2       18 UNK         0.5000 
    103 O         -6.8282  -22.5777  -52.7700 O.2       18 UNK        -0.5000 
    104 N         -8.7222  -22.1732  -53.9369 N.am      19 UNK        -0.5000 
    105 CA        -9.5334  -21.6926  -52.8106 C.3       19 UNK         0.1400 
    106 CB       -10.9930  -21.5502  -53.2681 C.3       19 UNK        -0.1800 
    107 C         -9.0191  -20.3639  -52.2172 C.2       19 UNK         0.5000 
    108 O         -9.2737  -20.0758  -51.0476 O.2       19 UNK        -0.5000 
    109 N         -8.2838  -19.5963  -53.0327 N.am      20 UNK        -0.5000 
    110 CA        -7.5907  -18.3702  -52.6489 C.3       20 UNK         0.1400 
    111 CB        -7.2526  -17.5836  -53.9258 C.3       20 UNK        -0.1800 
    112 C         -6.3113  -18.6132  -51.8225 C.2       20 UNK         0.5000 
    113 O         -5.8104  -17.6534  -51.2365 O.2       20 UNK        -0.5000 
    114 N         -5.7849  -19.8520  -51.8137 N.am      21 UNK        -0.5000 
    115 CA        -4.5470  -20.2851  -51.1487 C.3       21 UNK         0.1400 
    116 CB        -4.7599  -20.3596  -49.6226 C.3       21 UNK        -0.1800 
    117 C         -3.3440  -19.4053  -51.5512 C.2       21 UNK         0.5000 
    118 O         -2.7633  -18.7194  -50.7095 O.2       21 UNK        -0.5000 
    119 N         -3.0552  -19.3891  -52.8583 N.am      22 UNK        -0.5000 
    120 CA        -2.0898  -18.5022  -53.5386 C.3       22 UNK         0.1400 
    121 C         -2.4669  -16.9861  -53.5543 C.2       22 UNK         0.5000 
    122 N         -3.5668  -16.5420  -52.9579 N.am      22 UNK        -0.7600 
    123 O         -1.7610  -16.1885  -54.1657 O.2       22 UNK        -0.5000 
    124 C124       -0.6154  -18.7146  -53.0847 C.3       23 UNK        -0.0398 
    125 S125        0.0347  -20.3601  -53.5266 S.3       23 UNK        -0.2404 
    126 C126        1.8324  -20.0950  -53.4018 C.3       23 UNK        -0.0205 
    127 H127        3.1677  -10.6298  -49.8761 H         1 UNK         0.0600 
    128 H128        4.3884  -10.3343  -48.6363 H         1 UNK         0.0600 
    129 H129        2.7785   -9.6246  -48.4773 H         1 UNK         0.0600 
    130 H130        2.0264  -12.5349  -49.6864 H         1 UNK         0.3000 
    131 H131        2.5609  -14.4224  -47.6870 H         1 UNK         0.0600 
    132 H132        0.1087  -14.5871  -49.5015 H         1 UNK         0.0800 
    133 H133        1.6989  -14.7264  -50.1687 H         1 UNK         0.0800 
    134 H134        3.5241  -17.1139  -48.6024 H         1 UNK         0.0800 
    135 H135        3.1819  -16.4310  -50.1692 H         1 UNK         0.0800 
    136 H136        2.0701  -17.8024  -51.9476 H         1 UNK         0.1150 
    137 H137        2.6065  -22.0419  -51.6612 H         1 UNK         0.1150 
    138 H138        3.4255  -19.5252  -48.2762 H         1 UNK         0.1150 
    139 H139        2.8674  -23.0386  -49.4825 H         1 UNK         0.0800 
    140 H140        4.4898  -22.4214  -49.2828 H         1 UNK         0.0800 
    141 H141        3.2609  -23.9935  -45.8781 H         1 UNK         0.0800 
    142 H142        3.1925  -24.4902  -47.5379 H         1 UNK         0.0800 
    143 H143        1.1427  -25.0285  -46.1742 H         1 UNK         0.0600 
    144 H144        1.0736  -22.2078  -45.5956 H         1 UNK         0.3000 
    145 H145       -2.2973  -22.2208  -44.3581 H         1 UNK         0.0600 
    146 H146       -1.1543  -21.3318  -42.3493 H         1 UNK         0.0600 
    147 H147        0.3991  -21.9363  -42.9250 H         1 UNK         0.0600 
    148 H148       -0.8771  -23.0620  -42.4751 H         1 UNK         0.0600 
    149 H149       -0.3789  -20.1387  -44.4623 H         1 UNK         0.3000 
    150 H150       -0.3128  -19.2115  -47.6638 H         1 UNK         0.0600 
    151 H151       -2.6974  -17.9215  -46.2338 H         1 UNK         0.0600 
    152 H152       -2.7428  -18.6688  -47.8270 H         1 UNK         0.0600 
    153 H153       -1.7888  -17.2207  -47.5754 H         1 UNK         0.0600 
    154 H154       -0.3643  -17.3445  -45.5813 H         1 UNK         0.3000 
    155 H155        2.3867  -18.0446  -43.7350 H         1 UNK         0.0600 
    156 H156        3.8171  -17.7139  -45.7655 H         1 UNK         0.0600 
    157 H157        3.7514  -16.2657  -44.7738 H         1 UNK         0.0600 
    158 H158        2.8077  -16.3609  -46.2579 H         1 UNK         0.0600 
    159 H159        1.0451  -15.6321  -44.7830 H         1 UNK         0.3000 
    160 H160       -0.1215  -14.4079  -43.3531 H         1 UNK         0.0600 
    161 H161       -2.4849  -16.3530  -43.2220 H         1 UNK         0.0600 
    162 H162       -1.8224  -15.6013  -44.6636 H         1 UNK         0.0600 
    163 H163       -2.6115  -14.6076  -43.4497 H         1 UNK         0.0600 
    164 H164       -0.2488  -14.0467  -41.2305 H         1 UNK         0.3000 
    165 H165       -2.1209  -14.3204  -38.9100 H         1 UNK         0.0600 
    166 H166       -1.1076  -15.5500  -36.9676 H         1 UNK         0.0600 
    167 H167       -2.1398  -16.5755  -37.9485 H         1 UNK         0.0600 
    168 H168       -0.3939  -16.7108  -38.0872 H         1 UNK         0.0600 
    169 H169       -0.3427  -13.0398  -38.8010 H         1 UNK         0.3000 
    170 H170        1.6137  -12.2085  -38.6994 H         1 UNK         0.0600 
    171 H171        3.9204  -14.1581  -38.1858 H         1 UNK         0.0600 
    172 H172        3.9085  -12.4301  -37.8325 H         1 UNK         0.0600 
    173 H173        2.8443  -13.5148  -36.9515 H         1 UNK         0.0600 
    174 H174        3.8113  -12.8651  -40.3030 H         1 UNK         0.3000 
    175 H175        3.9098  -11.7529  -42.3624 H         1 UNK         0.0600 
    176 H176        2.5796  -14.1839  -43.6784 H         1 UNK         0.0600 
    177 H177        4.1106  -13.4608  -44.1575 H         1 UNK         0.0600 
    178 H178        3.9683  -14.2662  -42.6016 H         1 UNK         0.0600 
    179 H179        2.0806  -11.9756  -44.5392 H         1 UNK         0.3000 
    180 H180        0.2848   -9.0214  -44.2000 H         1 UNK         0.0600 
    181 H181        1.3418   -8.2762  -46.3505 H         1 UNK         0.0600 
    182 H182        2.7695   -9.2446  -45.9776 H         1 UNK         0.0600 
    183 H183        2.3332   -7.8861  -44.9540 H         1 UNK         0.0600 
    184 H184        0.9097  -10.8933  -46.3554 H         1 UNK         0.3000 
    185 H185       -1.5668  -13.2026  -45.6498 H         1 UNK         0.0600 
    186 H186       -2.1898  -10.8666  -47.5330 H         1 UNK         0.0600 
    187 H187       -2.8777  -12.4878  -47.6368 H         1 UNK         0.0600 
    188 H188       -3.2396  -11.4669  -46.2549 H         1 UNK         0.0600 
    189 H189       -0.2162  -12.2202  -48.0659 H         1 UNK         0.3000 
    190 H190        0.1758  -22.1503  -48.0029 H         1 UNK         0.3000 
    191 H191       -0.1536  -23.4258  -50.5450 H         1 UNK         0.0600 
    192 H192        0.1132  -20.9418  -50.2134 H         1 UNK         0.0600 
    193 H193       -1.4695  -20.8766  -49.4620 H         1 UNK         0.0600 
    194 H194       -1.3147  -21.3538  -51.1425 H         1 UNK         0.0600 
    195 H195       -2.3794  -22.7232  -47.8313 H         1 UNK         0.3000 
    196 H196       -4.7357  -23.8372  -48.9635 H         1 UNK         0.0600 
    197 H197       -4.7488  -22.3076  -47.0106 H         1 UNK         0.0600 
    198 H198       -3.9106  -23.5058  -46.0290 H         1 UNK         0.0600 
    199 H199       -5.5449  -23.8205  -46.6015 H         1 UNK         0.0600 
    200 H200       -2.1820  -25.3030  -46.8851 H         1 UNK         0.3000 
    201 H201       -3.3087  -27.9027  -46.7232 H         1 UNK         0.0600 
    202 H202       -1.5429  -27.0918  -45.1873 H         1 UNK         0.0600 
    203 H203       -0.3865  -27.0051  -46.5145 H         1 UNK         0.0600 
    204 H204       -1.0154  -28.5622  -45.9913 H         1 UNK         0.0600 
    205 H205       -1.0451  -26.4712  -49.1010 H         1 UNK         0.3000 
    206 H206       -0.7317  -28.8426  -50.7010 H         1 UNK         0.0600 
    207 H207        0.9231  -26.9831  -50.6734 H         1 UNK         0.0600 
    208 H208       -0.2742  -25.8806  -51.3522 H         1 UNK         0.0600 
    209 H209        0.3174  -27.2380  -52.3020 H         1 UNK         0.0600 
    210 H210       -3.3341  -26.6601  -50.3730 H         1 UNK         0.3000 
    211 H211       -5.2447  -26.2277  -51.3659 H         1 UNK         0.0600 
    212 H212       -4.8752  -28.8072  -52.9799 H         1 UNK         0.0600 
    213 H213       -6.3828  -27.9430  -52.7173 H         1 UNK         0.0600 
    214 H214       -5.5694  -28.7081  -51.3619 H         1 UNK         0.0600 
    215 H215       -3.1539  -24.7809  -52.2348 H         1 UNK         0.3000 
    216 H216       -3.0066  -24.5801  -55.1375 H         1 UNK         0.0600 
    217 H217       -1.5051  -22.6920  -54.6210 H         1 UNK         0.0600 
    218 H218       -1.0612  -24.0942  -53.6589 H         1 UNK         0.0600 
    219 H219       -1.9458  -22.7623  -52.9184 H         1 UNK         0.0600 
    220 H220       -5.4352  -24.5471  -55.0610 H         1 UNK         0.3000 
    221 H221       -7.3578  -23.6461  -55.6678 H         1 UNK         0.0600 
    222 H222       -6.1231  -20.8338  -55.6060 H         1 UNK         0.0600 
    223 H223       -6.0687  -21.9100  -57.0004 H         1 UNK         0.0600 
    224 H224       -7.6085  -21.3191  -56.4055 H         1 UNK         0.0600 
    225 H225       -9.1715  -22.1810  -54.8416 H         1 UNK         0.3000 
    226 H226       -9.4925  -22.4433  -52.0186 H         1 UNK         0.0600 
    227 H227      -11.3908  -22.5017  -53.6216 H         1 UNK         0.0600 
    228 H228      -11.6293  -21.2192  -52.4462 H         1 UNK         0.0600 
    229 H229      -11.0933  -20.8225  -54.0743 H         1 UNK         0.0600 
    230 H230       -8.1465  -19.9116  -53.9810 H         1 UNK         0.3000 
    231 H231       -8.2660  -17.7650  -52.0403 H         1 UNK         0.0600 
    232 H232       -6.7696  -16.6353  -53.6860 H         1 UNK         0.0600 
    233 H233       -6.5749  -18.1407  -54.5742 H         1 UNK         0.0600 
    234 H234       -8.1515  -17.3519  -54.4973 H         1 UNK         0.0600 
    235 H235       -6.2653  -20.5837  -52.3245 H         1 UNK         0.3000 
    236 H236       -4.3326  -21.2959  -51.4999 H         1 UNK         0.0600 
    237 H237       -4.9929  -19.3835  -49.1964 H         1 UNK         0.0600 
    238 H238       -5.5751  -21.0384  -49.3728 H         1 UNK         0.0600 
    239 H239       -3.8662  -20.7290  -49.1199 H         1 UNK         0.0600 
    240 H240       -3.5660  -20.0254  -53.4636 H         1 UNK         0.3000 
    241 H241       -2.1454  -18.7943  -54.5878 H         1 UNK         0.0600 
    242 H242       -3.7821  -15.5591  -53.0045 H         1 UNK         0.3800 
    243 H243       -4.1422  -17.1495  -52.3880 H         1 UNK         0.3800 
    244 H244       -0.5119  -18.5676  -52.0091 H         1 UNK         0.0800 
    245 H245        0.0382  -17.9771  -53.5529 H         1 UNK         0.0800 
    246 H246        2.1193  -19.2213  -53.9889 H         1 UNK         0.0800 
    247 H247        2.3424  -20.9448  -53.8579 H         1 UNK         0.0800 
@<TRIPOS>BOND
     1    1    2 1    
     2    1  127 1    
     3    1  128 1    
     4    1  129 1    
     5    2    3 2    
     6    2    4 am   BACKBONE|DICT|INTERRES
     7    4    5 1    
     8    4  130 1    
     9    5    6 1    
    10    5   65 1    
    11    5  131 1    
    12    6    7 1    
    13    6  132 1    
    14    6  133 1    
    15    7    8 1    
    16    8    9 1    
    17    8  134 1    
    18    8  135 1    
    19    9   10 ar   
    20    9   14 ar   
    21   10   11 ar   
    22   10  136 1    
    23   11   12 ar   
    24   11  126 1    
    25   12   13 ar   
    26   12  137 1    
    27   13   14 ar   
    28   13   15 1    
    29   14  138 1    
    30   15   16 1    
    31   15  139 1    
    32   15  140 1    
    33   16   17 1    
    34   17   18 1    
    35   17  141 1    
    36   17  142 1    
    37   18   19 1    
    38   18   67 1    
    39   18  143 1    
    40   19   20 am   BACKBONE|DICT|INTERRES
    41   19  144 1    
    42   20   21 2    
    43   20   22 1    
    44   22   23 1    
    45   22   24 1    
    46   22  145 1    
    47   23  146 1    
    48   23  147 1    
    49   23  148 1    
    50   24   25 am   BACKBONE|DICT|INTERRES
    51   24  149 1    
    52   25   26 2    
    53   25   27 1    
    54   27   28 1    
    55   27   29 1    
    56   27  150 1    
    57   28  151 1    
    58   28  152 1    
    59   28  153 1    
    60   29   30 am   BACKBONE|DICT|INTERRES
    61   29  154 1    
    62   30   31 2    
    63   30   32 1    
    64   32   33 1    
    65   32   34 1    
    66   32  155 1    
    67   33  156 1    
    68   33  157 1    
    69   33  158 1    
    70   34   35 am   BACKBONE|DICT|INTERRES
    71   34  159 1    
    72   35   36 2    
    73   35   37 1    
    74   37   38 1    
    75   37   39 1    
    76   37  160 1    
    77   38  161 1    
    78   38  162 1    
    79   38  163 1    
    80   39   40 am   BACKBONE|DICT|INTERRES
    81   39  164 1    
    82   40   41 2    
    83   40   42 1    
    84   42   43 1    
    85   42   44 1    
    86   42  165 1    
    87   43  166 1    
    88   43  167 1    
    89   43  168 1    
    90   44   45 am   BACKBONE|DICT|INTERRES
    91   44  169 1    
    92   45   46 2    
    93   45   47 1    
    94   47   48 1    
    95   47   49 1    
    96   47  170 1    
    97   48  171 1    
    98   48  172 1    
    99   48  173 1    
   100   49   50 am   BACKBONE|DICT|INTERRES
   101   49  174 1    
   102   50   51 2    
   103   50   52 1    
   104   52   53 1    
   105   52   54 1    
   106   52  175 1    
   107   53  176 1    
   108   53  177 1    
   109   53  178 1    
   110   54   55 am   BACKBONE|DICT|INTERRES
   111   54  179 1    
   112   55   56 2    
   113   55   57 1    
   114   57   58 1    
   115   57   59 1    
   116   57  180 1    
   117   58  181 1    
   118   58  182 1    
   119   58  183 1    
   120   59   60 am   BACKBONE|DICT|INTERRES
   121   59  184 1    
   122   60   61 2    
   123   60   62 1    
   124   62   63 1    
   125   62   64 1    
   126   62  185 1    
   127   63  186 1    
   128   63  187 1    
   129   63  188 1    
   130   64   65 am   BACKBONE|DICT|INTERRES
   131   64  189 1    
   132   65   66 2    
   133   67   68 2    
   134   67   69 am   BACKBONE|DICT|INTERRES
   135   69   70 1    
   136   69  190 1    
   137   70   71 1    
   138   70   72 1    
   139   70  191 1    
   140   71  192 1    
   141   71  193 1    
   142   71  194 1    
   143   72   73 2    
   144   72   74 am   BACKBONE|DICT|INTERRES
   145   74   75 1    
   146   74  195 1    
   147   75   76 1    
   148   75   77 1    
   149   75  196 1    
   150   76  197 1    
   151   76  198 1    
   152   76  199 1    
   153   77   78 2    
   154   77   79 am   BACKBONE|DICT|INTERRES
   155   79   80 1    
   156   79  200 1    
   157   80   81 1    
   158   80   82 1    
   159   80  201 1    
   160   81  202 1    
   161   81  203 1    
   162   81  204 1    
   163   82   83 2    
   164   82   84 am   BACKBONE|DICT|INTERRES
   165   84   85 1    
   166   84  205 1    
   167   85   86 1    
   168   85   87 1    
   169   85  206 1    
   170   86  207 1    
   171   86  208 1    
   172   86  209 1    
   173   87   88 2    
   174   87   89 am   BACKBONE|DICT|INTERRES
   175   89   90 1    
   176   89  210 1    
   177   90   91 1    
   178   90   92 1    
   179   90  211 1    
   180   91  212 1    
   181   91  213 1    
   182   91  214 1    
   183   92   93 2    
   184   92   94 am   BACKBONE|DICT|INTERRES
   185   94   95 1    
   186   94  215 1    
   187   95   96 1    
   188   95   97 1    
   189   95  216 1    
   190   96  217 1    
   191   96  218 1    
   192   96  219 1    
   193   97   98 2    
   194   97   99 am   BACKBONE|DICT|INTERRES
   195   99  100 1    
   196   99  220 1    
   197  100  101 1    
   198  100  102 1    
   199  100  221 1    
   200  101  222 1    
   201  101  223 1    
   202  101  224 1    
   203  102  103 2    
   204  102  104 am   BACKBONE|DICT|INTERRES
   205  104  105 1    
   206  104  225 1    
   207  105  106 1    
   208  105  107 1    
   209  105  226 1    
   210  106  227 1    
   211  106  228 1    
   212  106  229 1    
   213  107  108 2    
   214  107  109 am   BACKBONE|DICT|INTERRES
   215  109  110 1    
   216  109  230 1    
   217  110  111 1    
   218  110  112 1    
   219  110  231 1    
   220  111  232 1    
   221  111  233 1    
   222  111  234 1    
   223  112  113 2    
   224  112  114 am   BACKBONE|DICT|INTERRES
   225  114  115 1    
   226  114  235 1    
   227  115  116 1    
   228  115  117 1    
   229  115  236 1    
   230  116  237 1    
   231  116  238 1    
   232  116  239 1    
   233  117  118 2    
   234  117  119 am   BACKBONE|DICT|INTERRES
   235  119  120 1    
   236  119  240 1    
   237  120  121 1    
   238  120  124 1    
   239  120  241 1    
   240  121  122 am   BACKBONE|DICT|INTERRES
   241  121  123 2    
   242  122  242 1    
   243  122  243 1    
   244  124  125 1    
   245  124  244 1    
   246  124  245 1    
   247  125  126 1    
   248  126  246 1    
   249  126  247 1    
@<TRIPOS>SUBSTRUCTURE
     1 UNK         1 GROUP             0       ****    0 ROOT    
