@<TRIPOS>MOLECULE
3R540
247   249    1
SMALL
USER_CHARGES


@<TRIPOS>ATOM
      1 CA          5.7423  -17.1770  -46.0308 C.3       0 UNK        -0.1800 
      2 C           5.6237  -17.1464  -47.5537 C.2       0 UNK         0.5000 
      3 O           6.2820  -17.9385  -48.2250 O.2       0 UNK        -0.5000 
      4 N           4.7967  -16.2736  -48.1444 N.am      1 UNK        -0.5000 
      5 CA          4.0145  -15.2149  -47.4961 C.3       1 UNK         0.1400 
      6 C6          2.8908  -14.6813  -48.4199 C.3       23 UNK        -0.0398 
      7 S7          1.7212  -15.9886  -48.9210 S.3       23 UNK        -0.2404 
      8 C8          0.4252  -15.0019  -49.7242 C.3       23 UNK        -0.0205 
      9 C9         -0.6702  -15.8909  -50.2934 C.ar      23 UNK        -0.0193 
     10 C10        -0.4954  -16.5111  -51.5338 C.ar      23 UNK        -0.1150 
     11 C11        -1.4979  -17.3239  -52.0712 C.ar      23 UNK        -0.0193 
     12 C12        -2.6918  -17.5006  -51.3644 C.ar      23 UNK        -0.1150 
     13 C13        -2.8820  -16.8805  -50.1256 C.ar      23 UNK        -0.0193 
     14 C14        -1.8638  -16.0834  -49.5916 C.ar      23 UNK        -0.1150 
     15 C15        -4.2019  -17.0393  -49.3819 C.3       23 UNK        -0.0205 
     16 S16        -4.4606  -18.7240  -48.7401 S.3       23 UNK        -0.2404 
     17 C17        -3.1023  -18.8930  -47.5357 C.3       23 UNK        -0.0398 
     18 CA         -2.1357  -20.0462  -47.8962 C.3       11 UNK         0.1400 
     19 N          -0.8247  -19.8845  -47.2657 N.am      11 UNK        -0.5000 
     20 C           0.2481  -20.6473  -47.5171 C.2       10 UNK         0.5000 
     21 O           0.2625  -21.5547  -48.3474 O.2       10 UNK        -0.5000 
     22 CA          1.4990  -20.4012  -46.6559 C.3       10 UNK         0.1400 
     23 CB          2.3038  -19.2042  -47.1785 C.3       10 UNK        -0.1800 
     24 N           1.1785  -20.2013  -45.2429 N.am      10 UNK        -0.5000 
     25 C           0.6099  -21.1236  -44.4543 C.2       9 UNK         0.5000 
     26 O           0.3340  -22.2641  -44.8267 O.2       9 UNK        -0.5000 
     27 CA          0.2437  -20.6848  -43.0248 C.3       9 UNK         0.1400 
     28 CB          1.4836  -20.6717  -42.1185 C.3       9 UNK        -0.1800 
     29 N          -0.4108  -19.3760  -42.9866 N.am      9 UNK        -0.5000 
     30 C          -1.5945  -19.1043  -43.5557 C.2       8 UNK         0.5000 
     31 O          -2.2796  -19.9401  -44.1459 O.2       8 UNK        -0.5000 
     32 CA         -2.0716  -17.6417  -43.5021 C.3       8 UNK         0.1400 
     33 CB         -2.6625  -17.3071  -42.1246 C.3       8 UNK        -0.1800 
     34 N          -1.0100  -16.6900  -43.8350 N.am      8 UNK        -0.5000 
     35 C          -0.3861  -16.6454  -45.0208 C.2       7 UNK         0.5000 
     36 O          -0.6730  -17.3721  -45.9683 O.2       7 UNK        -0.5000 
     37 CA          0.7948  -15.6743  -45.1627 C.3       7 UNK         0.1400 
     38 CB          0.3140  -14.2394  -45.4204 C.3       7 UNK        -0.1800 
     39 N           1.6841  -15.7010  -44.0052 N.am      7 UNK        -0.5000 
     40 C           2.3873  -16.7672  -43.6013 C.2       6 UNK         0.5000 
     41 O           2.4180  -17.8372  -44.2056 O.2       6 UNK        -0.5000 
     42 CA          3.1485  -16.6238  -42.2742 C.3       6 UNK         0.1400 
     43 CB          4.4815  -15.8874  -42.4810 C.3       6 UNK        -0.1800 
     44 N           2.3494  -15.9274  -41.2660 N.am      6 UNK        -0.5000 
     45 C           1.2522  -16.4350  -40.6868 C.2       5 UNK         0.5000 
     46 O           0.8132  -17.5612  -40.9214 O.2       5 UNK        -0.5000 
     47 CA          0.5025  -15.5133  -39.7071 C.3       5 UNK         0.1400 
     48 CB          1.1550  -15.5544  -38.3173 C.3       5 UNK        -0.1800 
     49 N           0.4395  -14.1265  -40.1735 N.am      5 UNK        -0.5000 
     50 C          -0.2718  -13.7218  -41.2350 C.2       4 UNK         0.5000 
     51 O          -0.9650  -14.4739  -41.9191 O.2       4 UNK        -0.5000 
     52 CA         -0.1462  -12.2373  -41.6308 C.3       4 UNK         0.1400 
     53 CB         -1.0957  -11.3719  -40.7889 C.3       4 UNK        -0.1800 
     54 N           1.2171  -11.7002  -41.5361 N.am      4 UNK        -0.5000 
     55 C           2.2827  -12.2102  -42.1671 C.2       3 UNK         0.5000 
     56 O           2.2439  -13.2479  -42.8311 O.2       3 UNK        -0.5000 
     57 CA          3.6211  -11.4639  -42.0009 C.3       3 UNK         0.1400 
     58 CB          4.2198  -11.7479  -40.6142 C.3       3 UNK        -0.1800 
     59 N           4.5917  -11.8765  -43.0176 N.am      3 UNK        -0.5000 
     60 C           4.4716  -11.6480  -44.3322 C.2       2 UNK         0.5000 
     61 O           3.6158  -10.9113  -44.8251 O.2       2 UNK        -0.5000 
     62 CA          5.4248  -12.4117  -45.2620 C.3       2 UNK         0.1400 
     63 CB          6.6849  -12.9736  -44.5666 C.3       2 UNK        -0.1800 
     64 N           4.6612  -13.4982  -45.8687 N.am      2 UNK        -0.5000 
     65 C           4.9379  -14.0629  -47.0482 C.2       1 UNK         0.5000 
     66 O           5.8724  -13.7123  -47.7729 O.2       1 UNK        -0.5000 
     67 C          -2.7588  -21.4204  -47.5751 C.2       11 UNK         0.5000 
     68 O          -3.2552  -22.0896  -48.4806 O.2       11 UNK        -0.5000 
     69 N          -2.7002  -21.8435  -46.3056 N.am      12 UNK        -0.5000 
     70 CA         -3.1694  -23.1568  -45.8624 C.3       12 UNK         0.1400 
     71 CB         -3.1135  -23.2345  -44.3297 C.3       12 UNK        -0.1800 
     72 C          -2.3866  -24.3187  -46.5043 C.2       12 UNK         0.5000 
     73 O          -2.9959  -25.3122  -46.9002 O.2       12 UNK        -0.5000 
     74 N          -1.0608  -24.1630  -46.6083 N.am      13 UNK        -0.5000 
     75 CA         -0.1503  -25.1551  -47.1714 C.3       13 UNK         0.1400 
     76 CB          1.2836  -24.8493  -46.7075 C.3       13 UNK        -0.1800 
     77 C          -0.2239  -25.2497  -48.7065 C.2       13 UNK         0.5000 
     78 O          -0.4936  -26.3292  -49.2343 O.2       13 UNK        -0.5000 
     79 N           0.0617  -24.1383  -49.3970 N.am      14 UNK        -0.5000 
     80 CA          0.3013  -24.1143  -50.8416 C.3       14 UNK         0.1400 
     81 CB          1.3556  -23.0416  -51.1582 C.3       14 UNK        -0.1800 
     82 C          -0.9655  -23.8514  -51.6661 C.2       14 UNK         0.5000 
     83 O          -1.0452  -24.3144  -52.8066 O.2       14 UNK        -0.5000 
     84 N          -1.9153  -23.0927  -51.1048 N.am      15 UNK        -0.5000 
     85 CA         -3.1361  -22.6758  -51.7935 C.3       15 UNK         0.1400 
     86 CB         -3.3143  -21.1546  -51.6477 C.3       15 UNK        -0.1800 
     87 C          -4.3835  -23.4176  -51.3034 C.2       15 UNK         0.5000 
     88 O          -5.4640  -23.1347  -51.8200 O.2       15 UNK        -0.5000 
     89 N          -4.2346  -24.3229  -50.3258 N.am      16 UNK        -0.5000 
     90 CA         -5.3031  -25.0936  -49.6808 C.3       16 UNK         0.1400 
     91 CB         -5.8691  -26.1424  -50.6614 C.3       16 UNK        -0.1800 
     92 C          -6.3914  -24.1891  -49.0601 C.2       16 UNK         0.5000 
     93 O          -7.5819  -24.4756  -49.1886 O.2       16 UNK        -0.5000 
     94 N          -5.9494  -23.0845  -48.4389 N.am      17 UNK        -0.5000 
     95 CA         -6.7585  -21.9909  -47.8903 C.3       17 UNK         0.1400 
     96 CB         -7.6413  -22.4740  -46.7210 C.3       17 UNK        -0.1800 
     97 C          -7.5391  -21.2457  -48.9940 C.2       17 UNK         0.5000 
     98 O          -8.7376  -20.9961  -48.8575 O.2       17 UNK        -0.5000 
     99 N          -6.8165  -20.9194  -50.0754 N.am      18 UNK        -0.5000 
    100 CA        -7.2421  -20.1860  -51.2736 C.3       18 UNK         0.1400 
    101 CB        -7.7938  -18.7900  -50.9166 C.3       18 UNK        -0.1800 
    102 C         -8.1857  -20.9708  -52.2092 C.2       18 UNK         0.5000 
    103 O         -8.7361  -20.3802  -53.1394 O.2       18 UNK        -0.5000 
    104 N         -8.3330  -22.2836  -51.9888 N.am      19 UNK        -0.5000 
    105 CA        -9.1109  -23.1805  -52.8434 C.3       19 UNK         0.1400 
    106 CB        -9.4798  -24.4446  -52.0537 C.3       19 UNK        -0.1800 
    107 C         -8.3660  -23.5470  -54.1411 C.2       19 UNK         0.5000 
    108 O         -9.0014  -23.6593  -55.1902 O.2       19 UNK        -0.5000 
    109 N         -7.0401  -23.7195  -54.0500 N.am      20 UNK        -0.5000 
    110 CA        -6.1596  -24.0490  -55.1739 C.3       20 UNK         0.1400 
    111 CB        -5.1130  -25.0743  -54.7076 C.3       20 UNK        -0.1800 
    112 C         -5.4681  -22.8048  -55.7631 C.2       20 UNK         0.5000 
    113 O         -4.9785  -22.8766  -56.8901 O.2       20 UNK        -0.5000 
    114 N         -5.4452  -21.6967  -55.0029 N.am      21 UNK        -0.5000 
    115 CA        -4.8856  -20.3849  -55.3629 C.3       21 UNK         0.1400 
    116 CB        -5.7312  -19.7234  -56.4706 C.3       21 UNK        -0.1800 
    117 C         -3.3766  -20.4378  -55.6970 C.2       21 UNK         0.5000 
    118 O         -2.9389  -19.8767  -56.7021 O.2       21 UNK        -0.5000 
    119 N         -2.6258  -21.1131  -54.8179 N.am      22 UNK        -0.5000 
    120 CA        -1.1893  -21.4239  -54.8903 C.3       22 UNK         0.1400 
    121 C         -0.8789  -22.4372  -56.0233 C.2       22 UNK         0.5000 
    122 N         -0.8397  -23.7245  -55.7024 N.am      22 UNK        -0.7600 
    123 O         -0.6491  -22.0722  -57.1731 O.2       22 UNK        -0.5000 
    124 C124       -0.2669  -20.1741  -54.9131 C.3       23 UNK        -0.0398 
    125 S125       -0.1474  -19.4098  -53.2611 S.3       23 UNK        -0.2404 
    126 C126       -1.2886  -18.0036  -53.4159 C.3       23 UNK        -0.0205 
    127 H127        6.2088  -16.2669  -45.6549 H         1 UNK         0.0600 
    128 H128        6.3572  -18.0195  -45.7138 H         1 UNK         0.0600 
    129 H129        4.7648  -17.2945  -45.5654 H         1 UNK         0.0600 
    130 H130        4.7395  -16.2797  -49.1521 H         1 UNK         0.3000 
    131 H131        3.5449  -15.6383  -46.6080 H         1 UNK         0.0600 
    132 H132        2.3261  -13.8949  -47.9157 H         1 UNK         0.0800 
    133 H133        3.3118  -14.2307  -49.3208 H         1 UNK         0.0800 
    134 H134        0.8656  -14.4044  -50.5238 H         1 UNK         0.0800 
    135 H135        0.0068  -14.2973  -49.0039 H         1 UNK         0.0800 
    136 H136        0.4284  -16.3707  -52.0775 H         1 UNK         0.1150 
    137 H137       -3.4769  -18.1190  -51.7758 H         1 UNK         0.1150 
    138 H138       -2.0026  -15.6035  -48.6329 H         1 UNK         0.1150 
    139 H139       -4.2705  -16.3295  -48.5560 H         1 UNK         0.0800 
    140 H140       -5.0201  -16.7940  -50.0600 H         1 UNK         0.0800 
    141 H141       -3.5185  -19.0148  -46.5342 H         1 UNK         0.0800 
    142 H142       -2.5598  -17.9499  -47.5139 H         1 UNK         0.0800 
    143 H143       -1.9555  -20.0115  -48.9730 H         1 UNK         0.0600 
    144 H144       -0.7340  -19.1141  -46.6072 H         1 UNK         0.3000 
    145 H145        2.1295  -21.2894  -46.7314 H         1 UNK         0.0600 
    146 H146        3.2539  -19.1109  -46.6531 H         1 UNK         0.0600 
    147 H147        2.5264  -19.3089  -48.2411 H         1 UNK         0.0600 
    148 H148        1.7576  -18.2710  -47.0457 H         1 UNK         0.0600 
    149 H149        1.4187  -19.2952  -44.8480 H         1 UNK         0.3000 
    150 H150       -0.4593  -21.4183  -42.6246 H         1 UNK         0.0600 
    151 H151        1.9759  -21.6449  -42.1163 H         1 UNK         0.0600 
    152 H152        1.2148  -20.4402  -41.0877 H         1 UNK         0.0600 
    153 H153        2.2158  -19.9334  -42.4456 H         1 UNK         0.0600 
    154 H154        0.0764  -18.6373  -42.4897 H         1 UNK         0.3000 
    155 H155       -2.8633  -17.5265  -44.2453 H         1 UNK         0.0600 
    156 H156       -1.9087  -17.3564  -41.3386 H         1 UNK         0.0600 
    157 H157       -3.4590  -18.0041  -41.8612 H         1 UNK         0.0600 
    158 H158       -3.0911  -16.3049  -42.1137 H         1 UNK         0.0600 
    159 H159       -0.7548  -16.0208  -43.1150 H         1 UNK         0.3000 
    160 H160        1.3703  -16.0001  -46.0275 H         1 UNK         0.0600 
    161 H161       -0.2695  -13.8548  -44.5838 H         1 UNK         0.0600 
    162 H162       -0.3149  -14.1940  -46.3103 H         1 UNK         0.0600 
    163 H163        1.1541  -13.5630  -45.5789 H         1 UNK         0.0600 
    164 H164        1.7493  -14.8427  -43.4600 H         1 UNK         0.3000 
    165 H165        3.3677  -17.6268  -41.9023 H         1 UNK         0.0600 
    166 H166        5.0301  -15.7945  -41.5437 H         1 UNK         0.0600 
    167 H167        5.1213  -16.4302  -43.1770 H         1 UNK         0.0600 
    168 H168        4.3356  -14.8859  -42.8841 H         1 UNK         0.0600 
    169 H169        2.6014  -14.9706  -41.0686 H         1 UNK         0.3000 
    170 H170       -0.5190  -15.8885  -39.6142 H         1 UNK         0.0600 
    171 H171        1.2007  -16.5763  -37.9383 H         1 UNK         0.0600 
    172 H172        2.1738  -15.1654  -38.3368 H         1 UNK         0.0600 
    173 H173        0.5850  -14.9673  -37.5970 H         1 UNK         0.0600 
    174 H174        0.9883  -13.4450  -39.6705 H         1 UNK         0.3000 
    175 H175       -0.4530  -12.1555  -42.6754 H         1 UNK         0.0600 
    176 H176       -0.8138  -11.3715  -39.7353 H         1 UNK         0.0600 
    177 H177       -1.1003  -10.3385  -41.1361 H         1 UNK         0.0600 
    178 H178       -2.1208  -11.7392  -40.8546 H         1 UNK         0.0600 
    179 H179        1.3286  -10.8554  -40.9943 H         1 UNK         0.3000 
    180 H180        3.4396  -10.3923  -42.1040 H         1 UNK         0.0600 
    181 H181        4.4087  -12.8123  -40.4669 H         1 UNK         0.0600 
    182 H182        3.5491  -11.4204  -39.8189 H         1 UNK         0.0600 
    183 H183        5.1629  -11.2186  -40.4768 H         1 UNK         0.0600 
    184 H184        5.3157  -12.5077  -42.7096 H         1 UNK         0.3000 
    185 H185        5.7390  -11.7079  -46.0359 H         1 UNK         0.0600 
    186 H186        7.2280  -12.1881  -44.0394 H         1 UNK         0.0600 
    187 H187        6.4440  -13.7586  -43.8492 H         1 UNK         0.0600 
    188 H188        7.3734  -13.4006  -45.2961 H         1 UNK         0.0600 
    189 H189        3.8457  -13.7884  -45.3460 H         1 UNK         0.3000 
    190 H190       -2.3182  -21.2280  -45.5924 H         1 UNK         0.3000 
    191 H191       -4.2141  -23.2565  -46.1621 H         1 UNK         0.0600 
    192 H192       -2.0969  -23.1127  -43.9556 H         1 UNK         0.0600 
    193 H193       -3.4822  -24.1972  -43.9736 H         1 UNK         0.0600 
    194 H194       -3.7311  -22.4603  -43.8741 H         1 UNK         0.0600 
    195 H195       -0.6370  -23.3296  -46.2121 H         1 UNK         0.3000 
    196 H196       -0.4236  -26.1328  -46.7686 H         1 UNK         0.0600 
    197 H197        1.9914  -25.5702  -47.1186 H         1 UNK         0.0600 
    198 H198        1.3628  -24.8990  -45.6213 H         1 UNK         0.0600 
    199 H199        1.6073  -23.8551  -47.0175 H         1 UNK         0.0600 
    200 H200        0.2168  -23.2618  -48.9002 H         1 UNK         0.3000 
    201 H201        0.7059  -25.0785  -51.1572 H         1 UNK         0.0600 
    202 H202        2.2782  -23.2187  -50.6053 H         1 UNK         0.0600 
    203 H203        1.0019  -22.0403  -50.9086 H         1 UNK         0.0600 
    204 H204        1.6067  -23.0421  -52.2198 H         1 UNK         0.0600 
    205 H205       -1.7911  -22.7569  -50.1577 H         1 UNK         0.3000 
    206 H206       -3.0619  -22.9035  -52.8562 H         1 UNK         0.0600 
    207 H207       -2.4009  -20.6209  -51.9032 H         1 UNK         0.0600 
    208 H208       -4.1025  -20.7846  -52.3017 H         1 UNK         0.0600 
    209 H209       -3.5847  -20.8658  -50.6354 H         1 UNK         0.0600 
    210 H210       -3.3073  -24.4549  -49.9484 H         1 UNK         0.3000 
    211 H211       -4.8455  -25.6320  -48.8505 H         1 UNK         0.0600 
    212 H212       -6.3402  -25.6782  -51.5275 H         1 UNK         0.0600 
    213 H213       -6.6169  -26.7715  -50.1774 H         1 UNK         0.0600 
    214 H214       -5.0811  -26.8007  -51.0269 H         1 UNK         0.0600 
    215 H215       -4.9461  -22.9140  -48.4473 H         1 UNK         0.3000 
    216 H216       -6.0508  -21.2681  -47.4814 H         1 UNK         0.0600 
    217 H217       -8.1347  -21.6319  -46.2346 H         1 UNK         0.0600 
    218 H218       -7.0461  -22.9831  -45.9630 H         1 UNK         0.0600 
    219 H219       -8.4215  -23.1594  -47.0525 H         1 UNK         0.0600 
    220 H220       -5.8527  -21.2198  -50.0848 H         1 UNK         0.3000 
    221 H221       -6.3315  -20.0263  -51.8509 H         1 UNK         0.0600 
    222 H222       -8.7651  -18.8505  -50.4254 H         1 UNK         0.0600 
    223 H223       -7.1160  -18.2530  -50.2541 H         1 UNK         0.0600 
    224 H224       -7.9208  -18.1792  -51.8110 H         1 UNK         0.0600 
    225 H225       -7.8162  -22.7051  -51.2287 H         1 UNK         0.3000 
    226 H226      -10.0398  -22.6778  -53.1216 H         1 UNK         0.0600 
    227 H227      -10.0407  -24.1966  -51.1523 H         1 UNK         0.0600 
    228 H228      -10.1015  -25.1115  -52.6522 H         1 UNK         0.0600 
    229 H229       -8.5952  -25.0044  -51.7513 H         1 UNK         0.0600 
    230 H230       -6.5890  -23.5910  -53.1460 H         1 UNK         0.3000 
    231 H231       -6.7402  -24.5099  -55.9757 H         1 UNK         0.0600 
    232 H232       -5.5885  -25.9599  -54.2859 H         1 UNK         0.0600 
    233 H233       -4.4445  -24.6623  -53.9533 H         1 UNK         0.0600 
    234 H234       -4.4938  -25.4045  -55.5426 H         1 UNK         0.0600 
    235 H235       -5.8928  -21.7565  -54.1003 H         1 UNK         0.3000 
    236 H236       -4.9754  -19.7584  -54.4743 H         1 UNK         0.0600 
    237 H237       -5.6667  -20.2700  -57.4119 H         1 UNK         0.0600 
    238 H238       -6.7818  -19.6713  -56.1845 H         1 UNK         0.0600 
    239 H239       -5.3966  -18.7031  -56.6613 H         1 UNK         0.0600 
    240 H240       -3.1101  -21.5455  -54.0493 H         1 UNK         0.3000 
    241 H241       -0.9655  -21.9432  -53.9593 H         1 UNK         0.0600 
    242 H242       -0.6331  -24.4045  -56.4169 H         1 UNK         0.3800 
    243 H243       -0.9788  -24.0331  -54.7439 H         1 UNK         0.3800 
    244 H244       -0.5870  -19.4426  -55.6553 H         1 UNK         0.0800 
    245 H245        0.7484  -20.4576  -55.1956 H         1 UNK         0.0800 
    246 H246       -2.2413  -18.3493  -53.8178 H         1 UNK         0.0800 
    247 H247       -0.8885  -17.2866  -54.1342 H         1 UNK         0.0800 
@<TRIPOS>BOND
     1    1    2 1    
     2    1  127 1    
     3    1  128 1    
     4    1  129 1    
     5    2    3 2    
     6    2    4 am   BACKBONE|DICT|INTERRES
     7    4    5 1    
     8    4  130 1    
     9    5    6 1    
    10    5   65 1    
    11    5  131 1    
    12    6    7 1    
    13    6  132 1    
    14    6  133 1    
    15    7    8 1    
    16    8    9 1    
    17    8  134 1    
    18    8  135 1    
    19    9   10 ar   
    20    9   14 ar   
    21   10   11 ar   
    22   10  136 1    
    23   11   12 ar   
    24   11  126 1    
    25   12   13 ar   
    26   12  137 1    
    27   13   14 ar   
    28   13   15 1    
    29   14  138 1    
    30   15   16 1    
    31   15  139 1    
    32   15  140 1    
    33   16   17 1    
    34   17   18 1    
    35   17  141 1    
    36   17  142 1    
    37   18   19 1    
    38   18   67 1    
    39   18  143 1    
    40   19   20 am   BACKBONE|DICT|INTERRES
    41   19  144 1    
    42   20   21 2    
    43   20   22 1    
    44   22   23 1    
    45   22   24 1    
    46   22  145 1    
    47   23  146 1    
    48   23  147 1    
    49   23  148 1    
    50   24   25 am   BACKBONE|DICT|INTERRES
    51   24  149 1    
    52   25   26 2    
    53   25   27 1    
    54   27   28 1    
    55   27   29 1    
    56   27  150 1    
    57   28  151 1    
    58   28  152 1    
    59   28  153 1    
    60   29   30 am   BACKBONE|DICT|INTERRES
    61   29  154 1    
    62   30   31 2    
    63   30   32 1    
    64   32   33 1    
    65   32   34 1    
    66   32  155 1    
    67   33  156 1    
    68   33  157 1    
    69   33  158 1    
    70   34   35 am   BACKBONE|DICT|INTERRES
    71   34  159 1    
    72   35   36 2    
    73   35   37 1    
    74   37   38 1    
    75   37   39 1    
    76   37  160 1    
    77   38  161 1    
    78   38  162 1    
    79   38  163 1    
    80   39   40 am   BACKBONE|DICT|INTERRES
    81   39  164 1    
    82   40   41 2    
    83   40   42 1    
    84   42   43 1    
    85   42   44 1    
    86   42  165 1    
    87   43  166 1    
    88   43  167 1    
    89   43  168 1    
    90   44   45 am   BACKBONE|DICT|INTERRES
    91   44  169 1    
    92   45   46 2    
    93   45   47 1    
    94   47   48 1    
    95   47   49 1    
    96   47  170 1    
    97   48  171 1    
    98   48  172 1    
    99   48  173 1    
   100   49   50 am   BACKBONE|DICT|INTERRES
   101   49  174 1    
   102   50   51 2    
   103   50   52 1    
   104   52   53 1    
   105   52   54 1    
   106   52  175 1    
   107   53  176 1    
   108   53  177 1    
   109   53  178 1    
   110   54   55 am   BACKBONE|DICT|INTERRES
   111   54  179 1    
   112   55   56 2    
   113   55   57 1    
   114   57   58 1    
   115   57   59 1    
   116   57  180 1    
   117   58  181 1    
   118   58  182 1    
   119   58  183 1    
   120   59   60 am   BACKBONE|DICT|INTERRES
   121   59  184 1    
   122   60   61 2    
   123   60   62 1    
   124   62   63 1    
   125   62   64 1    
   126   62  185 1    
   127   63  186 1    
   128   63  187 1    
   129   63  188 1    
   130   64   65 am   BACKBONE|DICT|INTERRES
   131   64  189 1    
   132   65   66 2    
   133   67   68 2    
   134   67   69 am   BACKBONE|DICT|INTERRES
   135   69   70 1    
   136   69  190 1    
   137   70   71 1    
   138   70   72 1    
   139   70  191 1    
   140   71  192 1    
   141   71  193 1    
   142   71  194 1    
   143   72   73 2    
   144   72   74 am   BACKBONE|DICT|INTERRES
   145   74   75 1    
   146   74  195 1    
   147   75   76 1    
   148   75   77 1    
   149   75  196 1    
   150   76  197 1    
   151   76  198 1    
   152   76  199 1    
   153   77   78 2    
   154   77   79 am   BACKBONE|DICT|INTERRES
   155   79   80 1    
   156   79  200 1    
   157   80   81 1    
   158   80   82 1    
   159   80  201 1    
   160   81  202 1    
   161   81  203 1    
   162   81  204 1    
   163   82   83 2    
   164   82   84 am   BACKBONE|DICT|INTERRES
   165   84   85 1    
   166   84  205 1    
   167   85   86 1    
   168   85   87 1    
   169   85  206 1    
   170   86  207 1    
   171   86  208 1    
   172   86  209 1    
   173   87   88 2    
   174   87   89 am   BACKBONE|DICT|INTERRES
   175   89   90 1    
   176   89  210 1    
   177   90   91 1    
   178   90   92 1    
   179   90  211 1    
   180   91  212 1    
   181   91  213 1    
   182   91  214 1    
   183   92   93 2    
   184   92   94 am   BACKBONE|DICT|INTERRES
   185   94   95 1    
   186   94  215 1    
   187   95   96 1    
   188   95   97 1    
   189   95  216 1    
   190   96  217 1    
   191   96  218 1    
   192   96  219 1    
   193   97   98 2    
   194   97   99 am   BACKBONE|DICT|INTERRES
   195   99  100 1    
   196   99  220 1    
   197  100  101 1    
   198  100  102 1    
   199  100  221 1    
   200  101  222 1    
   201  101  223 1    
   202  101  224 1    
   203  102  103 2    
   204  102  104 am   BACKBONE|DICT|INTERRES
   205  104  105 1    
   206  104  225 1    
   207  105  106 1    
   208  105  107 1    
   209  105  226 1    
   210  106  227 1    
   211  106  228 1    
   212  106  229 1    
   213  107  108 2    
   214  107  109 am   BACKBONE|DICT|INTERRES
   215  109  110 1    
   216  109  230 1    
   217  110  111 1    
   218  110  112 1    
   219  110  231 1    
   220  111  232 1    
   221  111  233 1    
   222  111  234 1    
   223  112  113 2    
   224  112  114 am   BACKBONE|DICT|INTERRES
   225  114  115 1    
   226  114  235 1    
   227  115  116 1    
   228  115  117 1    
   229  115  236 1    
   230  116  237 1    
   231  116  238 1    
   232  116  239 1    
   233  117  118 2    
   234  117  119 am   BACKBONE|DICT|INTERRES
   235  119  120 1    
   236  119  240 1    
   237  120  121 1    
   238  120  124 1    
   239  120  241 1    
   240  121  122 am   BACKBONE|DICT|INTERRES
   241  121  123 2    
   242  122  242 1    
   243  122  243 1    
   244  124  125 1    
   245  124  244 1    
   246  124  245 1    
   247  125  126 1    
   248  126  246 1    
   249  126  247 1    
@<TRIPOS>SUBSTRUCTURE
     1 UNK         1 GROUP             0       ****    0 ROOT    
