@<TRIPOS>MOLECULE
3R540
247   249    1
SMALL
USER_CHARGES


@<TRIPOS>ATOM
      1 CA          5.8178   -9.8003  -48.6858 C.3       0 UNK        -0.1800 
      2 C           4.7197  -10.3788  -47.8049 C.2       0 UNK         0.5000 
      3 O           4.1132   -9.6482  -47.0216 O.2       0 UNK        -0.5000 
      4 N           4.4607  -11.6868  -47.9312 N.am      1 UNK        -0.5000 
      5 CA          3.4300  -12.4183  -47.1826 C.3       1 UNK         0.1400 
      6 C6          3.7176  -13.9391  -47.1555 C.3       23 UNK        -0.0398 
      7 S7          3.8175  -14.7269  -48.8027 S.3       23 UNK        -0.2404 
      8 C8          2.7020  -16.1381  -48.5447 C.3       23 UNK        -0.0205 
      9 C9          2.6836  -17.0873  -49.7334 C.ar      23 UNK        -0.0193 
     10 C10         2.1653  -16.6675  -50.9618 C.ar      23 UNK        -0.1150 
     11 C11         2.1293  -17.5401  -52.0524 C.ar      23 UNK        -0.0193 
     12 C12         2.5994  -18.8482  -51.9009 C.ar      23 UNK        -0.1150 
     13 C13         3.1222  -19.2870  -50.6797 C.ar      23 UNK        -0.0193 
     14 C14         3.1699  -18.3929  -49.6022 C.ar      23 UNK        -0.1150 
     15 C15         3.6626  -20.7149  -50.5719 C.3       23 UNK        -0.0205 
     16 S16         3.3899  -21.5286  -48.9582 S.3       23 UNK        -0.2404 
     17 C17         1.5722  -21.5049  -48.8420 C.3       23 UNK        -0.0398 
     18 CA          0.9681  -22.7854  -48.2168 C.3       11 UNK         0.1400 
     19 N           1.4980  -23.0920  -46.8834 N.am      11 UNK        -0.5000 
     20 C           1.3065  -24.2626  -46.2560 C.2       10 UNK         0.5000 
     21 O           0.6890  -25.2048  -46.7521 O.2       10 UNK        -0.5000 
     22 CA          1.8473  -24.3973  -44.8193 C.3       10 UNK         0.1400 
     23 CB          3.2952  -24.9081  -44.8377 C.3       10 UNK        -0.1800 
     24 N           1.7852  -23.1568  -44.0463 N.am      10 UNK        -0.5000 
     25 C           0.6727  -22.4590  -43.7791 C.2       9 UNK         0.5000 
     26 O          -0.4522  -22.8078  -44.1379 O.2       9 UNK        -0.5000 
     27 CA          0.8467  -21.1203  -43.0339 C.3       9 UNK         0.1400 
     28 CB          2.1327  -21.0459  -42.1828 C.3       9 UNK        -0.1800 
     29 N           0.7812  -19.9668  -43.9354 N.am      9 UNK        -0.5000 
     30 C           1.4948  -19.7611  -45.0535 C.2       8 UNK         0.5000 
     31 O           2.2754  -20.5782  -45.5423 O.2       8 UNK        -0.5000 
     32 CA          1.3187  -18.4014  -45.7445 C.3       8 UNK         0.1400 
     33 CB          0.0456  -18.3757  -46.5984 C.3       8 UNK        -0.1800 
     34 N           1.2687  -17.2805  -44.8117 N.am      8 UNK        -0.5000 
     35 C           2.2640  -16.8636  -44.0191 C.2       7 UNK         0.5000 
     36 O           3.3907  -17.3590  -44.0084 O.2       7 UNK        -0.5000 
     37 CA          1.9337  -15.6957  -43.0733 C.3       7 UNK         0.1400 
     38 CB          2.0788  -14.3461  -43.7933 C.3       7 UNK        -0.1800 
     39 N           0.5751  -15.8102  -42.5435 N.am      7 UNK        -0.5000 
     40 C           0.2500  -16.4956  -41.4396 C.2       6 UNK         0.5000 
     41 O           1.0712  -17.0677  -40.7222 O.2       6 UNK        -0.5000 
     42 CA         -1.2449  -16.5540  -41.0684 C.3       6 UNK         0.1400 
     43 CB         -1.6085  -15.3988  -40.1232 C.3       6 UNK        -0.1800 
     44 N          -2.1383  -16.5202  -42.2280 N.am      6 UNK        -0.5000 
     45 C          -2.2570  -17.5105  -43.1220 C.2       5 UNK         0.5000 
     46 O          -1.6123  -18.5583  -43.0757 O.2       5 UNK        -0.5000 
     47 CA         -3.2298  -17.2698  -44.2918 C.3       5 UNK         0.1400 
     48 CB         -4.6632  -17.6485  -43.8917 C.3       5 UNK        -0.1800 
     49 N          -3.2172  -15.9093  -44.8420 N.am      5 UNK        -0.5000 
     50 C          -2.1315  -15.2687  -45.2960 C.2       4 UNK         0.5000 
     51 O          -0.9788  -15.6753  -45.1456 O.2       4 UNK        -0.5000 
     52 CA         -2.3590  -13.9448  -46.0387 C.3       4 UNK         0.1400 
     53 CB         -1.8971  -12.7583  -45.1798 C.3       4 UNK        -0.1800 
     54 N          -1.6214  -13.9423  -47.3009 N.am      4 UNK        -0.5000 
     55 C          -1.9490  -14.6743  -48.3778 C.2       3 UNK         0.5000 
     56 O          -2.9396  -15.4065  -48.4177 O.2       3 UNK        -0.5000 
     57 CA         -1.0217  -14.5864  -49.6133 C.3       3 UNK         0.1400 
     58 CB         -1.8043  -14.6805  -50.9380 C.3       3 UNK        -0.1800 
     59 N          -0.1387  -13.4127  -49.6164 N.am      3 UNK        -0.5000 
     60 C          -0.5007  -12.1207  -49.6603 C.2       2 UNK         0.5000 
     61 O          -1.6656  -11.7400  -49.7854 O.2       2 UNK        -0.5000 
     62 CA          0.6321  -11.0780  -49.5251 C.3       2 UNK         0.1400 
     63 CB          0.1580   -9.7963  -48.8087 C.3       2 UNK        -0.1800 
     64 N           1.8598  -11.5788  -48.8892 N.am      2 UNK        -0.5000 
     65 C           1.9929  -12.1081  -47.6612 C.2       1 UNK         0.5000 
     66 O           1.0427  -12.3631  -46.9203 O.2       1 UNK        -0.5000 
     67 C          -0.5696  -22.6829  -48.1887 C.2       11 UNK         0.5000 
     68 O          -1.2263  -23.1837  -49.0989 O.2       11 UNK        -0.5000 
     69 N          -1.1217  -22.0640  -47.1337 N.am      12 UNK        -0.5000 
     70 CA         -2.5649  -21.9511  -46.9180 C.3       12 UNK         0.1400 
     71 CB         -2.8611  -20.8688  -45.8730 C.3       12 UNK        -0.1800 
     72 C          -3.2000  -23.2951  -46.5305 C.2       12 UNK         0.5000 
     73 O          -4.3028  -23.5916  -46.9861 O.2       12 UNK        -0.5000 
     74 N          -2.4817  -24.1081  -45.7437 N.am      13 UNK        -0.5000 
     75 CA         -2.8675  -25.4783  -45.4028 C.3       13 UNK         0.1400 
     76 CB         -1.8993  -26.0495  -44.3568 C.3       13 UNK        -0.1800 
     77 C          -2.9434  -26.3851  -46.6456 C.2       13 UNK         0.5000 
     78 O          -3.9383  -27.0892  -46.8208 O.2       13 UNK        -0.5000 
     79 N          -1.9287  -26.2997  -47.5196 N.am      14 UNK        -0.5000 
     80 CA         -1.8822  -26.9831  -48.8161 C.3       14 UNK         0.1400 
     81 CB         -0.4945  -26.7891  -49.4454 C.3       14 UNK        -0.1800 
     82 C          -2.9872  -26.5184  -49.7859 C.2       14 UNK         0.5000 
     83 O          -3.5072  -27.3307  -50.5511 O.2       14 UNK        -0.5000 
     84 N          -3.3520  -25.2323  -49.7063 N.am      15 UNK        -0.5000 
     85 CA         -4.4455  -24.6102  -50.4538 C.3       15 UNK         0.1400 
     86 CB         -4.1860  -23.0976  -50.5321 C.3       15 UNK        -0.1800 
     87 C          -5.8439  -24.8926  -49.8622 C.2       15 UNK         0.5000 
     88 O          -6.8274  -24.3956  -50.4098 O.2       15 UNK        -0.5000 
     89 N          -5.9212  -25.6550  -48.7602 N.am      16 UNK        -0.5000 
     90 CA         -7.1326  -26.0267  -48.0213 C.3       16 UNK         0.1400 
     91 CB         -8.0463  -26.9305  -48.8758 C.3       16 UNK        -0.1800 
     92 C          -7.8634  -24.8057  -47.4232 C.2       16 UNK         0.5000 
     93 O          -9.0855  -24.6941  -47.5317 O.2       16 UNK        -0.5000 
     94 N          -7.0787  -23.9129  -46.8042 N.am      17 UNK        -0.5000 
     95 CA         -7.4642  -22.6684  -46.1296 C.3       17 UNK         0.1400 
     96 CB         -8.5225  -22.9088  -45.0322 C.3       17 UNK        -0.1800 
     97 C          -7.8403  -21.5175  -47.0848 C.2       17 UNK         0.5000 
     98 O          -8.3262  -20.4842  -46.6207 O.2       17 UNK        -0.5000 
     99 N          -7.5735  -21.6813  -48.3874 N.am      18 UNK        -0.5000 
    100 CA        -7.6152  -20.6054  -49.3776 C.3       18 UNK         0.1400 
    101 CB        -7.8239  -21.2153  -50.7730 C.3       18 UNK        -0.1800 
    102 C         -6.3304  -19.7525  -49.3184 C.2       18 UNK         0.5000 
    103 O         -5.3978  -20.0749  -48.5753 O.2       18 UNK        -0.5000 
    104 N         -6.2983  -18.6756  -50.1142 N.am      19 UNK        -0.5000 
    105 CA        -5.2100  -17.6968  -50.2005 C.3       19 UNK         0.1400 
    106 CB        -5.7428  -16.4259  -50.8861 C.3       19 UNK        -0.1800 
    107 C         -3.9412  -18.2498  -50.8875 C.2       19 UNK         0.5000 
    108 O         -3.5607  -17.7852  -51.9626 O.2       19 UNK        -0.5000 
    109 N         -3.3248  -19.2533  -50.2511 N.am      20 UNK        -0.5000 
    110 CA        -1.9952  -19.8241  -50.4995 C.3       20 UNK         0.1400 
    111 CB        -0.9188  -18.7711  -50.1800 C.3       20 UNK        -0.1800 
    112 C         -1.7711  -20.4976  -51.8731 C.2       20 UNK         0.5000 
    113 O         -0.6579  -20.9529  -52.1373 O.2       20 UNK        -0.5000 
    114 N         -2.8255  -20.5847  -52.6996 N.am      21 UNK        -0.5000 
    115 CA        -2.8690  -21.1787  -54.0425 C.3       21 UNK         0.1400 
    116 CB        -2.7132  -22.7128  -53.9674 C.3       21 UNK        -0.1800 
    117 C         -1.8891  -20.5189  -55.0390 C.2       21 UNK         0.5000 
    118 O         -1.3067  -21.2042  -55.8824 O.2       21 UNK        -0.5000 
    119 N         -1.7152  -19.1980  -54.9108 N.am      22 UNK        -0.5000 
    120 CA        -0.8004  -18.3804  -55.7224 C.3       22 UNK         0.1400 
    121 C         -1.2074  -18.3067  -57.2208 C.2       22 UNK         0.5000 
    122 N         -0.2433  -18.2592  -58.1304 N.am      22 UNK        -0.7600 
    123 O         -2.3863  -18.2468  -57.5643 O.2       22 UNK        -0.5000 
    124 C124       -0.6310  -16.9527  -55.1417 C.3       23 UNK        -0.0398 
    125 S125       -0.2198  -16.9554  -53.3666 S.3       23 UNK        -0.2404 
    126 C126        1.5916  -17.0687  -53.3955 C.3       23 UNK        -0.0205 
    127 H127        5.4125   -9.0141  -49.3228 H         1 UNK         0.0600 
    128 H128        6.2662  -10.5599  -49.3266 H         1 UNK         0.0600 
    129 H129        6.6054   -9.3684  -48.0684 H         1 UNK         0.0600 
    130 H130        4.9931  -12.2406  -48.5883 H         1 UNK         0.3000 
    131 H131        3.4766  -12.0735  -46.1472 H         1 UNK         0.0600 
    132 H132        4.6648  -14.1187  -46.6453 H         1 UNK         0.0800 
    133 H133        2.9651  -14.4489  -46.5531 H         1 UNK         0.0800 
    134 H134        1.6922  -15.7812  -48.3416 H         1 UNK         0.0800 
    135 H135        3.0342  -16.6619  -47.6495 H         1 UNK         0.0800 
    136 H136        1.7932  -15.6588  -51.0727 H         1 UNK         0.1150 
    137 H137        2.5647  -19.5263  -52.7421 H         1 UNK         0.1150 
    138 H138        3.5832  -18.7151  -48.6571 H         1 UNK         0.1150 
    139 H139        3.2227  -21.3439  -51.3477 H         1 UNK         0.0800 
    140 H140        4.7349  -20.6901  -50.7690 H         1 UNK         0.0800 
    141 H141        1.1602  -21.3546  -49.8420 H         1 UNK         0.0800 
    142 H142        1.3035  -20.6237  -48.2646 H         1 UNK         0.0800 
    143 H143        1.2230  -23.6218  -48.8715 H         1 UNK         0.0600 
    144 H144        1.9935  -22.3441  -46.4058 H         1 UNK         0.3000 
    145 H145        1.2326  -25.1360  -44.3023 H         1 UNK         0.0600 
    146 H146        3.6619  -25.0934  -43.8279 H         1 UNK         0.0600 
    147 H147        3.3709  -25.8475  -45.3872 H         1 UNK         0.0600 
    148 H148        3.9674  -24.1934  -45.3144 H         1 UNK         0.0600 
    149 H149        2.6689  -22.7640  -43.7569 H         1 UNK         0.3000 
    150 H150       -0.0045  -21.0334  -42.3569 H         1 UNK         0.0600 
    151 H151        2.2050  -21.8946  -41.5014 H         1 UNK         0.0600 
    152 H152        2.1375  -20.1425  -41.5723 H         1 UNK         0.0600 
    153 H153        3.0350  -21.0288  -42.7951 H         1 UNK         0.0600 
    154 H154        0.1011  -19.2613  -43.6652 H         1 UNK         0.3000 
    155 H155        2.1793  -18.2694  -46.3992 H         1 UNK         0.0600 
    156 H156       -0.8439  -18.3526  -45.9729 H         1 UNK         0.0600 
    157 H157        0.0225  -17.4922  -47.2365 H         1 UNK         0.0600 
    158 H158       -0.0363  -19.2509  -47.2380 H         1 UNK         0.0600 
    159 H159        0.3958  -16.7563  -44.7977 H         1 UNK         0.3000 
    160 H160        2.6504  -15.7147  -42.2494 H         1 UNK         0.0600 
    161 H161        1.4094  -14.2688  -44.6513 H         1 UNK         0.0600 
    162 H162        3.0992  -14.2052  -44.1503 H         1 UNK         0.0600 
    163 H163        1.8551  -13.5166  -43.1225 H         1 UNK         0.0600 
    164 H164       -0.1662  -15.4262  -43.1148 H         1 UNK         0.3000 
    165 H165       -1.4148  -17.4937  -40.5385 H         1 UNK         0.0600 
    166 H166       -2.6426  -15.4745  -39.7867 H         1 UNK         0.0600 
    167 H167       -0.9772  -15.4086  -39.2335 H         1 UNK         0.0600 
    168 H168       -1.4812  -14.4286  -40.6053 H         1 UNK         0.0600 
    169 H169       -2.6955  -15.6879  -42.3537 H         1 UNK         0.3000 
    170 H170       -2.9304  -17.9346  -45.1007 H         1 UNK         0.0600 
    171 H171       -4.7036  -18.6658  -43.4995 H         1 UNK         0.0600 
    172 H172       -5.0561  -16.9830  -43.1221 H         1 UNK         0.0600 
    173 H173       -5.3362  -17.6075  -44.7485 H         1 UNK         0.0600 
    174 H174       -4.1221  -15.4882  -44.9947 H         1 UNK         0.3000 
    175 H175       -3.4223  -13.8255  -46.2565 H         1 UNK         0.0600 
    176 H176       -0.8400  -12.8348  -44.9212 H         1 UNK         0.0600 
    177 H177       -2.0440  -11.8128  -45.7023 H         1 UNK         0.0600 
    178 H178       -2.4605  -12.7077  -44.2473 H         1 UNK         0.0600 
    179 H179       -0.7668  -13.3971  -47.3175 H         1 UNK         0.3000 
    180 H180       -0.3694  -15.4585  -49.5609 H         1 UNK         0.0600 
    181 H181       -2.2758  -15.6568  -51.0397 H         1 UNK         0.0600 
    182 H182       -1.1469  -14.5488  -51.7968 H         1 UNK         0.0600 
    183 H183       -2.5931  -13.9307  -51.0009 H         1 UNK         0.0600 
    184 H184        0.8462  -13.6040  -49.5032 H         1 UNK         0.3000 
    185 H185        0.9082  -10.8038  -50.5441 H         1 UNK         0.0600 
    186 H186       -0.1988  -10.0078  -47.8001 H         1 UNK         0.0600 
    187 H187        0.9640   -9.0663  -48.7322 H         1 UNK         0.0600 
    188 H188       -0.6583   -9.3188  -49.3518 H         1 UNK         0.0600 
    189 H189        2.7080  -11.4435  -49.4211 H         1 UNK         0.3000 
    190 H190       -0.5252  -21.7598  -46.3781 H         1 UNK         0.3000 
    191 H191       -3.0280  -21.6335  -47.8536 H         1 UNK         0.0600 
    192 H192       -2.3481  -21.0532  -44.9288 H         1 UNK         0.0600 
    193 H193       -3.9302  -20.8083  -45.6641 H         1 UNK         0.0600 
    194 H194       -2.5533  -19.8937  -46.2438 H         1 UNK         0.0600 
    195 H195       -1.6170  -23.7574  -45.3418 H         1 UNK         0.3000 
    196 H196       -3.8632  -25.4393  -44.9560 H         1 UNK         0.0600 
    197 H197       -2.2237  -27.0370  -44.0268 H         1 UNK         0.0600 
    198 H198       -1.8479  -25.4109  -43.4748 H         1 UNK         0.0600 
    199 H199       -0.8905  -26.1544  -44.7542 H         1 UNK         0.0600 
    200 H200       -1.1219  -25.7300  -47.2807 H         1 UNK         0.3000 
    201 H201       -2.0287  -28.0499  -48.6355 H         1 UNK         0.0600 
    202 H202        0.2894  -27.1872  -48.8009 H         1 UNK         0.0600 
    203 H203       -0.2773  -25.7355  -49.6235 H         1 UNK         0.0600 
    204 H204       -0.4229  -27.3065  -50.4028 H         1 UNK         0.0600 
    205 H205       -2.8250  -24.6205  -49.0945 H         1 UNK         0.3000 
    206 H206       -4.4360  -25.0066  -51.4710 H         1 UNK         0.0600 
    207 H207       -3.1698  -22.8924  -50.8646 H         1 UNK         0.0600 
    208 H208       -4.8548  -22.6221  -51.2478 H         1 UNK         0.0600 
    209 H209       -4.3318  -22.6099  -49.5688 H         1 UNK         0.0600 
    210 H210       -5.0546  -25.9919  -48.3587 H         1 UNK         0.3000 
    211 H211       -6.7947  -26.6202  -47.1705 H         1 UNK         0.0600 
    212 H212       -8.4727  -26.3944  -49.7241 H         1 UNK         0.0600 
    213 H213       -8.8769  -27.3156  -48.2833 H         1 UNK         0.0600 
    214 H214       -7.4987  -27.7899  -49.2627 H         1 UNK         0.0600 
    215 H215       -6.0707  -24.0551  -46.8523 H         1 UNK         0.3000 
    216 H216       -6.5573  -22.3318  -45.6252 H         1 UNK         0.0600 
    217 H217       -8.6479  -22.0212  -44.4113 H         1 UNK         0.0600 
    218 H218       -8.2295  -23.7251  -44.3721 H         1 UNK         0.0600 
    219 H219       -9.4994  -23.1478  -45.4527 H         1 UNK         0.0600 
    220 H220       -7.1628  -22.5545  -48.6861 H         1 UNK         0.3000 
    221 H221       -8.4639  -19.9537  -49.1600 H         1 UNK         0.0600 
    222 H222       -6.9613  -21.7957  -51.0944 H         1 UNK         0.0600 
    223 H223       -8.6919  -21.8749  -50.7890 H         1 UNK         0.0600 
    224 H224       -7.9943  -20.4425  -51.5230 H         1 UNK         0.0600 
    225 H225       -7.0916  -18.4977  -50.7128 H         1 UNK         0.3000 
    226 H226       -4.9214  -17.4201  -49.1840 H         1 UNK         0.0600 
    227 H227       -6.5841  -16.0037  -50.3363 H         1 UNK         0.0600 
    228 H228       -4.9707  -15.6565  -50.9328 H         1 UNK         0.0600 
    229 H229       -6.0724  -16.6249  -51.9066 H         1 UNK         0.0600 
    230 H230       -3.8157  -19.6230  -49.4398 H         1 UNK         0.3000 
    231 H231       -1.8882  -20.6246  -49.7702 H         1 UNK         0.0600 
    232 H232        0.0864  -19.1864  -50.2439 H         1 UNK         0.0600 
    233 H233       -1.0507  -18.3750  -49.1758 H         1 UNK         0.0600 
    234 H234       -0.9693  -17.9265  -50.8626 H         1 UNK         0.0600 
    235 H235       -3.6727  -20.1258  -52.3967 H         1 UNK         0.3000 
    236 H236       -3.8668  -20.9731  -54.4320 H         1 UNK         0.0600 
    237 H237       -2.8194  -23.1682  -54.9526 H         1 UNK         0.0600 
    238 H238       -1.7379  -23.0033  -53.5760 H         1 UNK         0.0600 
    239 H239       -3.4771  -23.1565  -53.3308 H         1 UNK         0.0600 
    240 H240       -2.2113  -18.7113  -54.1767 H         1 UNK         0.3000 
    241 H241        0.1730  -18.8723  -55.6729 H         1 UNK         0.0600 
    242 H242       -0.4936  -18.1956  -59.1053 H         1 UNK         0.3800 
    243 H243        0.7314  -18.3005  -57.8745 H         1 UNK         0.3800 
    244 H244        0.1392  -16.4017  -55.6843 H         1 UNK         0.0800 
    245 H245       -1.5546  -16.3836  -55.2625 H         1 UNK         0.0800 
    246 H246        2.0128  -16.0934  -53.6429 H         1 UNK         0.0800 
    247 H247        1.9033  -17.7524  -54.1864 H         1 UNK         0.0800 
@<TRIPOS>BOND
     1    1    2 1    
     2    1  127 1    
     3    1  128 1    
     4    1  129 1    
     5    2    3 2    
     6    2    4 am   BACKBONE|DICT|INTERRES
     7    4    5 1    
     8    4  130 1    
     9    5    6 1    
    10    5   65 1    
    11    5  131 1    
    12    6    7 1    
    13    6  132 1    
    14    6  133 1    
    15    7    8 1    
    16    8    9 1    
    17    8  134 1    
    18    8  135 1    
    19    9   10 ar   
    20    9   14 ar   
    21   10   11 ar   
    22   10  136 1    
    23   11   12 ar   
    24   11  126 1    
    25   12   13 ar   
    26   12  137 1    
    27   13   14 ar   
    28   13   15 1    
    29   14  138 1    
    30   15   16 1    
    31   15  139 1    
    32   15  140 1    
    33   16   17 1    
    34   17   18 1    
    35   17  141 1    
    36   17  142 1    
    37   18   19 1    
    38   18   67 1    
    39   18  143 1    
    40   19   20 am   BACKBONE|DICT|INTERRES
    41   19  144 1    
    42   20   21 2    
    43   20   22 1    
    44   22   23 1    
    45   22   24 1    
    46   22  145 1    
    47   23  146 1    
    48   23  147 1    
    49   23  148 1    
    50   24   25 am   BACKBONE|DICT|INTERRES
    51   24  149 1    
    52   25   26 2    
    53   25   27 1    
    54   27   28 1    
    55   27   29 1    
    56   27  150 1    
    57   28  151 1    
    58   28  152 1    
    59   28  153 1    
    60   29   30 am   BACKBONE|DICT|INTERRES
    61   29  154 1    
    62   30   31 2    
    63   30   32 1    
    64   32   33 1    
    65   32   34 1    
    66   32  155 1    
    67   33  156 1    
    68   33  157 1    
    69   33  158 1    
    70   34   35 am   BACKBONE|DICT|INTERRES
    71   34  159 1    
    72   35   36 2    
    73   35   37 1    
    74   37   38 1    
    75   37   39 1    
    76   37  160 1    
    77   38  161 1    
    78   38  162 1    
    79   38  163 1    
    80   39   40 am   BACKBONE|DICT|INTERRES
    81   39  164 1    
    82   40   41 2    
    83   40   42 1    
    84   42   43 1    
    85   42   44 1    
    86   42  165 1    
    87   43  166 1    
    88   43  167 1    
    89   43  168 1    
    90   44   45 am   BACKBONE|DICT|INTERRES
    91   44  169 1    
    92   45   46 2    
    93   45   47 1    
    94   47   48 1    
    95   47   49 1    
    96   47  170 1    
    97   48  171 1    
    98   48  172 1    
    99   48  173 1    
   100   49   50 am   BACKBONE|DICT|INTERRES
   101   49  174 1    
   102   50   51 2    
   103   50   52 1    
   104   52   53 1    
   105   52   54 1    
   106   52  175 1    
   107   53  176 1    
   108   53  177 1    
   109   53  178 1    
   110   54   55 am   BACKBONE|DICT|INTERRES
   111   54  179 1    
   112   55   56 2    
   113   55   57 1    
   114   57   58 1    
   115   57   59 1    
   116   57  180 1    
   117   58  181 1    
   118   58  182 1    
   119   58  183 1    
   120   59   60 am   BACKBONE|DICT|INTERRES
   121   59  184 1    
   122   60   61 2    
   123   60   62 1    
   124   62   63 1    
   125   62   64 1    
   126   62  185 1    
   127   63  186 1    
   128   63  187 1    
   129   63  188 1    
   130   64   65 am   BACKBONE|DICT|INTERRES
   131   64  189 1    
   132   65   66 2    
   133   67   68 2    
   134   67   69 am   BACKBONE|DICT|INTERRES
   135   69   70 1    
   136   69  190 1    
   137   70   71 1    
   138   70   72 1    
   139   70  191 1    
   140   71  192 1    
   141   71  193 1    
   142   71  194 1    
   143   72   73 2    
   144   72   74 am   BACKBONE|DICT|INTERRES
   145   74   75 1    
   146   74  195 1    
   147   75   76 1    
   148   75   77 1    
   149   75  196 1    
   150   76  197 1    
   151   76  198 1    
   152   76  199 1    
   153   77   78 2    
   154   77   79 am   BACKBONE|DICT|INTERRES
   155   79   80 1    
   156   79  200 1    
   157   80   81 1    
   158   80   82 1    
   159   80  201 1    
   160   81  202 1    
   161   81  203 1    
   162   81  204 1    
   163   82   83 2    
   164   82   84 am   BACKBONE|DICT|INTERRES
   165   84   85 1    
   166   84  205 1    
   167   85   86 1    
   168   85   87 1    
   169   85  206 1    
   170   86  207 1    
   171   86  208 1    
   172   86  209 1    
   173   87   88 2    
   174   87   89 am   BACKBONE|DICT|INTERRES
   175   89   90 1    
   176   89  210 1    
   177   90   91 1    
   178   90   92 1    
   179   90  211 1    
   180   91  212 1    
   181   91  213 1    
   182   91  214 1    
   183   92   93 2    
   184   92   94 am   BACKBONE|DICT|INTERRES
   185   94   95 1    
   186   94  215 1    
   187   95   96 1    
   188   95   97 1    
   189   95  216 1    
   190   96  217 1    
   191   96  218 1    
   192   96  219 1    
   193   97   98 2    
   194   97   99 am   BACKBONE|DICT|INTERRES
   195   99  100 1    
   196   99  220 1    
   197  100  101 1    
   198  100  102 1    
   199  100  221 1    
   200  101  222 1    
   201  101  223 1    
   202  101  224 1    
   203  102  103 2    
   204  102  104 am   BACKBONE|DICT|INTERRES
   205  104  105 1    
   206  104  225 1    
   207  105  106 1    
   208  105  107 1    
   209  105  226 1    
   210  106  227 1    
   211  106  228 1    
   212  106  229 1    
   213  107  108 2    
   214  107  109 am   BACKBONE|DICT|INTERRES
   215  109  110 1    
   216  109  230 1    
   217  110  111 1    
   218  110  112 1    
   219  110  231 1    
   220  111  232 1    
   221  111  233 1    
   222  111  234 1    
   223  112  113 2    
   224  112  114 am   BACKBONE|DICT|INTERRES
   225  114  115 1    
   226  114  235 1    
   227  115  116 1    
   228  115  117 1    
   229  115  236 1    
   230  116  237 1    
   231  116  238 1    
   232  116  239 1    
   233  117  118 2    
   234  117  119 am   BACKBONE|DICT|INTERRES
   235  119  120 1    
   236  119  240 1    
   237  120  121 1    
   238  120  124 1    
   239  120  241 1    
   240  121  122 am   BACKBONE|DICT|INTERRES
   241  121  123 2    
   242  122  242 1    
   243  122  243 1    
   244  124  125 1    
   245  124  244 1    
   246  124  245 1    
   247  125  126 1    
   248  126  246 1    
   249  126  247 1    
@<TRIPOS>SUBSTRUCTURE
     1 UNK         1 GROUP             0       ****    0 ROOT    
