@<TRIPOS>MOLECULE
3R540
247   249    1
SMALL
USER_CHARGES


@<TRIPOS>ATOM
      1 CA          4.6714  -16.4862  -42.1883 C.3       0 UNK        -0.1800 
      2 C           4.3047  -15.2144  -42.9392 C.2       0 UNK         0.5000 
      3 O           4.7748  -14.1333  -42.5837 O.2       0 UNK        -0.5000 
      4 N           3.4604  -15.3387  -43.9681 N.am      1 UNK        -0.5000 
      5 CA          3.0369  -14.2473  -44.8465 C.3       1 UNK         0.1400 
      6 C6          1.7416  -14.6005  -45.6202 C.3       23 UNK        -0.0398 
      7 S7          1.7523  -16.2293  -46.4566 S.3       23 UNK        -0.2404 
      8 C8          2.1902  -15.7733  -48.1606 C.3       23 UNK        -0.0205 
      9 C9          1.8389  -16.8622  -49.1643 C.ar      23 UNK        -0.0193 
     10 C10         0.8845  -16.6176  -50.1562 C.ar      23 UNK        -0.1150 
     11 C11         0.5711  -17.5945  -51.1099 C.ar      23 UNK        -0.0193 
     12 C12         1.2427  -18.8193  -51.0680 C.ar      23 UNK        -0.1150 
     13 C13         2.1920  -19.0841  -50.0765 C.ar      23 UNK        -0.0193 
     14 C14         2.4870  -18.1002  -49.1276 C.ar      23 UNK        -0.1150 
     15 C15         2.9094  -20.4275  -50.0433 C.3       23 UNK        -0.0205 
     16 S16         1.7649  -21.8248  -49.8018 S.3       23 UNK        -0.2404 
     17 C17         1.0261  -21.3971  -48.1945 C.3       23 UNK        -0.0398 
     18 CA          0.4078  -22.6102  -47.4594 C.3       11 UNK         0.1400 
     19 N           0.3382  -22.3435  -46.0225 N.am      11 UNK        -0.5000 
     20 C           0.1348  -23.2494  -45.0581 C.2       10 UNK         0.5000 
     21 O          -0.0668  -24.4413  -45.2873 O.2       10 UNK        -0.5000 
     22 CA          0.1047  -22.7200  -43.6064 C.3       10 UNK         0.1400 
     23 CB          0.6453  -23.7439  -42.5874 C.3       10 UNK        -0.1800 
     24 N           0.7634  -21.4152  -43.4588 N.am      10 UNK        -0.5000 
     25 C           2.0608  -21.1278  -43.6553 C.2       9 UNK         0.5000 
     26 O           2.9252  -21.9768  -43.8734 O.2       9 UNK        -0.5000 
     27 CA          2.4586  -19.6389  -43.6673 C.3       9 UNK         0.1400 
     28 CB          3.0062  -19.2429  -45.0488 C.3       9 UNK        -0.1800 
     29 N           1.3410  -18.7514  -43.3349 N.am      9 UNK        -0.5000 
     30 C           1.0245  -18.3610  -42.0930 C.2       8 UNK         0.5000 
     31 O           1.6889  -18.6438  -41.0962 O.2       8 UNK        -0.5000 
     32 CA         -0.2658  -17.5356  -41.9351 C.3       8 UNK         0.1400 
     33 CB          0.0460  -16.0360  -42.0403 C.3       8 UNK        -0.1800 
     34 N          -1.3002  -17.8932  -42.9120 N.am      8 UNK        -0.5000 
     35 C          -1.9867  -19.0470  -42.8956 C.2       7 UNK         0.5000 
     36 O          -1.7902  -19.9379  -42.0696 O.2       7 UNK        -0.5000 
     37 CA         -3.0429  -19.2769  -43.9966 C.3       7 UNK         0.1400 
     38 CB         -4.4400  -18.8694  -43.5078 C.3       7 UNK        -0.1800 
     39 N          -2.7548  -18.5752  -45.2450 N.am      7 UNK        -0.5000 
     40 C          -1.6936  -18.8084  -46.0252 C.2       6 UNK         0.5000 
     41 O          -0.8776  -19.7089  -45.8135 O.2       6 UNK        -0.5000 
     42 CA         -1.5104  -17.8872  -47.2443 C.3       6 UNK         0.1400 
     43 CB         -2.1386  -18.5502  -48.4715 C.3       6 UNK        -0.1800 
     44 N          -2.0436  -16.5235  -47.1252 N.am      6 UNK        -0.5000 
     45 C          -1.8613  -15.6540  -46.1223 C.2       5 UNK         0.5000 
     46 O          -1.3047  -15.9431  -45.0623 O.2       5 UNK        -0.5000 
     47 CA         -2.3950  -14.2230  -46.3425 C.3       5 UNK         0.1400 
     48 CB         -2.0812  -13.2838  -45.1634 C.3       5 UNK        -0.1800 
     49 N          -1.8854  -13.6086  -47.5717 N.am      5 UNK        -0.5000 
     50 C          -2.3706  -13.8157  -48.7992 C.2       4 UNK         0.5000 
     51 O          -3.2443  -14.6454  -49.0377 O.2       4 UNK        -0.5000 
     52 CA         -1.8264  -12.9479  -49.9520 C.3       4 UNK         0.1400 
     53 CB         -2.4328  -11.5327  -49.8996 C.3       4 UNK        -0.1800 
     54 N          -0.3641  -12.8877  -50.0930 N.am      4 UNK        -0.5000 
     55 C           0.5463  -12.3718  -49.2575 C.2       3 UNK         0.5000 
     56 O           0.2947  -11.9418  -48.1277 O.2       3 UNK        -0.5000 
     57 CA          1.9884  -12.3138  -49.7876 C.3       3 UNK         0.1400 
     58 CB          2.1470  -11.1648  -50.8024 C.3       3 UNK        -0.1800 
     59 N           2.8871  -12.1170  -48.6557 N.am      3 UNK        -0.5000 
     60 C           4.2185  -12.2624  -48.6527 C.2       2 UNK         0.5000 
     61 O           4.8758  -12.5986  -49.6378 O.2       2 UNK        -0.5000 
     62 CA          4.9301  -12.0075  -47.3101 C.3       2 UNK         0.1400 
     63 CB          5.1707  -10.5043  -47.1004 C.3       2 UNK        -0.1800 
     64 N           4.1455  -12.5354  -46.1927 N.am      2 UNK        -0.5000 
     65 C           4.1538  -13.8215  -45.8199 C.2       1 UNK         0.5000 
     66 O           4.9519  -14.6563  -46.2532 O.2       1 UNK        -0.5000 
     67 C          -0.9787  -22.9905  -48.0212 C.2       11 UNK         0.5000 
     68 O          -1.0780  -23.8122  -48.9351 O.2       11 UNK        -0.5000 
     69 N          -2.0313  -22.4112  -47.4277 N.am      12 UNK        -0.5000 
     70 CA         -3.4273  -22.7473  -47.6950 C.3       12 UNK         0.1400 
     71 CB         -4.3182  -21.6330  -47.1393 C.3       12 UNK        -0.1800 
     72 C          -3.8221  -24.1083  -47.0986 C.2       12 UNK         0.5000 
     73 O          -4.5300  -24.8706  -47.7543 O.2       12 UNK        -0.5000 
     74 N          -3.3278  -24.4059  -45.8875 N.am      13 UNK        -0.5000 
     75 CA         -3.5523  -25.6729  -45.1835 C.3       13 UNK         0.1400 
     76 CB         -3.1026  -25.5351  -43.7213 C.3       13 UNK        -0.1800 
     77 C          -2.8465  -26.8579  -45.8687 C.2       13 UNK         0.5000 
     78 O          -3.4049  -27.9535  -45.9248 O.2       13 UNK        -0.5000 
     79 N          -1.6563  -26.5970  -46.4262 N.am      14 UNK        -0.5000 
     80 CA         -0.8991  -27.5139  -47.2804 C.3       14 UNK         0.1400 
     81 CB          0.5384  -26.9836  -47.4070 C.3       14 UNK        -0.1800 
     82 C          -1.5192  -27.7056  -48.6816 C.2       14 UNK         0.5000 
     83 O          -1.0861  -28.5995  -49.4092 O.2       14 UNK        -0.5000 
     84 N          -2.4925  -26.8534  -49.0419 N.am      15 UNK        -0.5000 
     85 CA         -3.1949  -26.7699  -50.3272 C.3       15 UNK         0.1400 
     86 CB         -3.9846  -28.0624  -50.6182 C.3       15 UNK        -0.1800 
     87 C          -2.2885  -26.3441  -51.5014 C.2       15 UNK         0.5000 
     88 O          -2.6524  -26.5489  -52.6598 O.2       15 UNK        -0.5000 
     89 N          -1.1427  -25.7258  -51.1887 N.am      16 UNK        -0.5000 
     90 CA         -0.1865  -25.1953  -52.1572 C.3       16 UNK         0.1400 
     91 CB          1.2006  -25.1199  -51.5033 C.3       16 UNK        -0.1800 
     92 C          -0.6348  -23.8251  -52.6930 C.2       16 UNK         0.5000 
     93 O          -0.4895  -23.5625  -53.8871 O.2       16 UNK        -0.5000 
     94 N          -1.2159  -22.9981  -51.8120 N.am      17 UNK        -0.5000 
     95 CA         -1.8398  -21.7214  -52.1711 C.3       17 UNK         0.1400 
     96 CB         -1.8603  -20.8103  -50.9410 C.3       17 UNK        -0.1800 
     97 C          -3.2757  -21.8897  -52.6985 C.2       17 UNK         0.5000 
     98 O          -3.8168  -20.9483  -53.2760 O.2       17 UNK        -0.5000 
     99 N          -3.8794  -23.0601  -52.4463 N.am      18 UNK        -0.5000 
    100 CA        -5.2341  -23.5036  -52.8056 C.3       18 UNK         0.1400 
    101 CB        -5.4475  -23.4549  -54.3312 C.3       18 UNK        -0.1800 
    102 C         -6.3879  -22.7983  -52.0583 C.2       18 UNK         0.5000 
    103 O         -7.4945  -23.3389  -52.0362 O.2       18 UNK        -0.5000 
    104 N         -6.1308  -21.6406  -51.4416 N.am      19 UNK        -0.5000 
    105 CA        -7.0806  -20.8567  -50.6611 C.3       19 UNK         0.1400 
    106 CB        -7.9691  -20.0207  -51.6000 C.3       19 UNK        -0.1800 
    107 C         -6.3028  -19.9463  -49.7040 C.2       19 UNK         0.5000 
    108 O         -5.1421  -19.6277  -49.9717 O.2       19 UNK        -0.5000 
    109 N         -6.9701  -19.5073  -48.6282 N.am      20 UNK        -0.5000 
    110 CA        -6.4290  -18.6181  -47.5911 C.3       20 UNK         0.1400 
    111 CB        -7.4335  -18.5358  -46.4321 C.3       20 UNK        -0.1800 
    112 C         -6.0596  -17.2064  -48.0862 C.2       20 UNK         0.5000 
    113 O         -5.2546  -16.5392  -47.4377 O.2       20 UNK        -0.5000 
    114 N         -6.6508  -16.7947  -49.2145 N.am      21 UNK        -0.5000 
    115 CA        -6.3917  -15.5324  -49.9075 C.3       21 UNK         0.1400 
    116 CB        -7.7469  -14.8750  -50.2244 C.3       21 UNK        -0.1800 
    117 C         -5.5565  -15.7302  -51.1931 C.2       21 UNK         0.5000 
    118 O         -5.4272  -14.7787  -51.9650 O.2       21 UNK        -0.5000 
    119 N         -5.0297  -16.9473  -51.4049 N.am      22 UNK        -0.5000 
    120 CA        -4.3125  -17.4338  -52.5972 C.3       22 UNK         0.1400 
    121 C         -5.2659  -17.6605  -53.8033 C.2       22 UNK         0.5000 
    122 N         -5.3247  -18.8724  -54.3356 N.am      22 UNK        -0.7600 
    123 O         -5.9267  -16.7471  -54.2906 O.2       22 UNK        -0.5000 
    124 C124       -3.0824  -16.5774  -53.0111 C.3       23 UNK        -0.0398 
    125 S125       -1.8887  -16.3562  -51.6510 S.3       23 UNK        -0.2404 
    126 C126       -0.4639  -17.3470  -52.2071 C.3       23 UNK        -0.0205 
    127 H127        4.3043  -17.3753  -42.6995 H         1 UNK         0.0600 
    128 H128        5.7543  -16.5717  -42.0973 H         1 UNK         0.0600 
    129 H129        4.2422  -16.4681  -41.1863 H         1 UNK         0.0600 
    130 H130        3.1352  -16.2532  -44.2454 H         1 UNK         0.3000 
    131 H131        2.8115  -13.3872  -44.2117 H         1 UNK         0.0600 
    132 H132        1.4757  -13.8168  -46.3308 H         1 UNK         0.0800 
    133 H133        0.9173  -14.6148  -44.9102 H         1 UNK         0.0800 
    134 H134        3.2575  -15.5580  -48.2207 H         1 UNK         0.0800 
    135 H135        1.6703  -14.8539  -48.4176 H         1 UNK         0.0800 
    136 H136        0.3853  -15.6609  -50.1863 H         1 UNK         0.1150 
    137 H137        1.0220  -19.5792  -51.8045 H         1 UNK         0.1150 
    138 H138        3.2256  -18.2904  -48.3614 H         1 UNK         0.1150 
    139 H139        3.4416  -20.5673  -50.9849 H         1 UNK         0.0800 
    140 H140        3.6660  -20.4466  -49.2574 H         1 UNK         0.0800 
    141 H141        1.8266  -20.9748  -47.5853 H         1 UNK         0.0800 
    142 H142        0.3023  -20.5918  -48.3269 H         1 UNK         0.0800 
    143 H143        1.0646  -23.4722  -47.5949 H         1 UNK         0.0600 
    144 H144        0.3823  -21.3682  -45.7510 H         1 UNK         0.3000 
    145 H145       -0.9472  -22.5509  -43.3721 H         1 UNK         0.0600 
    146 H146        0.6218  -23.3414  -41.5748 H         1 UNK         0.0600 
    147 H147        0.0437  -24.6530  -42.5873 H         1 UNK         0.0600 
    148 H148        1.6713  -24.0378  -42.8093 H         1 UNK         0.0600 
    149 H149        0.1437  -20.6422  -43.2576 H         1 UNK         0.3000 
    150 H150        3.2609  -19.5198  -42.9368 H         1 UNK         0.0600 
    151 H151        3.8046  -19.9133  -45.3694 H         1 UNK         0.0600 
    152 H152        3.4271  -18.2386  -45.0305 H         1 UNK         0.0600 
    153 H153        2.2286  -19.2691  -45.8131 H         1 UNK         0.0600 
    154 H154        0.7328  -18.4809  -44.0961 H         1 UNK         0.3000 
    155 H155       -0.6635  -17.7284  -40.9365 H         1 UNK         0.0600 
    156 H156       -0.8548  -15.4331  -41.9250 H         1 UNK         0.0600 
    157 H157        0.4936  -15.7902  -43.0020 H         1 UNK         0.0600 
    158 H158        0.7490  -15.7275  -41.2655 H         1 UNK         0.0600 
    159 H159       -1.4703  -17.2201  -43.6563 H         1 UNK         0.3000 
    160 H160       -3.0568  -20.3473  -44.2109 H         1 UNK         0.0600 
    161 H161       -4.5014  -17.7976  -43.3147 H         1 UNK         0.0600 
    162 H162       -4.6973  -19.3861  -42.5822 H         1 UNK         0.0600 
    163 H163       -5.2035  -19.1235  -44.2432 H         1 UNK         0.0600 
    164 H164       -3.3600  -17.8046  -45.4901 H         1 UNK         0.3000 
    165 H165       -0.4379  -17.8091  -47.4195 H         1 UNK         0.0600 
    166 H166       -3.2254  -18.4737  -48.4611 H         1 UNK         0.0600 
    167 H167       -1.7791  -18.0917  -49.3894 H         1 UNK         0.0600 
    168 H168       -1.8843  -19.6074  -48.5158 H         1 UNK         0.0600 
    169 H169       -2.5565  -16.1747  -47.9299 H         1 UNK         0.3000 
    170 H170       -3.4817  -14.3038  -46.4153 H         1 UNK         0.0600 
    171 H171       -2.4649  -13.6864  -44.2250 H         1 UNK         0.0600 
    172 H172       -1.0085  -13.1316  -45.0436 H         1 UNK         0.0600 
    173 H173       -2.5422  -12.3065  -45.3070 H         1 UNK         0.0600 
    174 H174       -1.1293  -12.9353  -47.4785 H         1 UNK         0.3000 
    175 H175       -2.1847  -13.4099  -50.8734 H         1 UNK         0.0600 
    176 H176       -2.1423  -10.9474  -50.7720 H         1 UNK         0.0600 
    177 H177       -3.5226  -11.5771  -49.8869 H         1 UNK         0.0600 
    178 H178       -2.1189  -10.9863  -49.0097 H         1 UNK         0.0600 
    179 H179       -0.0287  -13.2350  -50.9807 H         1 UNK         0.3000 
    180 H180        2.2244  -13.2657  -50.2677 H         1 UNK         0.0600 
    181 H181        3.1543  -11.1325  -51.2172 H         1 UNK         0.0600 
    182 H182        1.4605  -11.2811  -51.6418 H         1 UNK         0.0600 
    183 H183        1.9437  -10.1963  -50.3439 H         1 UNK         0.0600 
    184 H184        2.4062  -11.8467  -47.8075 H         1 UNK         0.3000 
    185 H185        5.9026  -12.5039  -47.3407 H         1 UNK         0.0600 
    186 H186        5.7151  -10.3187  -46.1743 H         1 UNK         0.0600 
    187 H187        5.7650  -10.0883  -47.9150 H         1 UNK         0.0600 
    188 H188        4.2353   -9.9449  -47.0580 H         1 UNK         0.0600 
    189 H189        3.4889  -11.8993  -45.7636 H         1 UNK         0.3000 
    190 H190       -1.8506  -21.7319  -46.7018 H         1 UNK         0.3000 
    191 H191       -3.5770  -22.7996  -48.7754 H         1 UNK         0.0600 
    192 H192       -5.3683  -21.8189  -47.3676 H         1 UNK         0.0600 
    193 H193       -4.0457  -20.6797  -47.5876 H         1 UNK         0.0600 
    194 H194       -4.2274  -21.5347  -46.0574 H         1 UNK         0.0600 
    195 H195       -2.7297  -23.7362  -45.4306 H         1 UNK         0.3000 
    196 H196       -4.6252  -25.8770  -45.1903 H         1 UNK         0.0600 
    197 H197       -3.3101  -26.4493  -43.1638 H         1 UNK         0.0600 
    198 H198       -3.6289  -24.7228  -43.2198 H         1 UNK         0.0600 
    199 H199       -2.0331  -25.3424  -43.6437 H         1 UNK         0.0600 
    200 H200       -1.2238  -25.6967  -46.2411 H         1 UNK         0.3000 
    201 H201       -0.8669  -28.4919  -46.7962 H         1 UNK         0.0600 
    202 H202        1.0112  -26.8876  -46.4293 H         1 UNK         0.0600 
    203 H203        0.5639  -26.0050  -47.8880 H         1 UNK         0.0600 
    204 H204        1.1562  -27.6580  -48.0013 H         1 UNK         0.0600 
    205 H205       -2.7809  -26.1655  -48.3588 H         1 UNK         0.3000 
    206 H206       -3.9234  -25.9661  -50.2139 H         1 UNK         0.0600 
    207 H207       -4.6156  -28.3366  -49.7728 H         1 UNK         0.0600 
    208 H208       -4.6390  -27.9352  -51.4813 H         1 UNK         0.0600 
    209 H209       -3.3246  -28.9032  -50.8324 H         1 UNK         0.0600 
    210 H210       -0.9592  -25.5203  -50.2140 H         1 UNK         0.3000 
    211 H211       -0.1210  -25.8790  -53.0063 H         1 UNK         0.0600 
    212 H212        1.1750  -24.5571  -50.5710 H         1 UNK         0.0600 
    213 H213        1.9237  -24.6387  -52.1631 H         1 UNK         0.0600 
    214 H214        1.5787  -26.1166  -51.2755 H         1 UNK         0.0600 
    215 H215       -1.2489  -23.2749  -50.8358 H         1 UNK         0.3000 
    216 H216       -1.2485  -21.2342  -52.9491 H         1 UNK         0.0600 
    217 H217       -2.2523  -19.8240  -51.1906 H         1 UNK         0.0600 
    218 H218       -0.8612  -20.6677  -50.5356 H         1 UNK         0.0600 
    219 H219       -2.4911  -21.2172  -50.1520 H         1 UNK         0.0600 
    220 H220       -3.3250  -23.7450  -51.9558 H         1 UNK         0.3000 
    221 H221       -5.2817  -24.5519  -52.5064 H         1 UNK         0.0600 
    222 H222       -5.4690  -22.4323  -54.7084 H         1 UNK         0.0600 
    223 H223       -4.6578  -23.9918  -54.8569 H         1 UNK         0.0600 
    224 H224       -6.3947  -23.9202  -54.6062 H         1 UNK         0.0600 
    225 H225       -5.2020  -21.2409  -51.4988 H         1 UNK         0.3000 
    226 H226       -7.7011  -21.5311  -50.0672 H         1 UNK         0.0600 
    227 H227       -8.6898  -19.4263  -51.0373 H         1 UNK         0.0600 
    228 H228       -7.3768  -19.3338  -52.2055 H         1 UNK         0.0600 
    229 H229       -8.5376  -20.6562  -52.2790 H         1 UNK         0.0600 
    230 H230       -7.9249  -19.8086  -48.4940 H         1 UNK         0.3000 
    231 H231       -5.5120  -19.0591  -47.2030 H         1 UNK         0.0600 
    232 H232       -7.0593  -17.8939  -45.6333 H         1 UNK         0.0600 
    233 H233       -7.6149  -19.5188  -45.9970 H         1 UNK         0.0600 
    234 H234       -8.3913  -18.1285  -46.7581 H         1 UNK         0.0600 
    235 H235       -7.3055  -17.4197  -49.6605 H         1 UNK         0.3000 
    236 H236       -5.8352  -14.8540  -49.2591 H         1 UNK         0.0600 
    237 H237       -8.3362  -15.4812  -50.9134 H         1 UNK         0.0600 
    238 H238       -8.3348  -14.7284  -49.3181 H         1 UNK         0.0600 
    239 H239       -7.6118  -13.8941  -50.6818 H         1 UNK         0.0600 
    240 H240       -5.1648  -17.6522  -50.6908 H         1 UNK         0.3000 
    241 H241       -3.9280  -18.4099  -52.3001 H         1 UNK         0.0600 
    242 H242       -5.9243  -19.0326  -55.1286 H         1 UNK         0.3800 
    243 H243       -4.7698  -19.6443  -53.9632 H         1 UNK         0.3800 
    244 H244       -3.3929  -15.5901  -53.3547 H         1 UNK         0.0800 
    245 H245       -2.5732  -17.0381  -53.8591 H         1 UNK         0.0800 
    246 H246        0.0201  -16.8402  -53.0426 H         1 UNK         0.0800 
    247 H247       -0.8339  -18.3001  -52.5879 H         1 UNK         0.0800 
@<TRIPOS>BOND
     1    1    2 1    
     2    1  127 1    
     3    1  128 1    
     4    1  129 1    
     5    2    3 2    
     6    2    4 am   BACKBONE|DICT|INTERRES
     7    4    5 1    
     8    4  130 1    
     9    5    6 1    
    10    5   65 1    
    11    5  131 1    
    12    6    7 1    
    13    6  132 1    
    14    6  133 1    
    15    7    8 1    
    16    8    9 1    
    17    8  134 1    
    18    8  135 1    
    19    9   10 ar   
    20    9   14 ar   
    21   10   11 ar   
    22   10  136 1    
    23   11   12 ar   
    24   11  126 1    
    25   12   13 ar   
    26   12  137 1    
    27   13   14 ar   
    28   13   15 1    
    29   14  138 1    
    30   15   16 1    
    31   15  139 1    
    32   15  140 1    
    33   16   17 1    
    34   17   18 1    
    35   17  141 1    
    36   17  142 1    
    37   18   19 1    
    38   18   67 1    
    39   18  143 1    
    40   19   20 am   BACKBONE|DICT|INTERRES
    41   19  144 1    
    42   20   21 2    
    43   20   22 1    
    44   22   23 1    
    45   22   24 1    
    46   22  145 1    
    47   23  146 1    
    48   23  147 1    
    49   23  148 1    
    50   24   25 am   BACKBONE|DICT|INTERRES
    51   24  149 1    
    52   25   26 2    
    53   25   27 1    
    54   27   28 1    
    55   27   29 1    
    56   27  150 1    
    57   28  151 1    
    58   28  152 1    
    59   28  153 1    
    60   29   30 am   BACKBONE|DICT|INTERRES
    61   29  154 1    
    62   30   31 2    
    63   30   32 1    
    64   32   33 1    
    65   32   34 1    
    66   32  155 1    
    67   33  156 1    
    68   33  157 1    
    69   33  158 1    
    70   34   35 am   BACKBONE|DICT|INTERRES
    71   34  159 1    
    72   35   36 2    
    73   35   37 1    
    74   37   38 1    
    75   37   39 1    
    76   37  160 1    
    77   38  161 1    
    78   38  162 1    
    79   38  163 1    
    80   39   40 am   BACKBONE|DICT|INTERRES
    81   39  164 1    
    82   40   41 2    
    83   40   42 1    
    84   42   43 1    
    85   42   44 1    
    86   42  165 1    
    87   43  166 1    
    88   43  167 1    
    89   43  168 1    
    90   44   45 am   BACKBONE|DICT|INTERRES
    91   44  169 1    
    92   45   46 2    
    93   45   47 1    
    94   47   48 1    
    95   47   49 1    
    96   47  170 1    
    97   48  171 1    
    98   48  172 1    
    99   48  173 1    
   100   49   50 am   BACKBONE|DICT|INTERRES
   101   49  174 1    
   102   50   51 2    
   103   50   52 1    
   104   52   53 1    
   105   52   54 1    
   106   52  175 1    
   107   53  176 1    
   108   53  177 1    
   109   53  178 1    
   110   54   55 am   BACKBONE|DICT|INTERRES
   111   54  179 1    
   112   55   56 2    
   113   55   57 1    
   114   57   58 1    
   115   57   59 1    
   116   57  180 1    
   117   58  181 1    
   118   58  182 1    
   119   58  183 1    
   120   59   60 am   BACKBONE|DICT|INTERRES
   121   59  184 1    
   122   60   61 2    
   123   60   62 1    
   124   62   63 1    
   125   62   64 1    
   126   62  185 1    
   127   63  186 1    
   128   63  187 1    
   129   63  188 1    
   130   64   65 am   BACKBONE|DICT|INTERRES
   131   64  189 1    
   132   65   66 2    
   133   67   68 2    
   134   67   69 am   BACKBONE|DICT|INTERRES
   135   69   70 1    
   136   69  190 1    
   137   70   71 1    
   138   70   72 1    
   139   70  191 1    
   140   71  192 1    
   141   71  193 1    
   142   71  194 1    
   143   72   73 2    
   144   72   74 am   BACKBONE|DICT|INTERRES
   145   74   75 1    
   146   74  195 1    
   147   75   76 1    
   148   75   77 1    
   149   75  196 1    
   150   76  197 1    
   151   76  198 1    
   152   76  199 1    
   153   77   78 2    
   154   77   79 am   BACKBONE|DICT|INTERRES
   155   79   80 1    
   156   79  200 1    
   157   80   81 1    
   158   80   82 1    
   159   80  201 1    
   160   81  202 1    
   161   81  203 1    
   162   81  204 1    
   163   82   83 2    
   164   82   84 am   BACKBONE|DICT|INTERRES
   165   84   85 1    
   166   84  205 1    
   167   85   86 1    
   168   85   87 1    
   169   85  206 1    
   170   86  207 1    
   171   86  208 1    
   172   86  209 1    
   173   87   88 2    
   174   87   89 am   BACKBONE|DICT|INTERRES
   175   89   90 1    
   176   89  210 1    
   177   90   91 1    
   178   90   92 1    
   179   90  211 1    
   180   91  212 1    
   181   91  213 1    
   182   91  214 1    
   183   92   93 2    
   184   92   94 am   BACKBONE|DICT|INTERRES
   185   94   95 1    
   186   94  215 1    
   187   95   96 1    
   188   95   97 1    
   189   95  216 1    
   190   96  217 1    
   191   96  218 1    
   192   96  219 1    
   193   97   98 2    
   194   97   99 am   BACKBONE|DICT|INTERRES
   195   99  100 1    
   196   99  220 1    
   197  100  101 1    
   198  100  102 1    
   199  100  221 1    
   200  101  222 1    
   201  101  223 1    
   202  101  224 1    
   203  102  103 2    
   204  102  104 am   BACKBONE|DICT|INTERRES
   205  104  105 1    
   206  104  225 1    
   207  105  106 1    
   208  105  107 1    
   209  105  226 1    
   210  106  227 1    
   211  106  228 1    
   212  106  229 1    
   213  107  108 2    
   214  107  109 am   BACKBONE|DICT|INTERRES
   215  109  110 1    
   216  109  230 1    
   217  110  111 1    
   218  110  112 1    
   219  110  231 1    
   220  111  232 1    
   221  111  233 1    
   222  111  234 1    
   223  112  113 2    
   224  112  114 am   BACKBONE|DICT|INTERRES
   225  114  115 1    
   226  114  235 1    
   227  115  116 1    
   228  115  117 1    
   229  115  236 1    
   230  116  237 1    
   231  116  238 1    
   232  116  239 1    
   233  117  118 2    
   234  117  119 am   BACKBONE|DICT|INTERRES
   235  119  120 1    
   236  119  240 1    
   237  120  121 1    
   238  120  124 1    
   239  120  241 1    
   240  121  122 am   BACKBONE|DICT|INTERRES
   241  121  123 2    
   242  122  242 1    
   243  122  243 1    
   244  124  125 1    
   245  124  244 1    
   246  124  245 1    
   247  125  126 1    
   248  126  246 1    
   249  126  247 1    
@<TRIPOS>SUBSTRUCTURE
     1 UNK         1 GROUP             0       ****    0 ROOT    
