@<TRIPOS>MOLECULE
3R540
247   249    1
SMALL
USER_CHARGES


@<TRIPOS>ATOM
      1 CA          3.5686  -14.0008  -44.5576 C.3       0 UNK        -0.1800 
      2 C           2.3640  -13.4132  -45.2764 C.2       0 UNK         0.5000 
      3 O           1.6011  -12.6589  -44.6738 O.2       0 UNK        -0.5000 
      4 N           2.1993  -13.7401  -46.5655 N.am      1 UNK        -0.5000 
      5 CA          1.0548  -13.3621  -47.4106 C.3       1 UNK         0.1400 
      6 C6          1.1150  -14.0293  -48.8051 C.3       23 UNK        -0.0398 
      7 S7          1.1518  -15.8471  -48.6882 S.3       23 UNK        -0.2404 
      8 C8          1.9972  -16.2838  -50.2373 C.3       23 UNK        -0.0205 
      9 C9          2.1184  -17.7923  -50.3819 C.ar      23 UNK        -0.0193 
     10 C10         1.1496  -18.5126  -51.0845 C.ar      23 UNK        -0.1150 
     11 C11         1.2412  -19.9021  -51.2053 C.ar      23 UNK        -0.0193 
     12 C12         2.3110  -20.5731  -50.6065 C.ar      23 UNK        -0.1150 
     13 C13         3.2891  -19.8652  -49.9002 C.ar      23 UNK        -0.0193 
     14 C14         3.1930  -18.4727  -49.8031 C.ar      23 UNK        -0.1150 
     15 C15         4.4376  -20.6157  -49.2344 C.3       23 UNK        -0.0205 
     16 S16         4.6408  -20.2199  -47.4625 S.3       23 UNK        -0.2404 
     17 C17         2.9673  -20.5151  -46.7945 C.3       23 UNK        -0.0398 
     18 CA          2.8056  -21.8596  -46.0489 C.3       11 UNK         0.1400 
     19 N           1.5846  -21.8600  -45.2431 N.am      11 UNK        -0.5000 
     20 C           1.2306  -22.7957  -44.3526 C.2       10 UNK         0.5000 
     21 O           1.9283  -23.7651  -44.0562 O.2       10 UNK        -0.5000 
     22 CA         -0.1463  -22.6207  -43.6888 C.3       10 UNK         0.1400 
     23 CB         -0.0431  -21.7069  -42.4582 C.3       10 UNK        -0.1800 
     24 N          -1.1442  -22.0747  -44.6084 N.am      10 UNK        -0.5000 
     25 C          -1.7000  -22.7515  -45.6222 C.2       9 UNK         0.5000 
     26 O          -1.4398  -23.9226  -45.8981 O.2       9 UNK        -0.5000 
     27 CA         -2.6911  -21.9673  -46.4965 C.3       9 UNK         0.1400 
     28 CB         -4.0367  -21.8023  -45.7742 C.3       9 UNK        -0.1800 
     29 N          -2.1790  -20.6515  -46.8716 N.am      9 UNK        -0.5000 
     30 C          -1.1026  -20.4426  -47.6439 C.2       8 UNK         0.5000 
     31 O          -0.4120  -21.3443  -48.1191 O.2       8 UNK        -0.5000 
     32 CA         -0.7088  -18.9744  -47.8875 C.3       8 UNK         0.1400 
     33 CB         -1.5554  -18.3990  -49.0294 C.3       8 UNK        -0.1800 
     34 N          -0.8764  -18.1163  -46.7140 N.am      8 UNK        -0.5000 
     35 C          -0.3643  -18.3324  -45.4930 C.2       7 UNK         0.5000 
     36 O           0.3627  -19.2842  -45.2127 O.2       7 UNK        -0.5000 
     37 CA         -0.7773  -17.3538  -44.3771 C.3       7 UNK         0.1400 
     38 CB          0.3150  -16.2940  -44.1813 C.3       7 UNK        -0.1800 
     39 N          -2.0628  -16.6917  -44.6220 N.am      7 UNK        -0.5000 
     40 C          -3.2369  -17.3262  -44.7801 C.2       6 UNK         0.5000 
     41 O          -3.3650  -18.5466  -44.6750 O.2       6 UNK        -0.5000 
     42 CA         -4.4694  -16.4812  -45.1630 C.3       6 UNK         0.1400 
     43 CB         -5.3985  -16.3084  -43.9523 C.3       6 UNK        -0.1800 
     44 N          -4.1550  -15.1593  -45.7069 N.am      6 UNK        -0.5000 
     45 C          -3.4685  -14.9135  -46.8311 C.2       5 UNK         0.5000 
     46 O          -3.0212  -15.7918  -47.5701 O.2       5 UNK        -0.5000 
     47 CA         -3.2083  -13.4317  -47.1619 C.3       5 UNK         0.1400 
     48 CB         -4.3436  -12.8792  -48.0363 C.3       5 UNK        -0.1800 
     49 N          -3.0539  -12.5622  -45.9886 N.am      5 UNK        -0.5000 
     50 C          -2.1692  -12.7366  -44.9979 C.2       4 UNK         0.5000 
     51 O          -1.4214  -13.7100  -44.9100 O.2       4 UNK        -0.5000 
     52 CA         -2.1222  -11.6568  -43.9143 C.3       4 UNK         0.1400 
     53 CB         -2.4420  -12.2420  -42.5272 C.3       4 UNK        -0.1800 
     54 N          -0.7901  -11.0659  -43.9191 N.am      4 UNK        -0.5000 
     55 C          -0.5037   -9.8209  -43.5207 C.2       3 UNK         0.5000 
     56 O          -1.3381   -9.0388  -43.0627 O.2       3 UNK        -0.5000 
     57 CA          0.9528   -9.3594  -43.6853 C.3       3 UNK         0.1400 
     58 CB          1.8423   -9.9344  -42.5712 C.3       3 UNK        -0.1800 
     59 N           1.4815   -9.7521  -44.9909 N.am      3 UNK        -0.5000 
     60 C           1.3777   -9.0115  -46.1037 C.2       2 UNK         0.5000 
     61 O           0.8658   -7.8915  -46.1316 O.2       2 UNK        -0.5000 
     62 CA          1.9448   -9.6072  -47.4084 C.3       2 UNK         0.1400 
     63 CB          3.3752   -9.1018  -47.6509 C.3       2 UNK        -0.1800 
     64 N           1.9520  -11.0699  -47.4176 N.am      2 UNK        -0.5000 
     65 C           0.8613  -11.8366  -47.5548 C.2       1 UNK         0.5000 
     66 O          -0.2643  -11.3870  -47.7695 O.2       1 UNK        -0.5000 
     67 C           2.8481  -23.0646  -47.0113 C.2       11 UNK         0.5000 
     68 O           3.8660  -23.7559  -47.0739 O.2       11 UNK        -0.5000 
     69 N           1.7378  -23.3089  -47.7224 N.am      12 UNK        -0.5000 
     70 CA          1.5738  -24.4601  -48.6078 C.3       12 UNK         0.1400 
     71 CB          0.3486  -24.2389  -49.5026 C.3       12 UNK        -0.1800 
     72 C           1.4404  -25.7840  -47.8353 C.2       12 UNK         0.5000 
     73 O           2.0680  -26.7721  -48.2199 O.2       12 UNK        -0.5000 
     74 N           0.6281  -25.7677  -46.7668 N.am      13 UNK        -0.5000 
     75 CA          0.2447  -26.9055  -45.9270 C.3       13 UNK         0.1400 
     76 CB          1.4627  -27.4342  -45.1373 C.3       13 UNK        -0.1800 
     77 C          -0.5019  -27.9967  -46.7284 C.2       13 UNK         0.5000 
     78 O          -1.1088  -27.6889  -47.7588 O.2       13 UNK        -0.5000 
     79 N          -0.4681  -29.2432  -46.2330 N.am      14 UNK        -0.5000 
     80 CA         -1.0729  -30.4468  -46.8145 C.3       14 UNK         0.1400 
     81 CB         -0.2949  -30.8772  -48.0789 C.3       14 UNK        -0.1800 
     82 C          -2.5910  -30.2812  -47.0393 C.2       14 UNK         0.5000 
     83 O          -3.3484  -30.2967  -46.0679 O.2       14 UNK        -0.5000 
     84 N          -3.0029  -30.1049  -48.3017 N.am      15 UNK        -0.5000 
     85 CA         -4.3846  -29.8550  -48.7161 C.3       15 UNK         0.1400 
     86 CB         -4.4921  -30.0971  -50.2302 C.3       15 UNK        -0.1800 
     87 C          -4.9034  -28.4453  -48.3578 C.2       15 UNK         0.5000 
     88 O          -6.1188  -28.2496  -48.3687 O.2       15 UNK        -0.5000 
     89 N          -3.9855  -27.5151  -48.0474 N.am      16 UNK        -0.5000 
     90 CA         -4.1783  -26.0980  -47.7283 C.3       16 UNK         0.1400 
     91 CB         -5.1340  -25.8952  -46.5361 C.3       16 UNK        -0.1800 
     92 C          -4.5986  -25.2776  -48.9628 C.2       16 UNK         0.5000 
     93 O          -5.7241  -25.4033  -49.4491 O.2       16 UNK        -0.5000 
     94 N          -3.6688  -24.4478  -49.4496 N.am      17 UNK        -0.5000 
     95 CA         -3.8685  -23.5073  -50.5535 C.3       17 UNK         0.1400 
     96 CB         -2.4999  -22.9320  -50.9433 C.3       17 UNK        -0.1800 
     97 C          -4.8442  -22.3654  -50.2043 C.2       17 UNK         0.5000 
     98 O          -5.0835  -22.0901  -49.0262 O.2       17 UNK        -0.5000 
     99 N          -5.3653  -21.6989  -51.2415 N.am      18 UNK        -0.5000 
    100 CA        -6.1792  -20.4890  -51.1138 C.3       18 UNK         0.1400 
    101 CB        -6.9269  -20.2468  -52.4339 C.3       18 UNK        -0.1800 
    102 C         -5.3330  -19.2648  -50.7025 C.2       18 UNK         0.5000 
    103 O         -4.1091  -19.2780  -50.8513 O.2       18 UNK        -0.5000 
    104 N         -6.0088  -18.2405  -50.1645 N.am      19 UNK        -0.5000 
    105 CA        -5.4047  -17.0194  -49.6312 C.3       19 UNK         0.1400 
    106 CB        -6.4870  -16.2046  -48.9056 C.3       19 UNK        -0.1800 
    107 C         -4.7070  -16.1717  -50.7144 C.2       19 UNK         0.5000 
    108 O         -5.3246  -15.8651  -51.7367 O.2       19 UNK        -0.5000 
    109 N         -3.4531  -15.7845  -50.4396 N.am      20 UNK        -0.5000 
    110 CA        -2.5036  -15.0337  -51.2724 C.3       20 UNK         0.1400 
    111 CB        -2.9620  -13.5798  -51.4983 C.3       20 UNK        -0.1800 
    112 C         -2.1387  -15.7261  -52.5999 C.2       20 UNK         0.5000 
    113 O         -0.9862  -16.1176  -52.7810 O.2       20 UNK        -0.5000 
    114 N         -3.1167  -15.8588  -53.5011 N.am      21 UNK        -0.5000 
    115 CA        -3.0178  -16.6327  -54.7331 C.3       21 UNK         0.1400 
    116 CB        -3.9352  -16.0110  -55.7979 C.3       21 UNK        -0.1800 
    117 C         -3.4321  -18.0733  -54.4077 C.2       21 UNK         0.5000 
    118 O         -4.5509  -18.2802  -53.9385 O.2       21 UNK        -0.5000 
    119 N         -2.5164  -19.0239  -54.6235 N.am      22 UNK        -0.5000 
    120 CA        -2.6047  -20.4037  -54.1147 C.3       22 UNK         0.1400 
    121 C         -3.8063  -21.2526  -54.6212 C.2       22 UNK         0.5000 
    122 N         -4.3874  -20.9521  -55.7753 N.am      22 UNK        -0.7600 
    123 O         -4.2239  -22.1885  -53.9437 O.2       22 UNK        -0.5000 
    124 C124       -1.2786  -21.1849  -54.3160 C.3       23 UNK        -0.0398 
    125 S125        0.2010  -20.2839  -53.7396 S.3       23 UNK        -0.2404 
    126 C126        0.1719  -20.6734  -51.9645 C.3       23 UNK        -0.0205 
    127 H127        4.2074  -13.2018  -44.1816 H         1 UNK         0.0600 
    128 H128        4.1640  -14.6348  -45.2149 H         1 UNK         0.0600 
    129 H129        3.2388  -14.6028  -43.7109 H         1 UNK         0.0600 
    130 H130        2.8591  -14.3703  -46.9987 H         1 UNK         0.3000 
    131 H131        0.1627  -13.7397  -46.9110 H         1 UNK         0.0600 
    132 H132        1.9925  -13.6836  -49.3544 H         1 UNK         0.0800 
    133 H133        0.2450  -13.7532  -49.4038 H         1 UNK         0.0800 
    134 H134        1.4443  -15.8685  -51.0818 H         1 UNK         0.0800 
    135 H135        2.9881  -15.8277  -50.2567 H         1 UNK         0.0800 
    136 H136        0.3158  -17.9934  -51.5349 H         1 UNK         0.1150 
    137 H137        2.3781  -21.6490  -50.6844 H         1 UNK         0.1150 
    138 H138        3.9427  -17.9202  -49.2543 H         1 UNK         0.1150 
    139 H139        4.3041  -21.6937  -49.3361 H         1 UNK         0.0800 
    140 H140        5.3636  -20.3723  -49.7565 H         1 UNK         0.0800 
    141 H141        2.2081  -20.4091  -47.5688 H         1 UNK         0.0800 
    142 H142        2.7844  -19.6951  -46.0996 H         1 UNK         0.0800 
    143 H143        3.6413  -21.9636  -45.3536 H         1 UNK         0.0600 
    144 H144        0.9743  -21.0549  -45.3593 H         1 UNK         0.3000 
    145 H145       -0.4854  -23.6048  -43.3579 H         1 UNK         0.0600 
    146 H146       -1.0009  -21.6290  -41.9435 H         1 UNK         0.0600 
    147 H147        0.6800  -22.0983  -41.7414 H         1 UNK         0.0600 
    148 H148        0.2753  -20.6993  -42.7291 H         1 UNK         0.0600 
    149 H149       -1.3857  -21.1012  -44.4906 H         1 UNK         0.3000 
    150 H150       -2.8572  -22.5376  -47.4116 H         1 UNK         0.0600 
    151 H151       -4.4512  -22.7694  -45.4916 H         1 UNK         0.0600 
    152 H152       -4.7691  -21.3080  -46.4125 H         1 UNK         0.0600 
    153 H153       -3.9380  -21.2126  -44.8623 H         1 UNK         0.0600 
    154 H154       -2.6555  -19.8514  -46.4763 H         1 UNK         0.3000 
    155 H155        0.3426  -18.9479  -48.1778 H         1 UNK         0.0600 
    156 H156       -1.2306  -17.3978  -49.3071 H         1 UNK         0.0600 
    157 H157       -1.4921  -19.0186  -49.9218 H         1 UNK         0.0600 
    158 H158       -2.6066  -18.3464  -48.7503 H         1 UNK         0.0600 
    159 H159       -1.4636  -17.3018  -46.8429 H         1 UNK         0.3000 
    160 H160       -0.8709  -17.9282  -43.4534 H         1 UNK         0.0600 
    161 H161        0.4545  -15.7016  -45.0859 H         1 UNK         0.0600 
    162 H162        1.2732  -16.7561  -43.9407 H         1 UNK         0.0600 
    163 H163        0.0679  -15.6111  -43.3683 H         1 UNK         0.0600 
    164 H164       -2.0279  -15.6840  -44.7378 H         1 UNK         0.3000 
    165 H165       -5.0094  -17.0342  -45.9342 H         1 UNK         0.0600 
    166 H166       -6.3185  -15.7940  -44.2306 H         1 UNK         0.0600 
    167 H167       -5.6828  -17.2756  -43.5354 H         1 UNK         0.0600 
    168 H168       -4.9191  -15.7360  -43.1571 H         1 UNK         0.0600 
    169 H169       -4.4644  -14.3673  -45.1634 H         1 UNK         0.3000 
    170 H170       -2.2795  -13.3873  -47.7336 H         1 UNK         0.0600 
    171 H171       -4.5187  -13.5116  -48.9062 H         1 UNK         0.0600 
    172 H172       -5.2831  -12.8193  -47.4856 H         1 UNK         0.0600 
    173 H173       -4.1061  -11.8812  -48.4053 H         1 UNK         0.0600 
    174 H174       -3.6287  -11.7321  -45.9790 H         1 UNK         0.3000 
    175 H175       -2.8618  -10.8891  -44.1518 H         1 UNK         0.0600 
    176 H176       -3.4216  -12.7214  -42.5217 H         1 UNK         0.0600 
    177 H177       -1.7070  -12.9907  -42.2283 H         1 UNK         0.0600 
    178 H178       -2.4560  -11.4646  -41.7633 H         1 UNK         0.0600 
    179 H179       -0.0468  -11.6652  -44.2723 H         1 UNK         0.3000 
    180 H180        0.9742   -8.2711  -43.5952 H         1 UNK         0.0600 
    181 H181        1.8571  -11.0245  -42.5806 H         1 UNK         0.0600 
    182 H182        1.4849   -9.6216  -41.5895 H         1 UNK         0.0600 
    183 H183        2.8703   -9.5853  -42.6694 H         1 UNK         0.0600 
    184 H184        1.8412  -10.6974  -45.0586 H         1 UNK         0.3000 
    185 H185        1.3166   -9.2591  -48.2313 H         1 UNK         0.0600 
    186 H186        3.4048   -8.0117  -47.6785 H         1 UNK         0.0600 
    187 H187        4.0568   -9.4286  -46.8644 H         1 UNK         0.0600 
    188 H188        3.7644   -9.4602  -48.6041 H         1 UNK         0.0600 
    189 H189        2.8372  -11.5229  -47.2424 H         1 UNK         0.3000 
    190 H190        0.9499  -22.6701  -47.6568 H         1 UNK         0.3000 
    191 H191        2.4546  -24.5288  -49.2497 H         1 UNK         0.0600 
    192 H192       -0.5626  -24.1393  -48.9122 H         1 UNK         0.0600 
    193 H193        0.2081  -25.0733  -50.1908 H         1 UNK         0.0600 
    194 H194        0.4606  -23.3351  -50.0994 H         1 UNK         0.0600 
    195 H195        0.1138  -24.9153  -46.5688 H         1 UNK         0.3000 
    196 H196       -0.4737  -26.5132  -45.2061 H         1 UNK         0.0600 
    197 H197        1.1585  -28.1185  -44.3451 H         1 UNK         0.0600 
    198 H198        2.0012  -26.6161  -44.6582 H         1 UNK         0.0600 
    199 H199        2.1671  -27.9623  -45.7809 H         1 UNK         0.0600 
    200 H200        0.0233  -29.3887  -45.3626 H         1 UNK         0.3000 
    201 H201       -0.9600  -31.2415  -46.0755 H         1 UNK         0.0600 
    202 H202        0.7444  -31.0986  -47.8356 H         1 UNK         0.0600 
    203 H203       -0.2908  -30.1051  -48.8490 H         1 UNK         0.0600 
    204 H204       -0.7205  -31.7822  -48.5144 H         1 UNK         0.0600 
    205 H205       -2.3031  -30.0760  -49.0291 H         1 UNK         0.3000 
    206 H206       -5.0281  -30.5771  -48.2090 H         1 UNK         0.0600 
    207 H207       -4.1981  -31.1143  -50.4898 H         1 UNK         0.0600 
    208 H208       -5.5169  -29.9584  -50.5772 H         1 UNK         0.0600 
    209 H209       -3.8596  -29.4092  -50.7928 H         1 UNK         0.0600 
    210 H210       -3.0093  -27.7983  -48.0785 H         1 UNK         0.3000 
    211 H211       -3.1990  -25.7398  -47.4053 H         1 UNK         0.0600 
    212 H212       -6.1536  -26.2045  -46.7654 H         1 UNK         0.0600 
    213 H213       -5.1772  -24.8441  -46.2534 H         1 UNK         0.0600 
    214 H214       -4.7995  -26.4553  -45.6629 H         1 UNK         0.0600 
    215 H215       -2.7726  -24.4038  -48.9900 H         1 UNK         0.3000 
    216 H216       -4.2757  -24.0565  -51.4052 H         1 UNK         0.0600 
    217 H217       -2.0247  -22.4203  -50.1057 H         1 UNK         0.0600 
    218 H218       -2.5973  -22.2069  -51.7473 H         1 UNK         0.0600 
    219 H219       -1.8287  -23.7140  -51.2972 H         1 UNK         0.0600 
    220 H220       -5.0689  -21.9431  -52.1820 H         1 UNK         0.3000 
    221 H221       -6.9218  -20.6589  -50.3312 H         1 UNK         0.0600 
    222 H222       -7.6035  -21.0715  -52.6583 H         1 UNK         0.0600 
    223 H223       -6.2406  -20.1446  -53.2731 H         1 UNK         0.0600 
    224 H224       -7.5266  -19.3371  -52.3895 H         1 UNK         0.0600 
    225 H225       -7.0152  -18.2948  -50.1145 H         1 UNK         0.3000 
    226 H226       -4.6676  -17.3265  -48.8892 H         1 UNK         0.0600 
    227 H227       -7.2809  -15.8945  -49.5862 H         1 UNK         0.0600 
    228 H228       -6.9403  -16.7801  -48.0984 H         1 UNK         0.0600 
    229 H229       -6.0678  -15.3033  -48.4598 H         1 UNK         0.0600 
    230 H230       -3.0862  -16.0529  -49.5314 H         1 UNK         0.3000 
    231 H231       -1.5808  -14.9902  -50.6917 H         1 UNK         0.0600 
    232 H232       -3.9644  -13.5223  -51.9225 H         1 UNK         0.0600 
    233 H233       -2.2892  -13.0606  -52.1822 H         1 UNK         0.0600 
    234 H234       -2.9565  -13.0173  -50.5662 H         1 UNK         0.0600 
    235 H235       -4.0582  -15.6429  -53.1853 H         1 UNK         0.3000 
    236 H236       -1.9923  -16.6156  -55.1086 H         1 UNK         0.0600 
    237 H237       -3.6381  -14.9866  -56.0226 H         1 UNK         0.0600 
    238 H238       -3.8889  -16.5765  -56.7293 H         1 UNK         0.0600 
    239 H239       -4.9770  -15.9934  -55.4744 H         1 UNK         0.0600 
    240 H240       -1.6189  -18.7618  -55.0048 H         1 UNK         0.3000 
    241 H241       -2.7586  -20.2995  -53.0397 H         1 UNK         0.0600 
    242 H242       -5.1707  -21.5002  -56.0936 H         1 UNK         0.3800 
    243 H243       -4.0680  -20.1684  -56.3217 H         1 UNK         0.3800 
    244 H244       -1.1339  -21.4032  -55.3756 H         1 UNK         0.0800 
    245 H245       -1.3168  -22.1537  -53.8149 H         1 UNK         0.0800 
    246 H246       -0.8069  -20.4282  -51.5543 H         1 UNK         0.0800 
    247 H247        0.3031  -21.7479  -51.8357 H         1 UNK         0.0800 
@<TRIPOS>BOND
     1    1    2 1    
     2    1  127 1    
     3    1  128 1    
     4    1  129 1    
     5    2    3 2    
     6    2    4 am   BACKBONE|DICT|INTERRES
     7    4    5 1    
     8    4  130 1    
     9    5    6 1    
    10    5   65 1    
    11    5  131 1    
    12    6    7 1    
    13    6  132 1    
    14    6  133 1    
    15    7    8 1    
    16    8    9 1    
    17    8  134 1    
    18    8  135 1    
    19    9   10 ar   
    20    9   14 ar   
    21   10   11 ar   
    22   10  136 1    
    23   11   12 ar   
    24   11  126 1    
    25   12   13 ar   
    26   12  137 1    
    27   13   14 ar   
    28   13   15 1    
    29   14  138 1    
    30   15   16 1    
    31   15  139 1    
    32   15  140 1    
    33   16   17 1    
    34   17   18 1    
    35   17  141 1    
    36   17  142 1    
    37   18   19 1    
    38   18   67 1    
    39   18  143 1    
    40   19   20 am   BACKBONE|DICT|INTERRES
    41   19  144 1    
    42   20   21 2    
    43   20   22 1    
    44   22   23 1    
    45   22   24 1    
    46   22  145 1    
    47   23  146 1    
    48   23  147 1    
    49   23  148 1    
    50   24   25 am   BACKBONE|DICT|INTERRES
    51   24  149 1    
    52   25   26 2    
    53   25   27 1    
    54   27   28 1    
    55   27   29 1    
    56   27  150 1    
    57   28  151 1    
    58   28  152 1    
    59   28  153 1    
    60   29   30 am   BACKBONE|DICT|INTERRES
    61   29  154 1    
    62   30   31 2    
    63   30   32 1    
    64   32   33 1    
    65   32   34 1    
    66   32  155 1    
    67   33  156 1    
    68   33  157 1    
    69   33  158 1    
    70   34   35 am   BACKBONE|DICT|INTERRES
    71   34  159 1    
    72   35   36 2    
    73   35   37 1    
    74   37   38 1    
    75   37   39 1    
    76   37  160 1    
    77   38  161 1    
    78   38  162 1    
    79   38  163 1    
    80   39   40 am   BACKBONE|DICT|INTERRES
    81   39  164 1    
    82   40   41 2    
    83   40   42 1    
    84   42   43 1    
    85   42   44 1    
    86   42  165 1    
    87   43  166 1    
    88   43  167 1    
    89   43  168 1    
    90   44   45 am   BACKBONE|DICT|INTERRES
    91   44  169 1    
    92   45   46 2    
    93   45   47 1    
    94   47   48 1    
    95   47   49 1    
    96   47  170 1    
    97   48  171 1    
    98   48  172 1    
    99   48  173 1    
   100   49   50 am   BACKBONE|DICT|INTERRES
   101   49  174 1    
   102   50   51 2    
   103   50   52 1    
   104   52   53 1    
   105   52   54 1    
   106   52  175 1    
   107   53  176 1    
   108   53  177 1    
   109   53  178 1    
   110   54   55 am   BACKBONE|DICT|INTERRES
   111   54  179 1    
   112   55   56 2    
   113   55   57 1    
   114   57   58 1    
   115   57   59 1    
   116   57  180 1    
   117   58  181 1    
   118   58  182 1    
   119   58  183 1    
   120   59   60 am   BACKBONE|DICT|INTERRES
   121   59  184 1    
   122   60   61 2    
   123   60   62 1    
   124   62   63 1    
   125   62   64 1    
   126   62  185 1    
   127   63  186 1    
   128   63  187 1    
   129   63  188 1    
   130   64   65 am   BACKBONE|DICT|INTERRES
   131   64  189 1    
   132   65   66 2    
   133   67   68 2    
   134   67   69 am   BACKBONE|DICT|INTERRES
   135   69   70 1    
   136   69  190 1    
   137   70   71 1    
   138   70   72 1    
   139   70  191 1    
   140   71  192 1    
   141   71  193 1    
   142   71  194 1    
   143   72   73 2    
   144   72   74 am   BACKBONE|DICT|INTERRES
   145   74   75 1    
   146   74  195 1    
   147   75   76 1    
   148   75   77 1    
   149   75  196 1    
   150   76  197 1    
   151   76  198 1    
   152   76  199 1    
   153   77   78 2    
   154   77   79 am   BACKBONE|DICT|INTERRES
   155   79   80 1    
   156   79  200 1    
   157   80   81 1    
   158   80   82 1    
   159   80  201 1    
   160   81  202 1    
   161   81  203 1    
   162   81  204 1    
   163   82   83 2    
   164   82   84 am   BACKBONE|DICT|INTERRES
   165   84   85 1    
   166   84  205 1    
   167   85   86 1    
   168   85   87 1    
   169   85  206 1    
   170   86  207 1    
   171   86  208 1    
   172   86  209 1    
   173   87   88 2    
   174   87   89 am   BACKBONE|DICT|INTERRES
   175   89   90 1    
   176   89  210 1    
   177   90   91 1    
   178   90   92 1    
   179   90  211 1    
   180   91  212 1    
   181   91  213 1    
   182   91  214 1    
   183   92   93 2    
   184   92   94 am   BACKBONE|DICT|INTERRES
   185   94   95 1    
   186   94  215 1    
   187   95   96 1    
   188   95   97 1    
   189   95  216 1    
   190   96  217 1    
   191   96  218 1    
   192   96  219 1    
   193   97   98 2    
   194   97   99 am   BACKBONE|DICT|INTERRES
   195   99  100 1    
   196   99  220 1    
   197  100  101 1    
   198  100  102 1    
   199  100  221 1    
   200  101  222 1    
   201  101  223 1    
   202  101  224 1    
   203  102  103 2    
   204  102  104 am   BACKBONE|DICT|INTERRES
   205  104  105 1    
   206  104  225 1    
   207  105  106 1    
   208  105  107 1    
   209  105  226 1    
   210  106  227 1    
   211  106  228 1    
   212  106  229 1    
   213  107  108 2    
   214  107  109 am   BACKBONE|DICT|INTERRES
   215  109  110 1    
   216  109  230 1    
   217  110  111 1    
   218  110  112 1    
   219  110  231 1    
   220  111  232 1    
   221  111  233 1    
   222  111  234 1    
   223  112  113 2    
   224  112  114 am   BACKBONE|DICT|INTERRES
   225  114  115 1    
   226  114  235 1    
   227  115  116 1    
   228  115  117 1    
   229  115  236 1    
   230  116  237 1    
   231  116  238 1    
   232  116  239 1    
   233  117  118 2    
   234  117  119 am   BACKBONE|DICT|INTERRES
   235  119  120 1    
   236  119  240 1    
   237  120  121 1    
   238  120  124 1    
   239  120  241 1    
   240  121  122 am   BACKBONE|DICT|INTERRES
   241  121  123 2    
   242  122  242 1    
   243  122  243 1    
   244  124  125 1    
   245  124  244 1    
   246  124  245 1    
   247  125  126 1    
   248  126  246 1    
   249  126  247 1    
@<TRIPOS>SUBSTRUCTURE
     1 UNK         1 GROUP             0       ****    0 ROOT    
