@<TRIPOS>MOLECULE
3R540
247   249    1
SMALL
USER_CHARGES


@<TRIPOS>ATOM
      1 CA         -0.5053  -11.4992  -46.8711 C.3       0 UNK        -0.1800 
      2 C           1.0084  -11.4325  -47.0213 C.2       0 UNK         0.5000 
      3 O           1.5147  -10.6013  -47.7751 O.2       0 UNK        -0.5000 
      4 N           1.7293  -12.3065  -46.3154 N.am      1 UNK        -0.5000 
      5 CA          3.1847  -12.4059  -46.3123 C.3       1 UNK         0.1400 
      6 C6          3.7602  -13.0966  -47.5794 C.3       23 UNK        -0.0398 
      7 S7          2.9705  -14.6910  -48.0063 S.3       23 UNK        -0.2404 
      8 C8          2.1189  -14.2548  -49.5533 C.3       23 UNK        -0.0205 
      9 C9          1.1943  -15.3667  -50.0264 C.ar      23 UNK        -0.0193 
     10 C10        -0.1886  -15.1633  -50.0676 C.ar      23 UNK        -0.1150 
     11 C11        -1.0381  -16.1721  -50.5281 C.ar      23 UNK        -0.0193 
     12 C12        -0.4958  -17.3851  -50.9574 C.ar      23 UNK        -0.1150 
     13 C13         0.8820  -17.6162  -50.8965 C.ar      23 UNK        -0.0193 
     14 C14         1.7212  -16.5950  -50.4396 C.ar      23 UNK        -0.1150 
     15 C15         1.4798  -18.9554  -51.3260 C.3       23 UNK        -0.0205 
     16 S16         0.5129  -20.4156  -50.7999 S.3       23 UNK        -0.2404 
     17 C17         0.3509  -20.1083  -49.0102 C.3       23 UNK        -0.0398 
     18 CA         -0.1151  -21.3377  -48.1947 C.3       11 UNK         0.1400 
     19 N           0.1675  -21.1424  -46.7707 N.am      11 UNK        -0.5000 
     20 C           0.0898  -22.0860  -45.8243 C.2       10 UNK         0.5000 
     21 O          -0.1703  -23.2648  -46.0571 O.2       10 UNK        -0.5000 
     22 CA          0.2979  -21.6249  -44.3691 C.3       10 UNK         0.1400 
     23 CB          1.7924  -21.5464  -44.0236 C.3       10 UNK        -0.1800 
     24 N          -0.3411  -20.3349  -44.0993 N.am      10 UNK        -0.5000 
     25 C          -1.6685  -20.1435  -44.0854 C.2       9 UNK         0.5000 
     26 O          -2.4892  -21.0497  -44.2274 O.2       9 UNK        -0.5000 
     27 CA         -2.1652  -18.6951  -43.9205 C.3       9 UNK         0.1400 
     28 CB         -2.2299  -18.3119  -42.4348 C.3       9 UNK        -0.1800 
     29 N          -1.3422  -17.7233  -44.6421 N.am      9 UNK        -0.5000 
     30 C          -1.2096  -17.6734  -45.9757 C.2       8 UNK         0.5000 
     31 O          -1.8090  -18.4191  -46.7476 O.2       8 UNK        -0.5000 
     32 CA         -0.1851  -16.6716  -46.5382 C.3       8 UNK         0.1400 
     33 CB         -0.7662  -15.2528  -46.6000 C.3       8 UNK        -0.1800 
     34 N           1.0554  -16.6685  -45.7636 N.am      8 UNK        -0.5000 
     35 C           1.8900  -17.7135  -45.6796 C.2       7 UNK         0.5000 
     36 O           1.7231  -18.7702  -46.2861 O.2       7 UNK        -0.5000 
     37 CA          3.0713  -17.5860  -44.7072 C.3       7 UNK         0.1400 
     38 CB          4.3211  -17.0384  -45.4097 C.3       7 UNK        -0.1800 
     39 N           2.7280  -16.7539  -43.5541 N.am      7 UNK        -0.5000 
     40 C           2.0083  -17.1962  -42.5144 C.2       6 UNK         0.5000 
     41 O           1.5891  -18.3505  -42.4179 O.2       6 UNK        -0.5000 
     42 CA          1.6675  -16.1710  -41.4185 C.3       6 UNK         0.1400 
     43 CB          2.8354  -16.0201  -40.4318 C.3       6 UNK        -0.1800 
     44 N           1.2973  -14.8583  -41.9541 N.am      6 UNK        -0.5000 
     45 C           0.1748  -14.6293  -42.6511 C.2       5 UNK         0.5000 
     46 O          -0.6107  -15.5257  -42.9572 O.2       5 UNK        -0.5000 
     47 CA         -0.1369  -13.1817  -43.0749 C.3       5 UNK         0.1400 
     48 CB         -1.6537  -12.9231  -43.2071 C.3       5 UNK        -0.1800 
     49 N           0.4607  -12.2065  -42.1644 N.am      5 UNK        -0.5000 
     50 C           0.6924  -10.9212  -42.4649 C.2       4 UNK         0.5000 
     51 O           0.4693  -10.4189  -43.5663 O.2       4 UNK        -0.5000 
     52 CA          1.3117  -10.0659  -41.3533 C.3       4 UNK         0.1400 
     53 CB          0.3277   -9.8403  -40.1901 C.3       4 UNK        -0.1800 
     54 N           2.5260  -10.7248  -40.8965 N.am      4 UNK        -0.5000 
     55 C           3.5383  -10.1796  -40.2222 C.2       3 UNK         0.5000 
     56 O           3.5417   -9.0221  -39.8015 O.2       3 UNK        -0.5000 
     57 CA          4.7768  -11.0755  -40.0144 C.3       3 UNK         0.1400 
     58 CB          4.5367  -12.1096  -38.8966 C.3       3 UNK        -0.1800 
     59 N           5.2700  -11.7171  -41.2455 N.am      3 UNK        -0.5000 
     60 C           4.6760  -12.6472  -42.0075 C.2       2 UNK         0.5000 
     61 O           3.5666  -13.1261  -41.7627 O.2       2 UNK        -0.5000 
     62 CA          5.4553  -13.1001  -43.2556 C.3       2 UNK         0.1400 
     63 CB          5.7529  -14.6080  -43.2169 C.3       2 UNK        -0.1800 
     64 N           4.7973  -12.7028  -44.5066 N.am      2 UNK        -0.5000 
     65 C           3.6164  -13.0979  -45.0074 C.2       1 UNK         0.5000 
     66 O           2.8838  -13.9578  -44.5074 O.2       1 UNK        -0.5000 
     67 C          -1.6041  -21.6783  -48.4440 C.2       11 UNK         0.5000 
     68 O          -1.9029  -22.5301  -49.2778 O.2       11 UNK        -0.5000 
     69 N          -2.5115  -21.0364  -47.6937 N.am      12 UNK        -0.5000 
     70 CA         -3.9595  -21.2496  -47.7543 C.3       12 UNK         0.1400 
     71 CB         -4.6680  -20.1060  -47.0129 C.3       12 UNK        -0.1800 
     72 C          -4.4318  -22.6193  -47.2187 C.2       12 UNK         0.5000 
     73 O          -5.5654  -23.0119  -47.5026 O.2       12 UNK        -0.5000 
     74 N          -3.5796  -23.3296  -46.4678 N.am      13 UNK        -0.5000 
     75 CA         -3.8286  -24.6924  -45.9936 C.3       13 UNK         0.1400 
     76 CB         -2.8019  -25.0359  -44.9026 C.3       13 UNK        -0.1800 
     77 C          -3.7803  -25.7258  -47.1393 C.2       13 UNK         0.5000 
     78 O          -3.3328  -25.4111  -48.2440 O.2       13 UNK        -0.5000 
     79 N          -4.2426  -26.9516  -46.8511 N.am      14 UNK        -0.5000 
     80 CA         -4.2858  -28.1039  -47.7640 C.3       14 UNK         0.1400 
     81 CB         -2.8592  -28.6017  -48.0803 C.3       14 UNK        -0.1800 
     82 C          -5.1185  -27.8194  -49.0322 C.2       14 UNK         0.5000 
     83 O          -4.6563  -28.0567  -50.1504 O.2       14 UNK        -0.5000 
     84 N          -6.3250  -27.2714  -48.8183 N.am      15 UNK        -0.5000 
     85 CA         -7.2876  -26.8370  -49.8369 C.3       15 UNK         0.1400 
     86 CB         -7.8717  -28.0527  -50.5875 C.3       15 UNK        -0.1800 
     87 C          -6.6860  -25.7781  -50.7824 C.2       15 UNK         0.5000 
     88 O          -6.7225  -25.9444  -52.0031 O.2       15 UNK        -0.5000 
     89 N          -6.0996  -24.7276  -50.1872 N.am      16 UNK        -0.5000 
     90 CA         -5.3859  -23.6365  -50.8573 C.3       16 UNK         0.1400 
     91 CB         -6.3718  -22.7716  -51.6764 C.3       16 UNK        -0.1800 
     92 C          -4.1859  -24.1461  -51.6779 C.2       16 UNK         0.5000 
     93 O          -4.0395  -23.7693  -52.8404 O.2       16 UNK        -0.5000 
     94 N          -3.3791  -25.0293  -51.0719 N.am      17 UNK        -0.5000 
     95 CA         -2.2451  -25.7423  -51.6692 C.3       17 UNK         0.1400 
     96 CB         -1.0665  -24.7741  -51.9040 C.3       17 UNK        -0.1800 
     97 C          -2.6463  -26.5303  -52.9359 C.2       17 UNK         0.5000 
     98 O          -1.9560  -26.4604  -53.9535 O.2       17 UNK        -0.5000 
     99 N          -3.7845  -27.2351  -52.8485 N.am      18 UNK        -0.5000 
    100 CA        -4.4939  -27.9128  -53.9380 C.3       18 UNK         0.1400 
    101 CB        -3.6853  -29.1208  -54.4556 C.3       18 UNK        -0.1800 
    102 C         -4.9200  -26.9329  -55.0549 C.2       18 UNK         0.5000 
    103 O         -4.6332  -27.1638  -56.2314 O.2       18 UNK        -0.5000 
    104 N         -5.6020  -25.8536  -54.6450 N.am      19 UNK        -0.5000 
    105 CA        -6.1401  -24.7623  -55.4648 C.3       19 UNK         0.1400 
    106 CB        -7.3035  -25.2718  -56.3411 C.3       19 UNK        -0.1800 
    107 C         -5.0678  -23.9905  -56.2673 C.2       19 UNK         0.5000 
    108 O         -5.2942  -23.6478  -57.4300 O.2       19 UNK        -0.5000 
    109 N         -3.9243  -23.7229  -55.6270 N.am      20 UNK        -0.5000 
    110 CA        -2.8072  -22.9502  -56.1736 C.3       20 UNK         0.1400 
    111 CB        -1.5226  -23.7846  -56.0589 C.3       20 UNK        -0.1800 
    112 C         -2.6284  -21.5971  -55.4584 C.2       20 UNK         0.5000 
    113 O         -2.0984  -20.6658  -56.0669 O.2       20 UNK        -0.5000 
    114 N         -3.0564  -21.5031  -54.1919 N.am      21 UNK        -0.5000 
    115 CA        -3.0030  -20.2934  -53.3700 C.3       21 UNK         0.1400 
    116 CB        -2.9476  -20.7067  -51.8883 C.3       21 UNK        -0.1800 
    117 C         -4.1846  -19.3423  -53.6574 C.2       21 UNK         0.5000 
    118 O         -4.9733  -19.5769  -54.5761 O.2       21 UNK        -0.5000 
    119 N         -4.2765  -18.2717  -52.8587 N.am      22 UNK        -0.5000 
    120 CA        -5.2465  -17.1687  -52.9982 C.3       22 UNK         0.1400 
    121 C         -6.7442  -17.5500  -52.7959 C.2       22 UNK         0.5000 
    122 N         -7.0680  -18.7041  -52.2259 N.am      22 UNK        -0.7600 
    123 O         -7.6279  -16.7797  -53.1615 O.2       22 UNK        -0.5000 
    124 C124       -4.8855  -15.9577  -52.0936 C.3       23 UNK        -0.0398 
    125 S125       -3.1285  -15.4626  -52.1919 S.3       23 UNK        -0.2404 
    126 C126       -2.5436  -15.9724  -50.5452 C.3       23 UNK        -0.0205 
    127 H127       -0.9661  -11.7594  -47.8240 H         1 UNK         0.0600 
    128 H128       -0.8927  -10.5311  -46.5539 H         1 UNK         0.0600 
    129 H129       -0.8091  -12.2404  -46.1325 H         1 UNK         0.0600 
    130 H130        1.2859  -12.9663  -45.6933 H         1 UNK         0.3000 
    131 H131        3.5802  -11.3884  -46.2736 H         1 UNK         0.0600 
    132 H132        3.6659  -12.4169  -48.4270 H         1 UNK         0.0800 
    133 H133        4.8326  -13.2658  -47.4697 H         1 UNK         0.0800 
    134 H134        1.5575  -13.3312  -49.4049 H         1 UNK         0.0800 
    135 H135        2.8592  -14.0480  -50.3272 H         1 UNK         0.0800 
    136 H136       -0.6052  -14.2204  -49.7421 H         1 UNK         0.1150 
    137 H137       -1.1513  -18.1596  -51.3241 H         1 UNK         0.1150 
    138 H138        2.7899  -16.7532  -50.3992 H         1 UNK         0.1150 
    139 H139        1.5662  -18.9659  -52.4130 H         1 UNK         0.0800 
    140 H140        2.4929  -19.0596  -50.9343 H         1 UNK         0.0800 
    141 H141       -0.3158  -19.2611  -48.8453 H         1 UNK         0.0800 
    142 H142        1.3334  -19.7896  -48.6602 H         1 UNK         0.0800 
    143 H143        0.4731  -22.1995  -48.5174 H         1 UNK         0.0600 
    144 H144        0.4632  -20.2093  -46.4980 H         1 UNK         0.3000 
    145 H145       -0.1603  -22.3701  -43.7153 H         1 UNK         0.0600 
    146 H146        2.2718  -22.5174  -44.1526 H         1 UNK         0.0600 
    147 H147        2.3190  -20.8359  -44.6600 H         1 UNK         0.0600 
    148 H148        1.9430  -21.2435  -42.9872 H         1 UNK         0.0600 
    149 H149        0.2686  -19.5447  -43.9335 H         1 UNK         0.3000 
    150 H150       -3.1764  -18.6426  -44.3284 H         1 UNK         0.0600 
    151 H151       -2.8399  -19.0205  -41.8732 H         1 UNK         0.0600 
    152 H152       -2.6736  -17.3249  -42.3025 H         1 UNK         0.0600 
    153 H153       -1.2387  -18.2959  -41.9800 H         1 UNK         0.0600 
    154 H154       -0.8634  -17.0301  -44.0727 H         1 UNK         0.3000 
    155 H155        0.0583  -16.9806  -47.5572 H         1 UNK         0.0600 
    156 H156       -0.0621  -14.5636  -47.0647 H         1 UNK         0.0600 
    157 H157       -1.0112  -14.8720  -45.6100 H         1 UNK         0.0600 
    158 H158       -1.6795  -15.2329  -47.1958 H         1 UNK         0.0600 
    159 H159        1.2745  -15.8385  -45.2330 H         1 UNK         0.3000 
    160 H160        3.3125  -18.5915  -44.3564 H         1 UNK         0.0600 
    161 H161        4.2083  -15.9913  -45.6840 H         1 UNK         0.0600 
    162 H162        4.5338  -17.5957  -46.3229 H         1 UNK         0.0600 
    163 H163        5.1976  -17.1244  -44.7681 H         1 UNK         0.0600 
    164 H164        2.9601  -15.7667  -43.6119 H         1 UNK         0.3000 
    165 H165        0.8097  -16.5568  -40.8633 H         1 UNK         0.0600 
    166 H166        2.5943  -15.3123  -39.6387 H         1 UNK         0.0600 
    167 H167        3.0694  -16.9741  -39.9580 H         1 UNK         0.0600 
    168 H168        3.7417  -15.6713  -40.9270 H         1 UNK         0.0600 
    169 H169        1.9916  -14.1206  -41.8577 H         1 UNK         0.3000 
    170 H170        0.3171  -13.0581  -44.0570 H         1 UNK         0.0600 
    171 H171       -2.1232  -13.6243  -43.8973 H         1 UNK         0.0600 
    172 H172       -2.1575  -13.0234  -42.2453 H         1 UNK         0.0600 
    173 H173       -1.8583  -11.9228  -43.5884 H         1 UNK         0.0600 
    174 H174        0.6649  -12.5414  -41.2330 H         1 UNK         0.3000 
    175 H175        1.5786   -9.0984  -41.7837 H         1 UNK         0.0600 
    176 H176        0.7400   -9.1540  -39.4505 H         1 UNK         0.0600 
    177 H177       -0.6059   -9.4056  -40.5491 H         1 UNK         0.0600 
    178 H178        0.0830  -10.7720  -39.6790 H         1 UNK         0.0600 
    179 H179        2.6810  -11.6675  -41.2509 H         1 UNK         0.3000 
    180 H180        5.5827  -10.4200  -39.6805 H         1 UNK         0.0600 
    181 H181        3.7283  -12.7997  -39.1393 H         1 UNK         0.0600 
    182 H182        4.2698  -11.6147  -37.9621 H         1 UNK         0.0600 
    183 H183        5.4335  -12.6993  -38.7073 H         1 UNK         0.0600 
    184 H184        6.1679  -11.3720  -41.5557 H         1 UNK         0.3000 
    185 H185        6.4186  -12.5875  -43.2565 H         1 UNK         0.0600 
    186 H186        6.3700  -14.8585  -42.3534 H         1 UNK         0.0600 
    187 H187        4.8431  -15.1978  -43.1407 H         1 UNK         0.0600 
    188 H188        6.2922  -14.9280  -44.1082 H         1 UNK         0.0600 
    189 H189        5.2923  -11.9831  -45.0146 H         1 UNK         0.3000 
    190 H190       -2.1931  -20.2909  -47.0817 H         1 UNK         0.3000 
    191 H191       -4.2537  -21.1929  -48.8033 H         1 UNK         0.0600 
    192 H192       -4.4067  -19.1370  -47.4384 H         1 UNK         0.0600 
    193 H193       -5.7519  -20.2071  -47.0805 H         1 UNK         0.0600 
    194 H194       -4.4057  -20.0912  -45.9553 H         1 UNK         0.0600 
    195 H195       -2.6544  -22.9558  -46.3081 H         1 UNK         0.3000 
    196 H196       -4.8263  -24.7189  -45.5509 H         1 UNK         0.0600 
    197 H197       -3.0594  -25.9691  -44.4008 H         1 UNK         0.0600 
    198 H198       -2.7575  -24.2590  -44.1387 H         1 UNK         0.0600 
    199 H199       -1.8012  -25.1577  -45.3171 H         1 UNK         0.0600 
    200 H200       -4.5973  -27.1233  -45.9204 H         1 UNK         0.3000 
    201 H201       -4.8019  -28.9049  -47.2329 H         1 UNK         0.0600 
    202 H202       -2.3066  -28.8195  -47.1665 H         1 UNK         0.0600 
    203 H203       -2.2879  -27.8681  -48.6500 H         1 UNK         0.0600 
    204 H204       -2.8880  -29.5197  -48.6684 H         1 UNK         0.0600 
    205 H205       -6.5957  -27.0968  -47.8607 H         1 UNK         0.3000 
    206 H206       -8.1080  -26.3493  -49.3085 H         1 UNK         0.0600 
    207 H207       -8.3112  -28.7697  -49.8943 H         1 UNK         0.0600 
    208 H208       -8.6587  -27.7434  -51.2763 H         1 UNK         0.0600 
    209 H209       -7.1136  -28.5741  -51.1728 H         1 UNK         0.0600 
    210 H210       -6.0901  -24.6872  -49.1765 H         1 UNK         0.3000 
    211 H211       -4.9604  -23.0053  -50.0810 H         1 UNK         0.0600 
    212 H212       -6.8685  -23.3467  -52.4569 H         1 UNK         0.0600 
    213 H213       -5.8717  -21.9391  -52.1689 H         1 UNK         0.0600 
    214 H214       -7.1443  -22.3490  -51.0342 H         1 UNK         0.0600 
    215 H215       -3.5414  -25.2344  -50.0878 H         1 UNK         0.3000 
    216 H216       -1.9262  -26.4833  -50.9349 H         1 UNK         0.0600 
    217 H217       -0.1983  -25.2984  -52.3043 H         1 UNK         0.0600 
    218 H218       -0.7561  -24.3036  -50.9715 H         1 UNK         0.0600 
    219 H219       -1.3253  -23.9804  -52.6048 H         1 UNK         0.0600 
    220 H220       -4.2499  -27.2645  -51.9455 H         1 UNK         0.3000 
    221 H221       -5.4165  -28.2994  -53.5024 H         1 UNK         0.0600 
    222 H222       -2.7596  -28.8142  -54.9431 H         1 UNK         0.0600 
    223 H223       -3.4276  -29.7988  -53.6420 H         1 UNK         0.0600 
    224 H224       -4.2631  -29.6916  -55.1832 H         1 UNK         0.0600 
    225 H225       -5.8090  -25.7832  -53.6509 H         1 UNK         0.3000 
    226 H226       -6.5570  -24.0407  -54.7617 H         1 UNK         0.0600 
    227 H227       -8.0583  -25.7765  -55.7380 H         1 UNK         0.0600 
    228 H228       -7.7989  -24.4463  -56.8534 H         1 UNK         0.0600 
    229 H229       -6.9597  -25.9714  -57.1034 H         1 UNK         0.0600 
    230 H230       -3.8489  -24.0036  -54.6518 H         1 UNK         0.3000 
    231 H231       -2.9738  -22.7365  -57.2311 H         1 UNK         0.0600 
    232 H232       -1.2736  -23.9972  -55.0192 H         1 UNK         0.0600 
    233 H233       -0.6740  -23.2602  -56.4997 H         1 UNK         0.0600 
    234 H234       -1.6244  -24.7378  -56.5782 H         1 UNK         0.0600 
    235 H235       -3.4878  -22.3156  -53.7592 H         1 UNK         0.3000 
    236 H236       -2.0815  -19.7555  -53.6026 H         1 UNK         0.0600 
    237 H237       -2.6863  -19.8695  -51.2424 H         1 UNK         0.0600 
    238 H238       -3.8981  -21.0976  -51.5340 H         1 UNK         0.0600 
    239 H239       -2.1941  -21.4780  -51.7289 H         1 UNK         0.0600 
    240 H240       -3.5841  -18.1439  -52.1378 H         1 UNK         0.3000 
    241 H241       -5.1681  -16.8301  -54.0331 H         1 UNK         0.0600 
    242 H242       -8.0401  -18.9403  -52.1038 H         1 UNK         0.3800 
    243 H243       -6.3526  -19.3481  -51.9344 H         1 UNK         0.3800 
    244 H244       -5.4853  -15.0909  -52.3769 H         1 UNK         0.0800 
    245 H245       -5.1446  -16.1675  -51.0543 H         1 UNK         0.0800 
    246 H246       -3.0270  -16.9029  -50.2434 H         1 UNK         0.0800 
    247 H247       -2.8392  -15.2225  -49.8097 H         1 UNK         0.0800 
@<TRIPOS>BOND
     1    1    2 1    
     2    1  127 1    
     3    1  128 1    
     4    1  129 1    
     5    2    3 2    
     6    2    4 am   BACKBONE|DICT|INTERRES
     7    4    5 1    
     8    4  130 1    
     9    5    6 1    
    10    5   65 1    
    11    5  131 1    
    12    6    7 1    
    13    6  132 1    
    14    6  133 1    
    15    7    8 1    
    16    8    9 1    
    17    8  134 1    
    18    8  135 1    
    19    9   10 ar   
    20    9   14 ar   
    21   10   11 ar   
    22   10  136 1    
    23   11   12 ar   
    24   11  126 1    
    25   12   13 ar   
    26   12  137 1    
    27   13   14 ar   
    28   13   15 1    
    29   14  138 1    
    30   15   16 1    
    31   15  139 1    
    32   15  140 1    
    33   16   17 1    
    34   17   18 1    
    35   17  141 1    
    36   17  142 1    
    37   18   19 1    
    38   18   67 1    
    39   18  143 1    
    40   19   20 am   BACKBONE|DICT|INTERRES
    41   19  144 1    
    42   20   21 2    
    43   20   22 1    
    44   22   23 1    
    45   22   24 1    
    46   22  145 1    
    47   23  146 1    
    48   23  147 1    
    49   23  148 1    
    50   24   25 am   BACKBONE|DICT|INTERRES
    51   24  149 1    
    52   25   26 2    
    53   25   27 1    
    54   27   28 1    
    55   27   29 1    
    56   27  150 1    
    57   28  151 1    
    58   28  152 1    
    59   28  153 1    
    60   29   30 am   BACKBONE|DICT|INTERRES
    61   29  154 1    
    62   30   31 2    
    63   30   32 1    
    64   32   33 1    
    65   32   34 1    
    66   32  155 1    
    67   33  156 1    
    68   33  157 1    
    69   33  158 1    
    70   34   35 am   BACKBONE|DICT|INTERRES
    71   34  159 1    
    72   35   36 2    
    73   35   37 1    
    74   37   38 1    
    75   37   39 1    
    76   37  160 1    
    77   38  161 1    
    78   38  162 1    
    79   38  163 1    
    80   39   40 am   BACKBONE|DICT|INTERRES
    81   39  164 1    
    82   40   41 2    
    83   40   42 1    
    84   42   43 1    
    85   42   44 1    
    86   42  165 1    
    87   43  166 1    
    88   43  167 1    
    89   43  168 1    
    90   44   45 am   BACKBONE|DICT|INTERRES
    91   44  169 1    
    92   45   46 2    
    93   45   47 1    
    94   47   48 1    
    95   47   49 1    
    96   47  170 1    
    97   48  171 1    
    98   48  172 1    
    99   48  173 1    
   100   49   50 am   BACKBONE|DICT|INTERRES
   101   49  174 1    
   102   50   51 2    
   103   50   52 1    
   104   52   53 1    
   105   52   54 1    
   106   52  175 1    
   107   53  176 1    
   108   53  177 1    
   109   53  178 1    
   110   54   55 am   BACKBONE|DICT|INTERRES
   111   54  179 1    
   112   55   56 2    
   113   55   57 1    
   114   57   58 1    
   115   57   59 1    
   116   57  180 1    
   117   58  181 1    
   118   58  182 1    
   119   58  183 1    
   120   59   60 am   BACKBONE|DICT|INTERRES
   121   59  184 1    
   122   60   61 2    
   123   60   62 1    
   124   62   63 1    
   125   62   64 1    
   126   62  185 1    
   127   63  186 1    
   128   63  187 1    
   129   63  188 1    
   130   64   65 am   BACKBONE|DICT|INTERRES
   131   64  189 1    
   132   65   66 2    
   133   67   68 2    
   134   67   69 am   BACKBONE|DICT|INTERRES
   135   69   70 1    
   136   69  190 1    
   137   70   71 1    
   138   70   72 1    
   139   70  191 1    
   140   71  192 1    
   141   71  193 1    
   142   71  194 1    
   143   72   73 2    
   144   72   74 am   BACKBONE|DICT|INTERRES
   145   74   75 1    
   146   74  195 1    
   147   75   76 1    
   148   75   77 1    
   149   75  196 1    
   150   76  197 1    
   151   76  198 1    
   152   76  199 1    
   153   77   78 2    
   154   77   79 am   BACKBONE|DICT|INTERRES
   155   79   80 1    
   156   79  200 1    
   157   80   81 1    
   158   80   82 1    
   159   80  201 1    
   160   81  202 1    
   161   81  203 1    
   162   81  204 1    
   163   82   83 2    
   164   82   84 am   BACKBONE|DICT|INTERRES
   165   84   85 1    
   166   84  205 1    
   167   85   86 1    
   168   85   87 1    
   169   85  206 1    
   170   86  207 1    
   171   86  208 1    
   172   86  209 1    
   173   87   88 2    
   174   87   89 am   BACKBONE|DICT|INTERRES
   175   89   90 1    
   176   89  210 1    
   177   90   91 1    
   178   90   92 1    
   179   90  211 1    
   180   91  212 1    
   181   91  213 1    
   182   91  214 1    
   183   92   93 2    
   184   92   94 am   BACKBONE|DICT|INTERRES
   185   94   95 1    
   186   94  215 1    
   187   95   96 1    
   188   95   97 1    
   189   95  216 1    
   190   96  217 1    
   191   96  218 1    
   192   96  219 1    
   193   97   98 2    
   194   97   99 am   BACKBONE|DICT|INTERRES
   195   99  100 1    
   196   99  220 1    
   197  100  101 1    
   198  100  102 1    
   199  100  221 1    
   200  101  222 1    
   201  101  223 1    
   202  101  224 1    
   203  102  103 2    
   204  102  104 am   BACKBONE|DICT|INTERRES
   205  104  105 1    
   206  104  225 1    
   207  105  106 1    
   208  105  107 1    
   209  105  226 1    
   210  106  227 1    
   211  106  228 1    
   212  106  229 1    
   213  107  108 2    
   214  107  109 am   BACKBONE|DICT|INTERRES
   215  109  110 1    
   216  109  230 1    
   217  110  111 1    
   218  110  112 1    
   219  110  231 1    
   220  111  232 1    
   221  111  233 1    
   222  111  234 1    
   223  112  113 2    
   224  112  114 am   BACKBONE|DICT|INTERRES
   225  114  115 1    
   226  114  235 1    
   227  115  116 1    
   228  115  117 1    
   229  115  236 1    
   230  116  237 1    
   231  116  238 1    
   232  116  239 1    
   233  117  118 2    
   234  117  119 am   BACKBONE|DICT|INTERRES
   235  119  120 1    
   236  119  240 1    
   237  120  121 1    
   238  120  124 1    
   239  120  241 1    
   240  121  122 am   BACKBONE|DICT|INTERRES
   241  121  123 2    
   242  122  242 1    
   243  122  243 1    
   244  124  125 1    
   245  124  244 1    
   246  124  245 1    
   247  125  126 1    
   248  126  246 1    
   249  126  247 1    
@<TRIPOS>SUBSTRUCTURE
     1 UNK         1 GROUP             0       ****    0 ROOT    
