@<TRIPOS>MOLECULE
3R540
247   249    1
SMALL
USER_CHARGES


@<TRIPOS>ATOM
      1 CA          0.8004  -10.4480  -49.9167 C.3       0 UNK        -0.1800 
      2 C           0.9980  -11.9374  -49.6738 C.2       0 UNK         0.5000 
      3 O           2.0803  -12.4646  -49.9361 O.2       0 UNK        -0.5000 
      4 N          -0.0402  -12.6195  -49.1760 N.am      1 UNK        -0.5000 
      5 CA         -0.0372  -14.0485  -48.8482 C.3       1 UNK         0.1400 
      6 C6         -1.4640  -14.6557  -48.8489 C.3       23 UNK        -0.0398 
      7 S7         -2.3584  -14.4238  -50.4243 S.3       23 UNK        -0.2404 
      8 C8         -1.5474  -15.6337  -51.5219 C.3       23 UNK        -0.0205 
      9 C9         -1.6349  -17.0649  -51.0096 C.ar      23 UNK        -0.0193 
     10 C10        -2.8809  -17.6645  -50.7989 C.ar      23 UNK        -0.1150 
     11 C11        -2.9673  -18.9852  -50.3512 C.ar      23 UNK        -0.0193 
     12 C12        -1.7925  -19.7043  -50.1170 C.ar      23 UNK        -0.1150 
     13 C13        -0.5410  -19.1216  -50.3249 C.ar      23 UNK        -0.0193 
     14 C14        -0.4680  -17.7987  -50.7697 C.ar      23 UNK        -0.1150 
     15 C15         0.7239  -19.9424  -50.1168 C.3       23 UNK        -0.0205 
     16 S16         1.7084  -19.4095  -48.6777 S.3       23 UNK        -0.2404 
     17 C17         0.5724  -19.6426  -47.2694 C.3       23 UNK        -0.0398 
     18 CA          0.4460  -21.1220  -46.8031 C.3       11 UNK         0.1400 
     19 N           0.5458  -21.2757  -45.3481 N.am      11 UNK        -0.5000 
     20 C           0.5390  -22.4433  -44.6863 C.2       10 UNK         0.5000 
     21 O           0.5307  -23.5443  -45.2381 O.2       10 UNK        -0.5000 
     22 CA          0.4617  -22.3686  -43.1487 C.3       10 UNK         0.1400 
     23 CB          1.8513  -22.1574  -42.5301 C.3       10 UNK        -0.1800 
     24 N          -0.4560  -21.3244  -42.6864 N.am      10 UNK        -0.5000 
     25 C          -1.7786  -21.3352  -42.9112 C.2       9 UNK         0.5000 
     26 O          -2.3674  -22.2622  -43.4663 O.2       9 UNK        -0.5000 
     27 CA         -2.5699  -20.0804  -42.5018 C.3       9 UNK         0.1400 
     28 CB         -2.9007  -20.1033  -41.0024 C.3       9 UNK        -0.1800 
     29 N          -1.8687  -18.8409  -42.8357 N.am      9 UNK        -0.5000 
     30 C          -1.5643  -18.4481  -44.0814 C.2       8 UNK         0.5000 
     31 O          -1.8929  -19.0654  -45.0940 O.2       8 UNK        -0.5000 
     32 CA         -0.7009  -17.1820  -44.2133 C.3       8 UNK         0.1400 
     33 CB         -1.5662  -15.9234  -44.0511 C.3       8 UNK        -0.1800 
     34 N           0.3962  -17.1582  -43.2443 N.am      8 UNK        -0.5000 
     35 C           1.3949  -18.0508  -43.1874 C.2       7 UNK         0.5000 
     36 O           1.5282  -18.9743  -43.9866 O.2       7 UNK        -0.5000 
     37 CA          2.3770  -17.9306  -42.0092 C.3       7 UNK         0.1400 
     38 CB          3.4952  -16.9202  -42.3028 C.3       7 UNK        -0.1800 
     39 N           1.6926  -17.5615  -40.7729 N.am      7 UNK        -0.5000 
     40 C           0.8821  -18.3805  -40.0891 C.2       6 UNK         0.5000 
     41 O           0.6670  -19.5513  -40.4048 O.2       6 UNK        -0.5000 
     42 CA          0.1599  -17.7668  -38.8757 C.3       6 UNK         0.1400 
     43 CB          1.0645  -17.7928  -37.6348 C.3       6 UNK        -0.1800 
     44 N          -0.2797  -16.3925  -39.1292 N.am      6 UNK        -0.5000 
     45 C          -1.2413  -16.0624  -40.0027 C.2       5 UNK         0.5000 
     46 O          -1.8849  -16.8882  -40.6491 O.2       5 UNK        -0.5000 
     47 CA         -1.4978  -14.5594  -40.2228 C.3       5 UNK         0.1400 
     48 CB         -2.5046  -14.0291  -39.1914 C.3       5 UNK        -0.1800 
     49 N          -0.2830  -13.7383  -40.1832 N.am      5 UNK        -0.5000 
     50 C           0.7461  -13.8529  -41.0327 C.2       4 UNK         0.5000 
     51 O           0.8148  -14.7087  -41.9162 O.2       4 UNK        -0.5000 
     52 CA          1.9119  -12.8793  -40.8344 C.3       4 UNK         0.1400 
     53 CB          2.8215  -13.3499  -39.6852 C.3       4 UNK        -0.1800 
     54 N           2.6908  -12.7945  -42.0679 N.am      4 UNK        -0.5000 
     55 C           3.4016  -11.7286  -42.4518 C.2       3 UNK         0.5000 
     56 O           3.4415  -10.6777  -41.8096 O.2       3 UNK        -0.5000 
     57 CA          4.2349  -11.8402  -43.7438 C.3       3 UNK         0.1400 
     58 CB          5.7335  -11.8873  -43.4019 C.3       3 UNK        -0.1800 
     59 N           3.9187  -13.0060  -44.5738 N.am      3 UNK        -0.5000 
     60 C           2.9631  -13.0387  -45.5114 C.2       2 UNK         0.5000 
     61 O           2.1648  -12.1176  -45.6994 O.2       2 UNK        -0.5000 
     62 CA          2.9651  -14.2895  -46.4183 C.3       2 UNK         0.1400 
     63 CB          2.7677  -15.5923  -45.6175 C.3       2 UNK        -0.1800 
     64 N           2.0210  -14.1983  -47.5372 N.am      2 UNK        -0.5000 
     65 C           0.6841  -14.2770  -47.5032 C.2       1 UNK         0.5000 
     66 O           0.0272  -14.4905  -46.4849 O.2       1 UNK        -0.5000 
     67 C          -0.8511  -21.7575  -47.3373 C.2       11 UNK         0.5000 
     68 O          -0.7916  -22.5679  -48.2576 O.2       11 UNK        -0.5000 
     69 N          -1.9932  -21.4072  -46.7303 N.am      12 UNK        -0.5000 
     70 CA         -3.3166  -21.9177  -47.0877 C.3       12 UNK         0.1400 
     71 CB         -4.3919  -21.1283  -46.3272 C.3       12 UNK        -0.1800 
     72 C          -3.4779  -23.4303  -46.8581 C.2       12 UNK         0.5000 
     73 O          -4.1255  -24.0927  -47.6685 O.2       12 UNK        -0.5000 
     74 N          -2.8686  -23.9528  -45.7846 N.am      13 UNK        -0.5000 
     75 CA         -2.8206  -25.3818  -45.4720 C.3       13 UNK         0.1400 
     76 CB         -2.2675  -25.5819  -44.0529 C.3       13 UNK        -0.1800 
     77 C          -2.0007  -26.1853  -46.4990 C.2       13 UNK         0.5000 
     78 O          -2.4158  -27.2795  -46.8832 O.2       13 UNK        -0.5000 
     79 N          -0.8675  -25.6221  -46.9411 N.am      14 UNK        -0.5000 
     80 CA         -0.0306  -26.1792  -48.0058 C.3       14 UNK         0.1400 
     81 CB          1.3545  -25.5159  -47.9506 C.3       14 UNK        -0.1800 
     82 C          -0.6489  -26.0032  -49.4070 C.2       14 UNK         0.5000 
     83 O          -0.3750  -26.8079  -50.2982 O.2       14 UNK        -0.5000 
     84 N          -1.4296  -24.9292  -49.5830 N.am      15 UNK        -0.5000 
     85 CA         -2.0751  -24.4053  -50.7919 C.3       15 UNK         0.1400 
     86 CB         -3.0329  -25.4301  -51.4252 C.3       15 UNK        -0.1800 
     87 C          -1.0843  -23.8378  -51.8257 C.2       15 UNK         0.5000 
     88 O          -1.3585  -22.7917  -52.4125 O.2       15 UNK        -0.5000 
     89 N           0.0441  -24.5328  -52.0346 N.am      16 UNK        -0.5000 
     90 CA          1.2106  -24.1530  -52.8446 C.3       16 UNK         0.1400 
     91 CB          1.9250  -22.9511  -52.1928 C.3       16 UNK        -0.1800 
     92 C           0.9108  -23.8991  -54.3396 C.2       16 UNK         0.5000 
     93 O           1.7268  -23.2807  -55.0252 O.2       16 UNK        -0.5000 
     94 N          -0.2568  -24.3642  -54.8102 N.am      17 UNK        -0.5000 
     95 CA         -0.8603  -24.0950  -56.1197 C.3       17 UNK         0.1400 
     96 CB         -0.0553  -24.7778  -57.2456 C.3       17 UNK        -0.1800 
     97 C          -1.1053  -22.5889  -56.3749 C.2       17 UNK         0.5000 
     98 O          -1.0112  -22.1378  -57.5186 O.2       17 UNK        -0.5000 
     99 N          -1.4024  -21.8328  -55.3059 N.am      18 UNK        -0.5000 
    100 CA        -1.6751  -20.3967  -55.3484 C.3       18 UNK         0.1400 
    101 CB        -1.7750  -19.8595  -53.9117 C.3       18 UNK        -0.1800 
    102 C         -2.9586  -20.0680  -56.1328 C.2       18 UNK         0.5000 
    103 O         -3.9434  -20.8070  -56.0477 O.2       18 UNK        -0.5000 
    104 N         -2.9403  -18.9305  -56.8416 N.am      19 UNK        -0.5000 
    105 CA        -4.0423  -18.4245  -57.6707 C.3       19 UNK         0.1400 
    106 CB        -3.5481  -17.2017  -58.4592 C.3       19 UNK        -0.1800 
    107 C         -5.3227  -18.0770  -56.8829 C.2       19 UNK         0.5000 
    108 O         -6.3994  -17.9971  -57.4750 O.2       19 UNK        -0.5000 
    109 N         -5.1855  -17.9017  -55.5622 N.am      20 UNK        -0.5000 
    110 CA        -6.2761  -17.7149  -54.6077 C.3       20 UNK         0.1400 
    111 CB        -5.6693  -17.2694  -53.2680 C.3       20 UNK        -0.1800 
    112 C         -7.1411  -18.9754  -54.3965 C.2       20 UNK         0.5000 
    113 O         -8.2279  -18.8574  -53.8303 O.2       20 UNK        -0.5000 
    114 N         -6.6370  -20.1557  -54.7947 N.am      21 UNK        -0.5000 
    115 CA        -7.2129  -21.5048  -54.6632 C.3       21 UNK         0.1400 
    116 CB        -8.5813  -21.6085  -55.3636 C.3       21 UNK        -0.1800 
    117 C         -7.2795  -22.0417  -53.2171 C.2       21 UNK         0.5000 
    118 O         -7.1612  -23.2515  -53.0201 O.2       21 UNK        -0.5000 
    119 N         -7.4268  -21.1399  -52.2403 N.am      22 UNK        -0.5000 
    120 CA        -7.3276  -21.3633  -50.7879 C.3       22 UNK         0.1400 
    121 C         -8.5314  -22.1220  -50.1523 C.2       22 UNK         0.5000 
    122 N         -9.6403  -22.3141  -50.8560 N.am      22 UNK        -0.7600 
    123 O         -8.4766  -22.5148  -48.9901 O.2       22 UNK        -0.5000 
    124 C124       -5.9568  -21.9488  -50.3376 C.3       23 UNK        -0.0398 
    125 S125       -4.5076  -21.1510  -51.1128 S.3       23 UNK        -0.2404 
    126 C126       -4.3208  -19.6405  -50.1154 C.3       23 UNK        -0.0205 
    127 H127        0.9717  -10.2132  -50.9672 H         1 UNK         0.0600 
    128 H128        1.5074   -9.8741  -49.3177 H         1 UNK         0.0600 
    129 H129       -0.2077  -10.1249  -49.6560 H         1 UNK         0.0600 
    130 H130       -0.9000  -12.1311  -48.9712 H         1 UNK         0.3000 
    131 H131        0.5364  -14.5784  -49.6115 H         1 UNK         0.0600 
    132 H132       -1.4278  -15.7207  -48.6137 H         1 UNK         0.0800 
    133 H133       -2.0709  -14.1995  -48.0647 H         1 UNK         0.0800 
    134 H134       -0.5090  -15.3361  -51.6737 H         1 UNK         0.0800 
    135 H135       -2.0219  -15.5860  -52.5029 H         1 UNK         0.0800 
    136 H136       -3.7815  -17.0961  -50.9818 H         1 UNK         0.1150 
    137 H137       -1.8596  -20.7341  -49.8005 H         1 UNK         0.1150 
    138 H138        0.4999  -17.3485  -50.9399 H         1 UNK         0.1150 
    139 H139        0.4875  -21.0030  -50.0216 H         1 UNK         0.0800 
    140 H140        1.3450  -19.8567  -51.0092 H         1 UNK         0.0800 
    141 H141       -0.3917  -19.1815  -47.4933 H         1 UNK         0.0800 
    142 H142        0.9855  -19.0315  -46.4687 H         1 UNK         0.0800 
    143 H143        1.2787  -21.6944  -47.2174 H         1 UNK         0.0600 
    144 H144        0.6278  -20.4188  -44.8077 H         1 UNK         0.3000 
    145 H145        0.0790  -23.3266  -42.7908 H         1 UNK         0.0600 
    146 H146        1.8000  -22.1441  -41.4412 H         1 UNK         0.0600 
    147 H147        2.5291  -22.9629  -42.8150 H         1 UNK         0.0600 
    148 H148        2.3036  -21.2208  -42.8541 H         1 UNK         0.0600 
    149 H149       -0.0494  -20.5419  -42.1871 H         1 UNK         0.3000 
    150 H150       -3.5108  -20.0875  -43.0557 H         1 UNK         0.0600 
    151 H151       -3.4438  -21.0109  -40.7364 H         1 UNK         0.0600 
    152 H152       -3.5276  -19.2557  -40.7250 H         1 UNK         0.0600 
    153 H153       -2.0005  -20.0670  -40.3888 H         1 UNK         0.0600 
    154 H154       -1.6143  -18.2382  -42.0589 H         1 UNK         0.3000 
    155 H155       -0.2608  -17.1681  -45.2125 H         1 UNK         0.0600 
    156 H156       -2.2850  -15.8432  -44.8672 H         1 UNK         0.0600 
    157 H157       -0.9585  -15.0187  -44.0634 H         1 UNK         0.0600 
    158 H158       -2.1300  -15.9326  -43.1195 H         1 UNK         0.0600 
    159 H159        0.4082  -16.3770  -42.5936 H         1 UNK         0.3000 
    160 H160        2.8411  -18.9081  -41.8613 H         1 UNK         0.0600 
    161 H161        3.1032  -15.9249  -42.5098 H         1 UNK         0.0600 
    162 H162        4.0788  -17.2350  -43.1682 H         1 UNK         0.0600 
    163 H163        4.1846  -16.8397  -41.4623 H         1 UNK         0.0600 
    164 H164        1.7713  -16.5998  -40.4790 H         1 UNK         0.3000 
    165 H165       -0.7222  -18.3768  -38.6691 H         1 UNK         0.0600 
    166 H166        0.5360  -17.4267  -36.7544 H         1 UNK         0.0600 
    167 H167        1.3952  -18.8089  -37.4150 H         1 UNK         0.0600 
    168 H168        1.9561  -17.1794  -37.7709 H         1 UNK         0.0600 
    169 H169        0.1988  -15.6553  -38.6330 H         1 UNK         0.3000 
    170 H170       -1.9391  -14.4446  -41.2146 H         1 UNK         0.0600 
    171 H171       -3.4283  -14.6091  -39.2134 H         1 UNK         0.0600 
    172 H172       -2.1082  -14.0813  -38.1766 H         1 UNK         0.0600 
    173 H173       -2.7699  -12.9917  -39.3960 H         1 UNK         0.0600 
    174 H174       -0.2540  -13.0183  -39.4756 H         1 UNK         0.3000 
    175 H175        1.4935  -11.8995  -40.5943 H         1 UNK         0.0600 
    176 H176        3.2600  -14.3264  -39.8950 H         1 UNK         0.0600 
    177 H177        3.6381  -12.6478  -39.5159 H         1 UNK         0.0600 
    178 H178        2.2676  -13.4307  -38.7492 H         1 UNK         0.0600 
    179 H179        2.6264  -13.6025  -42.6725 H         1 UNK         0.3000 
    180 H180        4.0533  -10.9317  -44.3223 H         1 UNK         0.0600 
    181 H181        5.9854  -12.7734  -42.8178 H         1 UNK         0.0600 
    182 H182        6.0315  -11.0149  -42.8188 H         1 UNK         0.0600 
    183 H183        6.3445  -11.8942  -44.3048 H         1 UNK         0.0600 
    184 H184        4.5398  -13.7966  -44.4804 H         1 UNK         0.3000 
    185 H185        3.9514  -14.3341  -46.8825 H         1 UNK         0.0600 
    186 H186        3.6424  -15.8040  -45.0045 H         1 UNK         0.0600 
    187 H187        1.9072  -15.5276  -44.9517 H         1 UNK         0.0600 
    188 H188        2.6218  -16.4507  -46.2737 H         1 UNK         0.0600 
    189 H189        2.4284  -13.9042  -48.4181 H         1 UNK         0.3000 
    190 H190       -1.9596  -20.6991  -46.0000 H         1 UNK         0.3000 
    191 H191       -3.4526  -21.7457  -48.1557 H         1 UNK         0.0600 
    192 H192       -4.3003  -21.2631  -45.2491 H         1 UNK         0.0600 
    193 H193       -5.3925  -21.4522  -46.6162 H         1 UNK         0.0600 
    194 H194       -4.3205  -20.0607  -46.5361 H         1 UNK         0.0600 
    195 H195       -2.4221  -23.3247  -45.1228 H         1 UNK         0.3000 
    196 H196       -3.8437  -25.7629  -45.4925 H         1 UNK         0.0600 
    197 H197       -2.2474  -26.6394  -43.7872 H         1 UNK         0.0600 
    198 H198       -2.8858  -25.0723  -43.3136 H         1 UNK         0.0600 
    199 H199       -1.2509  -25.2001  -43.9583 H         1 UNK         0.0600 
    200 H200       -0.5656  -24.7421  -46.5352 H         1 UNK         0.3000 
    201 H201        0.0951  -27.2492  -47.8278 H         1 UNK         0.0600 
    202 H202        1.8313  -25.6796  -46.9840 H         1 UNK         0.0600 
    203 H203        1.2918  -24.4390  -48.1128 H         1 UNK         0.0600 
    204 H204        2.0162  -25.9257  -48.7146 H         1 UNK         0.0600 
    205 H205       -1.4525  -24.2735  -48.8073 H         1 UNK         0.3000 
    206 H206       -2.6787  -23.5635  -50.4490 H         1 UNK         0.0600 
    207 H207       -3.7616  -25.7858  -50.6967 H         1 UNK         0.0600 
    208 H208       -3.5898  -24.9798  -52.2480 H         1 UNK         0.0600 
    209 H209       -2.5040  -26.2959  -51.8238 H         1 UNK         0.0600 
    210 H210        0.1259  -25.4123  -51.5322 H         1 UNK         0.3000 
    211 H211        1.8920  -25.0040  -52.8120 H         1 UNK         0.0600 
    212 H212        1.3305  -22.0410  -52.2776 H         1 UNK         0.0600 
    213 H213        2.8871  -22.7583  -52.6686 H         1 UNK         0.0600 
    214 H214        2.1173  -23.1295  -51.1347 H         1 UNK         0.0600 
    215 H215       -0.8457  -24.8547  -54.1528 H         1 UNK         0.3000 
    216 H216       -1.8483  -24.5570  -56.0979 H         1 UNK         0.0600 
    217 H217       -0.5794  -24.7068  -58.1993 H         1 UNK         0.0600 
    218 H218        0.0932  -25.8373  -57.0374 H         1 UNK         0.0600 
    219 H219        0.9257  -24.3209  -57.3780 H         1 UNK         0.0600 
    220 H220       -1.4532  -22.2683  -54.3903 H         1 UNK         0.3000 
    221 H221       -0.8283  -19.9133  -55.8399 H         1 UNK         0.0600 
    222 H222       -2.6003  -20.3204  -53.3676 H         1 UNK         0.0600 
    223 H223       -0.8608  -20.0553  -53.3507 H         1 UNK         0.0600 
    224 H224       -1.9368  -18.7810  -53.8997 H         1 UNK         0.0600 
    225 H225       -2.0965  -18.3753  -56.8446 H         1 UNK         0.3000 
    226 H226       -4.3068  -19.2080  -58.3837 H         1 UNK         0.0600 
    227 H227       -3.2455  -16.3909  -57.7955 H         1 UNK         0.0600 
    228 H228       -2.6966  -17.4562  -59.0906 H         1 UNK         0.0600 
    229 H229       -4.3306  -16.8152  -59.1138 H         1 UNK         0.0600 
    230 H230       -4.2575  -17.9769  -55.1740 H         1 UNK         0.3000 
    231 H231       -6.9284  -16.9217  -54.9784 H         1 UNK         0.0600 
    232 H232       -6.4469  -17.0738  -52.5284 H         1 UNK         0.0600 
    233 H233       -5.0894  -16.3528  -53.3781 H         1 UNK         0.0600 
    234 H234       -5.0122  -18.0373  -52.8578 H         1 UNK         0.0600 
    235 H235       -5.7118  -20.1482  -55.2118 H         1 UNK         0.3000 
    236 H236       -6.5239  -22.1604  -55.1982 H         1 UNK         0.0600 
    237 H237       -8.9318  -22.6412  -55.3763 H         1 UNK         0.0600 
    238 H238       -9.3453  -21.0144  -54.8621 H         1 UNK         0.0600 
    239 H239       -8.5201  -21.2734  -56.3990 H         1 UNK         0.0600 
    240 H240       -7.5994  -20.1835  -52.5293 H         1 UNK         0.3000 
    241 H241       -7.3906  -20.3633  -50.3582 H         1 UNK         0.0600 
    242 H242       -9.7017  -21.9901  -51.8081 H         1 UNK         0.3800 
    243 H243      -10.4201  -22.7952  -50.4361 H         1 UNK         0.3800 
    244 H244       -5.8512  -21.8877  -49.2535 H         1 UNK         0.0800 
    245 H245       -5.9080  -23.0119  -50.5788 H         1 UNK         0.0800 
    246 H246       -4.4227  -19.8686  -49.0556 H         1 UNK         0.0800 
    247 H247       -5.1323  -18.9548  -50.3630 H         1 UNK         0.0800 
@<TRIPOS>BOND
     1    1    2 1    
     2    1  127 1    
     3    1  128 1    
     4    1  129 1    
     5    2    3 2    
     6    2    4 am   BACKBONE|DICT|INTERRES
     7    4    5 1    
     8    4  130 1    
     9    5    6 1    
    10    5   65 1    
    11    5  131 1    
    12    6    7 1    
    13    6  132 1    
    14    6  133 1    
    15    7    8 1    
    16    8    9 1    
    17    8  134 1    
    18    8  135 1    
    19    9   10 ar   
    20    9   14 ar   
    21   10   11 ar   
    22   10  136 1    
    23   11   12 ar   
    24   11  126 1    
    25   12   13 ar   
    26   12  137 1    
    27   13   14 ar   
    28   13   15 1    
    29   14  138 1    
    30   15   16 1    
    31   15  139 1    
    32   15  140 1    
    33   16   17 1    
    34   17   18 1    
    35   17  141 1    
    36   17  142 1    
    37   18   19 1    
    38   18   67 1    
    39   18  143 1    
    40   19   20 am   BACKBONE|DICT|INTERRES
    41   19  144 1    
    42   20   21 2    
    43   20   22 1    
    44   22   23 1    
    45   22   24 1    
    46   22  145 1    
    47   23  146 1    
    48   23  147 1    
    49   23  148 1    
    50   24   25 am   BACKBONE|DICT|INTERRES
    51   24  149 1    
    52   25   26 2    
    53   25   27 1    
    54   27   28 1    
    55   27   29 1    
    56   27  150 1    
    57   28  151 1    
    58   28  152 1    
    59   28  153 1    
    60   29   30 am   BACKBONE|DICT|INTERRES
    61   29  154 1    
    62   30   31 2    
    63   30   32 1    
    64   32   33 1    
    65   32   34 1    
    66   32  155 1    
    67   33  156 1    
    68   33  157 1    
    69   33  158 1    
    70   34   35 am   BACKBONE|DICT|INTERRES
    71   34  159 1    
    72   35   36 2    
    73   35   37 1    
    74   37   38 1    
    75   37   39 1    
    76   37  160 1    
    77   38  161 1    
    78   38  162 1    
    79   38  163 1    
    80   39   40 am   BACKBONE|DICT|INTERRES
    81   39  164 1    
    82   40   41 2    
    83   40   42 1    
    84   42   43 1    
    85   42   44 1    
    86   42  165 1    
    87   43  166 1    
    88   43  167 1    
    89   43  168 1    
    90   44   45 am   BACKBONE|DICT|INTERRES
    91   44  169 1    
    92   45   46 2    
    93   45   47 1    
    94   47   48 1    
    95   47   49 1    
    96   47  170 1    
    97   48  171 1    
    98   48  172 1    
    99   48  173 1    
   100   49   50 am   BACKBONE|DICT|INTERRES
   101   49  174 1    
   102   50   51 2    
   103   50   52 1    
   104   52   53 1    
   105   52   54 1    
   106   52  175 1    
   107   53  176 1    
   108   53  177 1    
   109   53  178 1    
   110   54   55 am   BACKBONE|DICT|INTERRES
   111   54  179 1    
   112   55   56 2    
   113   55   57 1    
   114   57   58 1    
   115   57   59 1    
   116   57  180 1    
   117   58  181 1    
   118   58  182 1    
   119   58  183 1    
   120   59   60 am   BACKBONE|DICT|INTERRES
   121   59  184 1    
   122   60   61 2    
   123   60   62 1    
   124   62   63 1    
   125   62   64 1    
   126   62  185 1    
   127   63  186 1    
   128   63  187 1    
   129   63  188 1    
   130   64   65 am   BACKBONE|DICT|INTERRES
   131   64  189 1    
   132   65   66 2    
   133   67   68 2    
   134   67   69 am   BACKBONE|DICT|INTERRES
   135   69   70 1    
   136   69  190 1    
   137   70   71 1    
   138   70   72 1    
   139   70  191 1    
   140   71  192 1    
   141   71  193 1    
   142   71  194 1    
   143   72   73 2    
   144   72   74 am   BACKBONE|DICT|INTERRES
   145   74   75 1    
   146   74  195 1    
   147   75   76 1    
   148   75   77 1    
   149   75  196 1    
   150   76  197 1    
   151   76  198 1    
   152   76  199 1    
   153   77   78 2    
   154   77   79 am   BACKBONE|DICT|INTERRES
   155   79   80 1    
   156   79  200 1    
   157   80   81 1    
   158   80   82 1    
   159   80  201 1    
   160   81  202 1    
   161   81  203 1    
   162   81  204 1    
   163   82   83 2    
   164   82   84 am   BACKBONE|DICT|INTERRES
   165   84   85 1    
   166   84  205 1    
   167   85   86 1    
   168   85   87 1    
   169   85  206 1    
   170   86  207 1    
   171   86  208 1    
   172   86  209 1    
   173   87   88 2    
   174   87   89 am   BACKBONE|DICT|INTERRES
   175   89   90 1    
   176   89  210 1    
   177   90   91 1    
   178   90   92 1    
   179   90  211 1    
   180   91  212 1    
   181   91  213 1    
   182   91  214 1    
   183   92   93 2    
   184   92   94 am   BACKBONE|DICT|INTERRES
   185   94   95 1    
   186   94  215 1    
   187   95   96 1    
   188   95   97 1    
   189   95  216 1    
   190   96  217 1    
   191   96  218 1    
   192   96  219 1    
   193   97   98 2    
   194   97   99 am   BACKBONE|DICT|INTERRES
   195   99  100 1    
   196   99  220 1    
   197  100  101 1    
   198  100  102 1    
   199  100  221 1    
   200  101  222 1    
   201  101  223 1    
   202  101  224 1    
   203  102  103 2    
   204  102  104 am   BACKBONE|DICT|INTERRES
   205  104  105 1    
   206  104  225 1    
   207  105  106 1    
   208  105  107 1    
   209  105  226 1    
   210  106  227 1    
   211  106  228 1    
   212  106  229 1    
   213  107  108 2    
   214  107  109 am   BACKBONE|DICT|INTERRES
   215  109  110 1    
   216  109  230 1    
   217  110  111 1    
   218  110  112 1    
   219  110  231 1    
   220  111  232 1    
   221  111  233 1    
   222  111  234 1    
   223  112  113 2    
   224  112  114 am   BACKBONE|DICT|INTERRES
   225  114  115 1    
   226  114  235 1    
   227  115  116 1    
   228  115  117 1    
   229  115  236 1    
   230  116  237 1    
   231  116  238 1    
   232  116  239 1    
   233  117  118 2    
   234  117  119 am   BACKBONE|DICT|INTERRES
   235  119  120 1    
   236  119  240 1    
   237  120  121 1    
   238  120  124 1    
   239  120  241 1    
   240  121  122 am   BACKBONE|DICT|INTERRES
   241  121  123 2    
   242  122  242 1    
   243  122  243 1    
   244  124  125 1    
   245  124  244 1    
   246  124  245 1    
   247  125  126 1    
   248  126  246 1    
   249  126  247 1    
@<TRIPOS>SUBSTRUCTURE
     1 UNK         1 GROUP             0       ****    0 ROOT    
