@<TRIPOS>MOLECULE
3R540
247   249    1
SMALL
USER_CHARGES


@<TRIPOS>ATOM
      1 CA          0.8692  -11.3125  -51.0092 C.3       0 UNK        -0.1800 
      2 C           0.6890  -11.8599  -49.6005 C.2       0 UNK         0.5000 
      3 O           0.2054  -11.1435  -48.7244 O.2       0 UNK        -0.5000 
      4 N           1.0849  -13.1226  -49.3856 N.am      1 UNK        -0.5000 
      5 CA          0.9696  -13.8759  -48.1256 C.3       1 UNK         0.1400 
      6 C6         -0.4961  -14.1146  -47.6618 C.3       23 UNK        -0.0398 
      7 S7         -1.6040  -14.7673  -48.9578 S.3       23 UNK        -0.2404 
      8 C8         -1.2447  -16.5555  -48.9240 C.3       23 UNK        -0.0205 
      9 C9         -0.0631  -16.9591  -49.8011 C.ar      23 UNK        -0.0193 
     10 C10         0.0494  -16.4868  -51.1131 C.ar      23 UNK        -0.1150 
     11 C11         1.1058  -16.8946  -51.9314 C.ar      23 UNK        -0.0193 
     12 C12         2.0466  -17.8013  -51.4376 C.ar      23 UNK        -0.1150 
     13 C13         1.9463  -18.2893  -50.1313 C.ar      23 UNK        -0.0193 
     14 C14         0.8954  -17.8538  -49.3158 C.ar      23 UNK        -0.1150 
     15 C15         2.9881  -19.2702  -49.6088 C.3       23 UNK        -0.0205 
     16 S16         2.3452  -20.9734  -49.4977 S.3       23 UNK        -0.2404 
     17 C17         1.9260  -21.0464  -47.7246 C.3       23 UNK        -0.0398 
     18 CA          0.8883  -22.1164  -47.3155 C.3       11 UNK         0.1400 
     19 N           0.7449  -22.1578  -45.8581 N.am      11 UNK        -0.5000 
     20 C           0.0434  -23.0647  -45.1662 C.2       10 UNK         0.5000 
     21 O          -0.5155  -24.0330  -45.6796 O.2       10 UNK        -0.5000 
     22 CA         -0.1004  -22.8152  -43.6523 C.3       10 UNK         0.1400 
     23 CB          1.1427  -23.3012  -42.8929 C.3       10 UNK        -0.1800 
     24 N          -0.3497  -21.4056  -43.3401 N.am      10 UNK        -0.5000 
     25 C          -1.4499  -20.7337  -43.7107 C.2       9 UNK         0.5000 
     26 O          -2.4015  -21.2556  -44.2912 O.2       9 UNK        -0.5000 
     27 CA         -1.4646  -19.2162  -43.4436 C.3       9 UNK         0.1400 
     28 CB         -1.8559  -18.9110  -41.9903 C.3       9 UNK        -0.1800 
     29 N          -0.1802  -18.5867  -43.7542 N.am      9 UNK        -0.5000 
     30 C           0.3477  -18.5175  -44.9835 C.2       8 UNK         0.5000 
     31 O          -0.2353  -18.9017  -45.9944 O.2       8 UNK        -0.5000 
     32 CA          1.7849  -17.9847  -45.1076 C.3       8 UNK         0.1400 
     33 CB          1.7981  -16.4621  -45.2523 C.3       8 UNK        -0.1800 
     34 N           2.6255  -18.3938  -43.9853 N.am      8 UNK        -0.5000 
     35 C           3.0653  -19.6463  -43.8010 C.2       7 UNK         0.5000 
     36 O           2.8343  -20.5696  -44.5806 O.2       7 UNK        -0.5000 
     37 CA          3.8555  -19.9203  -42.5090 C.3       7 UNK         0.1400 
     38 CB          5.3409  -19.5819  -42.7020 C.3       7 UNK        -0.1800 
     39 N           3.3305  -19.1693  -41.3682 N.am      7 UNK        -0.5000 
     40 C           2.1246  -19.3736  -40.8191 C.2       6 UNK         0.5000 
     41 O           1.3524  -20.2622  -41.1794 O.2       6 UNK        -0.5000 
     42 CA          1.6904  -18.3766  -39.7277 C.3       6 UNK         0.1400 
     43 CB          2.2035  -18.8232  -38.3509 C.3       6 UNK        -0.1800 
     44 N           2.1403  -17.0059  -39.9971 N.am      6 UNK        -0.5000 
     45 C           1.7339  -16.2712  -41.0410 C.2       5 UNK         0.5000 
     46 O           0.9371  -16.6781  -41.8884 O.2       5 UNK        -0.5000 
     47 CA          2.3797  -14.8836  -41.2038 C.3       5 UNK         0.1400 
     48 CB          3.6657  -14.9875  -42.0395 C.3       5 UNK        -0.1800 
     49 N           1.4775  -13.9279  -41.8477 N.am      5 UNK        -0.5000 
     50 C           0.4046  -13.3828  -41.2572 C.2       4 UNK         0.5000 
     51 O           0.0741  -13.6281  -40.0953 O.2       4 UNK        -0.5000 
     52 CA         -0.3814  -12.3494  -42.0870 C.3       4 UNK         0.1400 
     53 CB         -1.3819  -11.5365  -41.2363 C.3       4 UNK        -0.1800 
     54 N           0.5648  -11.4630  -42.7647 N.am      4 UNK        -0.5000 
     55 C           0.2899  -10.6283  -43.7741 C.2       3 UNK         0.5000 
     56 O          -0.8271  -10.4812  -44.2704 O.2       3 UNK        -0.5000 
     57 CA          1.4922   -9.8791  -44.3611 C.3       3 UNK         0.1400 
     58 CB          2.2893   -9.1125  -43.2847 C.3       3 UNK        -0.1800 
     59 N           2.3154  -10.8712  -45.0378 N.am      3 UNK        -0.5000 
     60 C           3.3467  -10.6610  -45.8575 C.2       2 UNK         0.5000 
     61 O           3.8163   -9.5506  -46.1083 O.2       2 UNK        -0.5000 
     62 CA          3.9354  -11.9138  -46.5385 C.3       2 UNK         0.1400 
     63 CB          4.6198  -12.8483  -45.5196 C.3       2 UNK        -0.1800 
     64 N           2.9626  -12.6398  -47.3689 N.am      2 UNK        -0.5000 
     65 C           1.8441  -13.2818  -46.9933 C.2       1 UNK         0.5000 
     66 O           1.4934  -13.4028  -45.8168 O.2       1 UNK        -0.5000 
     67 C          -0.4771  -21.9348  -48.0162 C.2       11 UNK         0.5000 
     68 O          -0.7721  -22.6753  -48.9520 O.2       11 UNK        -0.5000 
     69 N          -1.3106  -21.0079  -47.5197 N.am      12 UNK        -0.5000 
     70 CA         -2.6779  -20.7790  -47.9924 C.3       12 UNK         0.1400 
     71 CB         -3.2754  -19.5462  -47.2992 C.3       12 UNK        -0.1800 
     72 C          -3.5898  -22.0034  -47.7967 C.2       12 UNK         0.5000 
     73 O          -4.3461  -22.3441  -48.7058 O.2       12 UNK        -0.5000 
     74 N          -3.4781  -22.6655  -46.6361 N.am      13 UNK        -0.5000 
     75 CA         -4.1730  -23.9160  -46.3287 C.3       13 UNK         0.1400 
     76 CB         -3.9473  -24.2971  -44.8580 C.3       13 UNK        -0.1800 
     77 C          -3.7631  -25.0588  -47.2757 C.2       13 UNK         0.5000 
     78 O          -4.6392  -25.7211  -47.8344 O.2       13 UNK        -0.5000 
     79 N          -2.4472  -25.2250  -47.4811 N.am      14 UNK        -0.5000 
     80 CA         -1.8511  -26.1838  -48.4160 C.3       14 UNK         0.1400 
     81 CB         -0.3240  -26.1825  -48.2519 C.3       14 UNK        -0.1800 
     82 C          -2.2447  -25.9265  -49.8835 C.2       14 UNK         0.5000 
     83 O          -2.4606  -26.8812  -50.6301 O.2       14 UNK        -0.5000 
     84 N          -2.4109  -24.6498  -50.2516 N.am      15 UNK        -0.5000 
     85 CA         -2.9380  -24.1547  -51.5271 C.3       15 UNK         0.1400 
     86 CB         -2.5114  -22.6831  -51.6824 C.3       15 UNK        -0.1800 
     87 C          -4.4682  -24.3435  -51.6775 C.2       15 UNK         0.5000 
     88 O          -5.1411  -23.4884  -52.2573 O.2       15 UNK        -0.5000 
     89 N          -4.9946  -25.4584  -51.1498 N.am      16 UNK        -0.5000 
     90 CA         -6.3942  -25.8906  -51.1456 C.3       16 UNK         0.1400 
     91 CB         -6.8244  -26.2992  -52.5700 C.3       16 UNK        -0.1800 
     92 C          -7.3402  -24.8558  -50.5035 C.2       16 UNK         0.5000 
     93 O          -8.3950  -24.5595  -51.0636 O.2       16 UNK        -0.5000 
     94 N          -6.9241  -24.2867  -49.3615 N.am      17 UNK        -0.5000 
     95 CA         -7.5835  -23.1760  -48.6565 C.3       17 UNK         0.1400 
     96 CB         -8.9086  -23.6410  -48.0185 C.3       17 UNK        -0.1800 
     97 C          -7.7421  -21.9292  -49.5569 C.2       17 UNK         0.5000 
     98 O          -8.8101  -21.3172  -49.6071 O.2       17 UNK        -0.5000 
     99 N          -6.6593  -21.6187  -50.2804 N.am      18 UNK        -0.5000 
    100 CA        -6.4909  -20.5700  -51.2869 C.3       18 UNK         0.1400 
    101 CB        -6.6744  -19.1707  -50.6656 C.3       18 UNK        -0.1800 
    102 C         -7.3183  -20.7621  -52.5778 C.2       18 UNK         0.5000 
    103 O         -7.3642  -19.8409  -53.3939 O.2       18 UNK        -0.5000 
    104 N         -7.9224  -21.9425  -52.7883 N.am      19 UNK        -0.5000 
    105 CA        -8.6132  -22.2879  -54.0367 C.3       19 UNK         0.1400 
    106 CB        -9.5638  -23.4707  -53.8045 C.3       19 UNK        -0.1800 
    107 C         -7.6345  -22.6000  -55.1863 C.2       19 UNK         0.5000 
    108 O         -7.9942  -22.4230  -56.3506 O.2       19 UNK        -0.5000 
    109 N         -6.4144  -23.0286  -54.8419 N.am      20 UNK        -0.5000 
    110 CA        -5.2917  -23.2485  -55.7494 C.3       20 UNK         0.1400 
    111 CB        -4.9124  -24.7407  -55.7223 C.3       20 UNK        -0.1800 
    112 C         -4.1424  -22.3252  -55.3090 C.2       20 UNK         0.5000 
    113 O         -3.0292  -22.7959  -55.0636 O.2       20 UNK        -0.5000 
    114 N         -4.4777  -21.0325  -55.1590 N.am      21 UNK        -0.5000 
    115 CA        -3.6905  -19.9529  -54.5560 C.3       21 UNK         0.1400 
    116 CB        -4.3292  -18.6019  -54.9148 C.3       21 UNK        -0.1800 
    117 C         -2.1977  -19.9460  -54.9295 C.2       21 UNK         0.5000 
    118 O         -1.8563  -20.0080  -56.1127 O.2       21 UNK        -0.5000 
    119 N         -1.3556  -19.8633  -53.8941 N.am      22 UNK        -0.5000 
    120 CA         0.1160  -19.8768  -53.9449 C.3       22 UNK         0.1400 
    121 C          0.7477  -21.2586  -54.2990 C.2       22 UNK         0.5000 
    122 N         -0.0185  -22.3234  -54.5116 N.am      22 UNK        -0.7600 
    123 O          1.9686  -21.3771  -54.3551 O.2       22 UNK        -0.5000 
    124 C124        0.7328  -18.7290  -54.7984 C.3       23 UNK        -0.0398 
    125 S125        0.0181  -17.0763  -54.4760 S.3       23 UNK        -0.2404 
    126 C126        1.2336  -16.3393  -53.3413 C.3       23 UNK        -0.0205 
    127 H127        1.5262  -10.4429  -50.9930 H         1 UNK         0.0600 
    128 H128       -0.0938  -11.0063  -51.4178 H         1 UNK         0.0600 
    129 H129        1.3022  -12.0542  -51.6811 H         1 UNK         0.0600 
    130 H130        1.4650  -13.6488  -50.1599 H         1 UNK         0.3000 
    131 H131        1.4024  -14.8550  -48.3341 H         1 UNK         0.0600 
    132 H132       -0.5297  -14.7929  -46.8085 H         1 UNK         0.0800 
    133 H133       -0.9313  -13.1789  -47.3070 H         1 UNK         0.0800 
    134 H134       -1.0933  -16.8760  -47.8921 H         1 UNK         0.0800 
    135 H135       -2.1256  -17.0874  -49.2850 H         1 UNK         0.0800 
    136 H136       -0.6897  -15.8015  -51.5036 H         1 UNK         0.1150 
    137 H137        2.8603  -18.1253  -52.0713 H         1 UNK         0.1150 
    138 H138        0.8085  -18.2226  -48.3063 H         1 UNK         0.1150 
    139 H139        3.8576  -19.2789  -50.2679 H         1 UNK         0.0800 
    140 H140        3.3574  -18.9353  -48.6384 H         1 UNK         0.0800 
    141 H141        1.5811  -20.0683  -47.4058 H         1 UNK         0.0800 
    142 H142        2.8587  -21.2228  -47.1871 H         1 UNK         0.0800 
    143 H143        1.2795  -23.0887  -47.6218 H         1 UNK         0.0600 
    144 H144        1.2333  -21.4344  -45.3402 H         1 UNK         0.3000 
    145 H145       -0.9584  -23.3920  -43.3009 H         1 UNK         0.0600 
    146 H146        1.0189  -23.1792  -41.8166 H         1 UNK         0.0600 
    147 H147        1.3259  -24.3595  -43.0824 H         1 UNK         0.0600 
    148 H148        2.0381  -22.7548  -43.1890 H         1 UNK         0.0600 
    149 H149        0.3649  -20.9184  -42.8088 H         1 UNK         0.3000 
    150 H150       -2.2189  -18.7714  -44.0958 H         1 UNK         0.0600 
    151 H151       -2.8427  -19.3149  -41.7612 H         1 UNK         0.0600 
    152 H152       -1.8924  -17.8365  -41.8093 H         1 UNK         0.0600 
    153 H153       -1.1524  -19.3453  -41.2807 H         1 UNK         0.0600 
    154 H154        0.3273  -18.1652  -42.9822 H         1 UNK         0.3000 
    155 H155        2.2210  -18.3966  -46.0185 H         1 UNK         0.0600 
    156 H156        1.3389  -15.9609  -44.4003 H         1 UNK         0.0600 
    157 H157        2.8126  -16.0800  -45.3660 H         1 UNK         0.0600 
    158 H158        1.2420  -16.1705  -46.1416 H         1 UNK         0.0600 
    159 H159        2.8071  -17.7025  -43.2744 H         1 UNK         0.3000 
    160 H160        3.7718  -20.9860  -42.2854 H         1 UNK         0.0600 
    161 H161        5.4910  -18.5212  -42.9077 H         1 UNK         0.0600 
    162 H162        5.7625  -20.1416  -43.5381 H         1 UNK         0.0600 
    163 H163        5.9217  -19.8378  -41.8156 H         1 UNK         0.0600 
    164 H164        3.9058  -18.4236  -41.0060 H         1 UNK         0.3000 
    165 H165        0.5988  -18.3726  -39.6997 H         1 UNK         0.0600 
    166 H166        1.8329  -18.1695  -37.5611 H         1 UNK         0.0600 
    167 H167        1.8664  -19.8344  -38.1185 H         1 UNK         0.0600 
    168 H168        3.2932  -18.8218  -38.3053 H         1 UNK         0.0600 
    169 H169        2.8020  -16.6115  -39.3438 H         1 UNK         0.3000 
    170 H170        2.6387  -14.5012  -40.2141 H         1 UNK         0.0600 
    171 H171        3.4650  -15.3404  -43.0510 H         1 UNK         0.0600 
    172 H172        4.1625  -14.0202  -42.1178 H         1 UNK         0.0600 
    173 H173        4.3768  -15.6785  -41.5851 H         1 UNK         0.0600 
    174 H174        1.6445  -13.7368  -42.8250 H         1 UNK         0.3000 
    175 H175       -0.9376  -12.9073  -42.8430 H         1 UNK         0.0600 
    176 H176       -1.9722  -10.8554  -41.8487 H         1 UNK         0.0600 
    177 H177       -0.8704  -10.9447  -40.4765 H         1 UNK         0.0600 
    178 H178       -2.0869  -12.1931  -40.7250 H         1 UNK         0.0600 
    179 H179        1.5162  -11.5125  -42.4265 H         1 UNK         0.3000 
    180 H180        1.1202   -9.1683  -45.1017 H         1 UNK         0.0600 
    181 H181        2.8057   -9.7850  -42.5993 H         1 UNK         0.0600 
    182 H182        1.6311   -8.4762  -42.6918 H         1 UNK         0.0600 
    183 H183        3.0392   -8.4631  -43.7359 H         1 UNK         0.0600 
    184 H184        1.9567  -11.8241  -45.0067 H         1 UNK         0.3000 
    185 H185        4.7080  -11.5635  -47.2247 H         1 UNK         0.0600 
    186 H186        5.3962  -12.3170  -44.9680 H         1 UNK         0.0600 
    187 H187        3.9197  -13.2490  -44.7865 H         1 UNK         0.0600 
    188 H188        5.0961  -13.6917  -46.0193 H         1 UNK         0.0600 
    189 H189        3.1290  -12.5761  -48.3634 H         1 UNK         0.3000 
    190 H190       -0.9781  -20.3914  -46.7821 H         1 UNK         0.3000 
    191 H191       -2.6232  -20.5680  -49.0617 H         1 UNK         0.0600 
    192 H192       -2.6524  -18.6666  -47.4501 H         1 UNK         0.0600 
    193 H193       -4.2649  -19.3178  -47.6970 H         1 UNK         0.0600 
    194 H194       -3.3807  -19.6960  -46.2251 H         1 UNK         0.0600 
    195 H195       -2.8740  -22.2857  -45.9133 H         1 UNK         0.3000 
    196 H196       -5.2414  -23.7420  -46.4625 H         1 UNK         0.0600 
    197 H197       -4.4976  -25.2034  -44.6025 H         1 UNK         0.0600 
    198 H198       -4.2920  -23.5075  -44.1900 H         1 UNK         0.0600 
    199 H199       -2.8959  -24.4811  -44.6407 H         1 UNK         0.0600 
    200 H200       -1.7969  -24.6490  -46.9521 H         1 UNK         0.3000 
    201 H201       -2.2200  -27.1755  -48.1468 H         1 UNK         0.0600 
    202 H202       -0.0370  -26.4368  -47.2315 H         1 UNK         0.0600 
    203 H203        0.1054  -25.2085  -48.4866 H         1 UNK         0.0600 
    204 H204        0.1409  -26.9146  -48.9133 H         1 UNK         0.0600 
    205 H205       -2.1470  -23.9323  -49.5831 H         1 UNK         0.3000 
    206 H206       -2.4735  -24.7230  -52.3349 H         1 UNK         0.0600 
    207 H207       -1.4258  -22.5836  -51.6706 H         1 UNK         0.0600 
    208 H208       -2.8614  -22.2581  -52.6185 H         1 UNK         0.0600 
    209 H209       -2.9139  -22.0628  -50.8844 H         1 UNK         0.0600 
    210 H210       -4.3423  -26.0984  -50.7117 H         1 UNK         0.3000 
    211 H211       -6.4418  -26.7795  -50.5151 H         1 UNK         0.0600 
    212 H212       -6.8175  -25.4506  -53.2539 H         1 UNK         0.0600 
    213 H213       -7.8329  -26.7143  -52.5724 H         1 UNK         0.0600 
    214 H214       -6.1601  -27.0606  -52.9785 H         1 UNK         0.0600 
    215 H215       -6.0362  -24.5929  -48.9782 H         1 UNK         0.3000 
    216 H216       -6.9180  -22.8792  -47.8464 H         1 UNK         0.0600 
    217 H217       -9.3409  -22.8530  -47.4008 H         1 UNK         0.0600 
    218 H218       -8.7529  -24.5077  -47.3762 H         1 UNK         0.0600 
    219 H219       -9.6507  -23.9097  -48.7708 H         1 UNK         0.0600 
    220 H220       -5.8317  -22.1838  -50.1176 H         1 UNK         0.3000 
    221 H221       -5.4493  -20.6473  -51.6013 H         1 UNK         0.0600 
    222 H222       -7.7108  -18.9859  -50.3825 H         1 UNK         0.0600 
    223 H223       -6.0554  -19.0504  -49.7764 H         1 UNK         0.0600 
    224 H224       -6.3844  -18.3885  -51.3682 H         1 UNK         0.0600 
    225 H225       -7.8541  -22.6685  -52.0849 H         1 UNK         0.3000 
    226 H226       -9.2194  -21.4320  -54.3408 H         1 UNK         0.0600 
    227 H227      -10.2325  -23.2844  -52.9639 H         1 UNK         0.0600 
    228 H228      -10.1853  -23.6459  -54.6834 H         1 UNK         0.0600 
    229 H229       -9.0196  -24.3935  -53.6052 H         1 UNK         0.0600 
    230 H230       -6.1851  -23.1142  -53.8541 H         1 UNK         0.3000 
    231 H231       -5.5533  -22.9759  -56.7737 H         1 UNK         0.0600 
    232 H232       -4.6060  -25.0607  -54.7258 H         1 UNK         0.0600 
    233 H233       -4.0867  -24.9468  -56.4042 H         1 UNK         0.0600 
    234 H234       -5.7520  -25.3645  -56.0290 H         1 UNK         0.0600 
    235 H235       -5.4270  -20.7827  -55.3950 H         1 UNK         0.3000 
    236 H236       -3.7757  -20.0831  -53.4757 H         1 UNK         0.0600 
    237 H237       -5.3534  -18.5336  -54.5502 H         1 UNK         0.0600 
    238 H238       -3.7733  -17.7754  -54.4693 H         1 UNK         0.0600 
    239 H239       -4.3455  -18.4418  -55.9936 H         1 UNK         0.0600 
    240 H240       -1.7413  -19.8113  -52.9632 H         1 UNK         0.3000 
    241 H241        0.4212  -19.7007  -52.9132 H         1 UNK         0.0600 
    242 H242       -1.0289  -22.2551  -54.5339 H         1 UNK         0.3800 
    243 H243        0.4198  -23.2039  -54.7280 H         1 UNK         0.3800 
    244 H244        1.8117  -18.6823  -54.6436 H         1 UNK         0.0800 
    245 H245        0.5982  -18.9402  -55.8601 H         1 UNK         0.0800 
    246 H246        1.0729  -15.2606  -53.3128 H         1 UNK         0.0800 
    247 H247        2.2423  -16.4832  -53.7314 H         1 UNK         0.0800 
@<TRIPOS>BOND
     1    1    2 1    
     2    1  127 1    
     3    1  128 1    
     4    1  129 1    
     5    2    3 2    
     6    2    4 am   BACKBONE|DICT|INTERRES
     7    4    5 1    
     8    4  130 1    
     9    5    6 1    
    10    5   65 1    
    11    5  131 1    
    12    6    7 1    
    13    6  132 1    
    14    6  133 1    
    15    7    8 1    
    16    8    9 1    
    17    8  134 1    
    18    8  135 1    
    19    9   10 ar   
    20    9   14 ar   
    21   10   11 ar   
    22   10  136 1    
    23   11   12 ar   
    24   11  126 1    
    25   12   13 ar   
    26   12  137 1    
    27   13   14 ar   
    28   13   15 1    
    29   14  138 1    
    30   15   16 1    
    31   15  139 1    
    32   15  140 1    
    33   16   17 1    
    34   17   18 1    
    35   17  141 1    
    36   17  142 1    
    37   18   19 1    
    38   18   67 1    
    39   18  143 1    
    40   19   20 am   BACKBONE|DICT|INTERRES
    41   19  144 1    
    42   20   21 2    
    43   20   22 1    
    44   22   23 1    
    45   22   24 1    
    46   22  145 1    
    47   23  146 1    
    48   23  147 1    
    49   23  148 1    
    50   24   25 am   BACKBONE|DICT|INTERRES
    51   24  149 1    
    52   25   26 2    
    53   25   27 1    
    54   27   28 1    
    55   27   29 1    
    56   27  150 1    
    57   28  151 1    
    58   28  152 1    
    59   28  153 1    
    60   29   30 am   BACKBONE|DICT|INTERRES
    61   29  154 1    
    62   30   31 2    
    63   30   32 1    
    64   32   33 1    
    65   32   34 1    
    66   32  155 1    
    67   33  156 1    
    68   33  157 1    
    69   33  158 1    
    70   34   35 am   BACKBONE|DICT|INTERRES
    71   34  159 1    
    72   35   36 2    
    73   35   37 1    
    74   37   38 1    
    75   37   39 1    
    76   37  160 1    
    77   38  161 1    
    78   38  162 1    
    79   38  163 1    
    80   39   40 am   BACKBONE|DICT|INTERRES
    81   39  164 1    
    82   40   41 2    
    83   40   42 1    
    84   42   43 1    
    85   42   44 1    
    86   42  165 1    
    87   43  166 1    
    88   43  167 1    
    89   43  168 1    
    90   44   45 am   BACKBONE|DICT|INTERRES
    91   44  169 1    
    92   45   46 2    
    93   45   47 1    
    94   47   48 1    
    95   47   49 1    
    96   47  170 1    
    97   48  171 1    
    98   48  172 1    
    99   48  173 1    
   100   49   50 am   BACKBONE|DICT|INTERRES
   101   49  174 1    
   102   50   51 2    
   103   50   52 1    
   104   52   53 1    
   105   52   54 1    
   106   52  175 1    
   107   53  176 1    
   108   53  177 1    
   109   53  178 1    
   110   54   55 am   BACKBONE|DICT|INTERRES
   111   54  179 1    
   112   55   56 2    
   113   55   57 1    
   114   57   58 1    
   115   57   59 1    
   116   57  180 1    
   117   58  181 1    
   118   58  182 1    
   119   58  183 1    
   120   59   60 am   BACKBONE|DICT|INTERRES
   121   59  184 1    
   122   60   61 2    
   123   60   62 1    
   124   62   63 1    
   125   62   64 1    
   126   62  185 1    
   127   63  186 1    
   128   63  187 1    
   129   63  188 1    
   130   64   65 am   BACKBONE|DICT|INTERRES
   131   64  189 1    
   132   65   66 2    
   133   67   68 2    
   134   67   69 am   BACKBONE|DICT|INTERRES
   135   69   70 1    
   136   69  190 1    
   137   70   71 1    
   138   70   72 1    
   139   70  191 1    
   140   71  192 1    
   141   71  193 1    
   142   71  194 1    
   143   72   73 2    
   144   72   74 am   BACKBONE|DICT|INTERRES
   145   74   75 1    
   146   74  195 1    
   147   75   76 1    
   148   75   77 1    
   149   75  196 1    
   150   76  197 1    
   151   76  198 1    
   152   76  199 1    
   153   77   78 2    
   154   77   79 am   BACKBONE|DICT|INTERRES
   155   79   80 1    
   156   79  200 1    
   157   80   81 1    
   158   80   82 1    
   159   80  201 1    
   160   81  202 1    
   161   81  203 1    
   162   81  204 1    
   163   82   83 2    
   164   82   84 am   BACKBONE|DICT|INTERRES
   165   84   85 1    
   166   84  205 1    
   167   85   86 1    
   168   85   87 1    
   169   85  206 1    
   170   86  207 1    
   171   86  208 1    
   172   86  209 1    
   173   87   88 2    
   174   87   89 am   BACKBONE|DICT|INTERRES
   175   89   90 1    
   176   89  210 1    
   177   90   91 1    
   178   90   92 1    
   179   90  211 1    
   180   91  212 1    
   181   91  213 1    
   182   91  214 1    
   183   92   93 2    
   184   92   94 am   BACKBONE|DICT|INTERRES
   185   94   95 1    
   186   94  215 1    
   187   95   96 1    
   188   95   97 1    
   189   95  216 1    
   190   96  217 1    
   191   96  218 1    
   192   96  219 1    
   193   97   98 2    
   194   97   99 am   BACKBONE|DICT|INTERRES
   195   99  100 1    
   196   99  220 1    
   197  100  101 1    
   198  100  102 1    
   199  100  221 1    
   200  101  222 1    
   201  101  223 1    
   202  101  224 1    
   203  102  103 2    
   204  102  104 am   BACKBONE|DICT|INTERRES
   205  104  105 1    
   206  104  225 1    
   207  105  106 1    
   208  105  107 1    
   209  105  226 1    
   210  106  227 1    
   211  106  228 1    
   212  106  229 1    
   213  107  108 2    
   214  107  109 am   BACKBONE|DICT|INTERRES
   215  109  110 1    
   216  109  230 1    
   217  110  111 1    
   218  110  112 1    
   219  110  231 1    
   220  111  232 1    
   221  111  233 1    
   222  111  234 1    
   223  112  113 2    
   224  112  114 am   BACKBONE|DICT|INTERRES
   225  114  115 1    
   226  114  235 1    
   227  115  116 1    
   228  115  117 1    
   229  115  236 1    
   230  116  237 1    
   231  116  238 1    
   232  116  239 1    
   233  117  118 2    
   234  117  119 am   BACKBONE|DICT|INTERRES
   235  119  120 1    
   236  119  240 1    
   237  120  121 1    
   238  120  124 1    
   239  120  241 1    
   240  121  122 am   BACKBONE|DICT|INTERRES
   241  121  123 2    
   242  122  242 1    
   243  122  243 1    
   244  124  125 1    
   245  124  244 1    
   246  124  245 1    
   247  125  126 1    
   248  126  246 1    
   249  126  247 1    
@<TRIPOS>SUBSTRUCTURE
     1 UNK         1 GROUP             0       ****    0 ROOT    
