@<TRIPOS>MOLECULE
3R540
247   249    1
SMALL
USER_CHARGES


@<TRIPOS>ATOM
      1 CA          4.7498  -11.6165  -47.1245 C.3       0 UNK        -0.1800 
      2 C           3.9650  -12.9174  -47.0479 C.2       0 UNK         0.5000 
      3 O           3.7315  -13.4287  -45.9534 O.2       0 UNK        -0.5000 
      4 N           3.5369  -13.4501  -48.2000 N.am      1 UNK        -0.5000 
      5 CA          2.7766  -14.7036  -48.3065 C.3       1 UNK         0.1400 
      6 C6          2.6979  -15.2015  -49.7744 C.3       23 UNK        -0.0398 
      7 S7          2.9069  -17.0078  -49.8969 S.3       23 UNK        -0.2404 
      8 C8          2.2186  -17.3425  -51.5538 C.3       23 UNK        -0.0205 
      9 C9          0.7139  -17.1139  -51.6536 C.ar      23 UNK        -0.0193 
     10 C10         0.1733  -16.4919  -52.7828 C.ar      23 UNK        -0.1150 
     11 C11        -1.2083  -16.3089  -52.9051 C.ar      23 UNK        -0.0193 
     12 C12        -2.0535  -16.7413  -51.8767 C.ar      23 UNK        -0.1150 
     13 C13        -1.5237  -17.3558  -50.7387 C.ar      23 UNK        -0.0193 
     14 C14        -0.1453  -17.5477  -50.6409 C.ar      23 UNK        -0.1150 
     15 C15        -2.4176  -17.8047  -49.5960 C.3       23 UNK        -0.0205 
     16 S16        -2.7072  -19.5973  -49.6615 S.3       23 UNK        -0.2404 
     17 C17        -3.0434  -20.0056  -47.9207 C.3       23 UNK        -0.0398 
     18 CA         -2.0460  -21.0716  -47.4067 C.3       11 UNK         0.1400 
     19 N          -0.6994  -20.5269  -47.1904 N.am      11 UNK        -0.5000 
     20 C           0.3837  -21.2500  -46.8720 C.2       10 UNK         0.5000 
     21 O           0.3550  -22.4695  -46.7077 O.2       10 UNK        -0.5000 
     22 CA          1.7121  -20.5039  -46.6233 C.3       10 UNK         0.1400 
     23 CB          1.6484  -18.9908  -46.9180 C.3       10 UNK        -0.1800 
     24 N           2.2184  -20.7331  -45.2628 N.am      10 UNK        -0.5000 
     25 C           1.5394  -20.5370  -44.1231 C.2       9 UNK         0.5000 
     26 O           0.3638  -20.1679  -44.0954 O.2       9 UNK        -0.5000 
     27 CA          2.2764  -20.8284  -42.8036 C.3       9 UNK         0.1400 
     28 CB          3.6328  -20.1086  -42.6943 C.3       9 UNK        -0.1800 
     29 N           1.4407  -20.4093  -41.6819 N.am      9 UNK        -0.5000 
     30 C           1.1766  -21.1378  -40.5927 C.2       8 UNK         0.5000 
     31 O           1.6572  -22.2542  -40.3906 O.2       8 UNK        -0.5000 
     32 CA          0.2290  -20.5078  -39.5544 C.3       8 UNK         0.1400 
     33 CB          0.4002  -21.1050  -38.1431 C.3       8 UNK        -0.1800 
     34 N           0.3965  -19.0547  -39.5025 N.am      8 UNK        -0.5000 
     35 C          -0.5622  -18.1810  -39.1732 C.2       7 UNK         0.5000 
     36 O          -1.7148  -18.5158  -38.8944 O.2       7 UNK        -0.5000 
     37 CA         -0.1794  -16.6876  -39.1256 C.3       7 UNK         0.1400 
     38 CB          1.3389  -16.4190  -39.1703 C.3       7 UNK        -0.1800 
     39 N          -0.8185  -15.9884  -40.2343 N.am      7 UNK        -0.5000 
     40 C          -2.0333  -15.4244  -40.2041 C.2       6 UNK         0.5000 
     41 O          -2.7230  -15.3368  -39.1870 O.2       6 UNK        -0.5000 
     42 CA         -2.5795  -14.8551  -41.5305 C.3       6 UNK         0.1400 
     43 CB         -2.4343  -13.3258  -41.5671 C.3       6 UNK        -0.1800 
     44 N          -1.9366  -15.4275  -42.7149 N.am      6 UNK        -0.5000 
     45 C          -2.1208  -16.6817  -43.1481 C.2       5 UNK         0.5000 
     46 O          -2.9203  -17.4678  -42.6405 O.2       5 UNK        -0.5000 
     47 CA         -1.2502  -17.1454  -44.3296 C.3       5 UNK         0.1400 
     48 CB         -1.9287  -16.8287  -45.6674 C.3       5 UNK        -0.1800 
     49 N           0.0994  -16.5750  -44.3235 N.am      5 UNK        -0.5000 
     50 C           1.0269  -16.8129  -43.3844 C.2       4 UNK         0.5000 
     51 O           0.8547  -17.5609  -42.4212 O.2       4 UNK        -0.5000 
     52 CA          2.3502  -16.0343  -43.5079 C.3       4 UNK         0.1400 
     53 CB          3.2674  -16.6490  -44.5755 C.3       4 UNK        -0.1800 
     54 N           2.1339  -14.6218  -43.8167 N.am      4 UNK        -0.5000 
     55 C           1.4880  -13.7533  -43.0268 C.2       3 UNK         0.5000 
     56 O           1.0903  -14.0226  -41.8942 O.2       3 UNK        -0.5000 
     57 CA          1.1851  -12.3703  -43.6296 C.3       3 UNK         0.1400 
     58 CB          2.3710  -11.4113  -43.4451 C.3       3 UNK        -0.1800 
     59 N           0.8314  -12.4598  -45.0485 N.am      3 UNK        -0.5000 
     60 C          -0.3172  -12.9807  -45.5050 C.2       2 UNK         0.5000 
     61 O          -1.2119  -13.3966  -44.7703 O.2       2 UNK        -0.5000 
     62 CA         -0.4830  -13.0843  -47.0332 C.3       2 UNK         0.1400 
     63 CB         -1.0457  -11.7752  -47.6057 C.3       2 UNK        -0.1800 
     64 N           0.7705  -13.4113  -47.7137 N.am      2 UNK        -0.5000 
     65 C           1.3818  -14.6033  -47.6443 C.2       1 UNK         0.5000 
     66 O           0.9152  -15.5681  -47.0381 O.2       1 UNK        -0.5000 
     67 C          -2.6340  -21.8072  -46.1854 C.2       11 UNK         0.5000 
     68 O          -3.4512  -22.7057  -46.3889 O.2       11 UNK        -0.5000 
     69 N          -2.2090  -21.4599  -44.9615 N.am      12 UNK        -0.5000 
     70 CA         -2.6424  -22.1437  -43.7403 C.3       12 UNK         0.1400 
     71 CB         -2.3649  -21.2524  -42.5208 C.3       12 UNK        -0.1800 
     72 C          -1.9832  -23.5267  -43.5708 C.2       12 UNK         0.5000 
     73 O          -2.5701  -24.3969  -42.9274 O.2       12 UNK        -0.5000 
     74 N          -0.7934  -23.7116  -44.1590 N.am      13 UNK        -0.5000 
     75 CA         -0.0638  -24.9788  -44.1748 C.3       13 UNK         0.1400 
     76 CB          1.4440  -24.6925  -44.0957 C.3       13 UNK        -0.1800 
     77 C          -0.3986  -25.7996  -45.4323 C.2       13 UNK         0.5000 
     78 O          -0.5779  -27.0139  -45.3393 O.2       13 UNK        -0.5000 
     79 N          -0.4861  -25.1201  -46.5835 N.am      14 UNK        -0.5000 
     80 CA         -0.7309  -25.7074  -47.9018 C.3       14 UNK         0.1400 
     81 CB         -0.1851  -24.7452  -48.9702 C.3       14 UNK        -0.1800 
     82 C          -2.2112  -26.0353  -48.1805 C.2       14 UNK         0.5000 
     83 O          -2.5004  -26.6169  -49.2256 O.2       14 UNK        -0.5000 
     84 N          -3.1186  -25.6393  -47.2752 N.am      15 UNK        -0.5000 
     85 CA         -4.5761  -25.7989  -47.3520 C.3       15 UNK         0.1400 
     86 CB         -4.9738  -27.2885  -47.2854 C.3       15 UNK        -0.1800 
     87 C          -5.1775  -25.0576  -48.5646 C.2       15 UNK         0.5000 
     88 O          -5.9436  -25.6335  -49.3388 O.2       15 UNK        -0.5000 
     89 N          -4.7851  -23.7832  -48.7013 N.am      16 UNK        -0.5000 
     90 CA         -5.2009  -22.8154  -49.7241 C.3       16 UNK         0.1400 
     91 CB         -6.7081  -22.5089  -49.6099 C.3       16 UNK        -0.1800 
     92 C          -4.7788  -23.1578  -51.1690 C.2       16 UNK         0.5000 
     93 O          -5.2953  -22.5466  -52.1052 O.2       16 UNK        -0.5000 
     94 N          -3.8262  -24.0856  -51.3457 N.am      17 UNK        -0.5000 
     95 CA         -3.3330  -24.5188  -52.6573 C.3       17 UNK         0.1400 
     96 CB         -2.3946  -25.7209  -52.4860 C.3       17 UNK        -0.1800 
     97 C          -2.6411  -23.4007  -53.4610 C.2       17 UNK         0.5000 
     98 O          -2.7739  -23.3671  -54.6845 O.2       17 UNK        -0.5000 
     99 N          -1.9452  -22.4882  -52.7663 N.am      18 UNK        -0.5000 
    100 CA        -1.3311  -21.3086  -53.3769 C.3       18 UNK         0.1400 
    101 CB        -0.2869  -20.6991  -52.4310 C.3       18 UNK        -0.1800 
    102 C         -2.3839  -20.2756  -53.8173 C.2       18 UNK         0.5000 
    103 O         -2.2919  -19.7668  -54.9313 O.2       18 UNK        -0.5000 
    104 N         -3.4094  -20.0411  -52.9853 N.am      19 UNK        -0.5000 
    105 CA        -4.5454  -19.1710  -53.3057 C.3       19 UNK         0.1400 
    106 CB        -5.4298  -18.9734  -52.0657 C.3       19 UNK        -0.1800 
    107 C         -5.3783  -19.6904  -54.4912 C.2       19 UNK         0.5000 
    108 O         -5.8192  -18.8925  -55.3191 O.2       19 UNK        -0.5000 
    109 N         -5.5336  -21.0181  -54.5821 N.am      20 UNK        -0.5000 
    110 CA        -6.1636  -21.7054  -55.7097 C.3       20 UNK         0.1400 
    111 CB        -6.3543  -23.1889  -55.3602 C.3       20 UNK        -0.1800 
    112 C         -5.3819  -21.5475  -57.0303 C.2       20 UNK         0.5000 
    113 O         -6.0031  -21.5093  -58.0930 O.2       20 UNK        -0.5000 
    114 N         -4.0479  -21.4376  -56.9456 N.am      21 UNK        -0.5000 
    115 CA        -3.1738  -21.1390  -58.0801 C.3       21 UNK         0.1400 
    116 CB        -1.7374  -21.5886  -57.7694 C.3       21 UNK        -0.1800 
    117 C         -3.2246  -19.6491  -58.4711 C.2       21 UNK         0.5000 
    118 O         -3.2345  -19.3448  -59.6649 O.2       21 UNK        -0.5000 
    119 N         -3.2742  -18.7531  -57.4739 N.am      22 UNK        -0.5000 
    120 CA        -3.4699  -17.3037  -57.6586 C.3       22 UNK         0.1400 
    121 C         -4.8447  -16.9461  -58.2908 C.2       22 UNK         0.5000 
    122 N         -5.9385  -17.5441  -57.8359 N.am      22 UNK        -0.7600 
    123 O         -4.9180  -16.1201  -59.1966 O.2       22 UNK        -0.5000 
    124 C124       -3.2780  -16.5000  -56.3466 C.3       23 UNK        -0.0398 
    125 S125       -1.6102  -16.6550  -55.6300 S.3       23 UNK        -0.2404 
    126 C126       -1.7796  -15.6222  -54.1377 C.3       23 UNK        -0.0205 
    127 H127        4.8607  -11.2691  -48.1519 H         1 UNK         0.0600 
    128 H128        5.7448  -11.7553  -46.7020 H         1 UNK         0.0600 
    129 H129        4.2419  -10.8388  -46.5541 H         1 UNK         0.0600 
    130 H130        3.7560  -12.9855  -49.0699 H         1 UNK         0.3000 
    131 H131        3.3412  -15.4363  -47.7256 H         1 UNK         0.0600 
    132 H132        3.4974  -14.7630  -50.3732 H         1 UNK         0.0800 
    133 H133        1.7681  -14.8940  -50.2573 H         1 UNK         0.0800 
    134 H134        2.4241  -18.3820  -51.8121 H         1 UNK         0.0800 
    135 H135        2.7514  -16.7312  -52.2840 H         1 UNK         0.0800 
    136 H136        0.8249  -16.1584  -53.5782 H         1 UNK         0.1150 
    137 H137       -3.1210  -16.5941  -51.9567 H         1 UNK         0.1150 
    138 H138        0.2569  -18.0389  -49.7687 H         1 UNK         0.1150 
    139 H139       -1.9374  -17.5348  -48.6569 H         1 UNK         0.0800 
    140 H140       -3.3731  -17.2790  -49.6175 H         1 UNK         0.0800 
    141 H141       -4.0739  -20.3612  -47.8708 H         1 UNK         0.0800 
    142 H142       -3.0125  -19.1124  -47.2973 H         1 UNK         0.0800 
    143 H143       -1.9481  -21.8370  -48.1795 H         1 UNK         0.0600 
    144 H144       -0.5968  -19.5282  -47.2847 H         1 UNK         0.3000 
    145 H145        2.4373  -20.9450  -47.3084 H         1 UNK         0.0600 
    146 H146        1.3131  -18.8000  -47.9359 H         1 UNK         0.0600 
    147 H147        0.9788  -18.4630  -46.2393 H         1 UNK         0.0600 
    148 H148        2.6355  -18.5392  -46.8268 H         1 UNK         0.0600 
    149 H149        3.1623  -21.0875  -45.2072 H         1 UNK         0.3000 
    150 H150        2.4461  -21.9059  -42.7763 H         1 UNK         0.0600 
    151 H151        4.2746  -20.3022  -43.5539 H         1 UNK         0.0600 
    152 H152        4.1748  -20.4459  -41.8107 H         1 UNK         0.0600 
    153 H153        3.5065  -19.0305  -42.6028 H         1 UNK         0.0600 
    154 H154        0.9596  -19.5253  -41.8278 H         1 UNK         0.3000 
    155 H155       -0.7814  -20.7356  -39.8991 H         1 UNK         0.0600 
    156 H156        1.4029  -20.9260  -37.7536 H         1 UNK         0.0600 
    157 H157        0.2339  -22.1828  -38.1474 H         1 UNK         0.0600 
    158 H158       -0.3138  -20.6748  -37.4407 H         1 UNK         0.0600 
    159 H159        1.3116  -18.7047  -39.7510 H         1 UNK         0.3000 
    160 H160       -0.5519  -16.2930  -38.1782 H         1 UNK         0.0600 
    161 H161        1.7936  -16.7456  -40.1051 H         1 UNK         0.0600 
    162 H162        1.8529  -16.9240  -38.3514 H         1 UNK         0.0600 
    163 H163        1.5440  -15.3531  -39.0674 H         1 UNK         0.0600 
    164 H164       -0.3329  -16.0285  -41.1210 H         1 UNK         0.3000 
    165 H165       -3.6442  -15.0935  -41.5741 H         1 UNK         0.0600 
    166 H166       -2.8641  -12.9098  -42.4785 H         1 UNK         0.0600 
    167 H167       -2.9504  -12.8644  -40.7243 H         1 UNK         0.0600 
    168 H168       -1.3897  -13.0192  -41.5185 H         1 UNK         0.0600 
    169 H169       -1.3210  -14.8169  -43.2402 H         1 UNK         0.3000 
    170 H170       -1.1616  -18.2277  -44.2520 H         1 UNK         0.0600 
    171 H171       -2.9200  -17.2795  -45.7202 H         1 UNK         0.0600 
    172 H172       -2.0484  -15.7559  -45.8159 H         1 UNK         0.0600 
    173 H173       -1.3401  -17.2176  -46.4964 H         1 UNK         0.0600 
    174 H174        0.3450  -15.9854  -45.1116 H         1 UNK         0.3000 
    175 H175        2.8595  -16.0961  -42.5441 H         1 UNK         0.0600 
    176 H176        2.8738  -16.4947  -45.5781 H         1 UNK         0.0600 
    177 H177        4.2621  -16.2045  -44.5402 H         1 UNK         0.0600 
    178 H178        3.3830  -17.7229  -44.4392 H         1 UNK         0.0600 
    179 H179        2.4950  -14.2874  -44.7052 H         1 UNK         0.3000 
    180 H180        0.3309  -11.9532  -43.0921 H         1 UNK         0.0600 
    181 H181        2.1420  -10.4206  -43.8381 H         1 UNK         0.0600 
    182 H182        3.2697  -11.7714  -43.9455 H         1 UNK         0.0600 
    183 H183        2.6121  -11.2934  -42.3880 H         1 UNK         0.0600 
    184 H184        1.5395  -12.1832  -45.7116 H         1 UNK         0.3000 
    185 H185       -1.2013  -13.8810  -47.2380 H         1 UNK         0.0600 
    186 H186       -1.2345  -11.8623  -48.6758 H         1 UNK         0.0600 
    187 H187       -1.9927  -11.5172  -47.1296 H         1 UNK         0.0600 
    188 H188       -0.3621  -10.9393  -47.4515 H         1 UNK         0.0600 
    189 H189        1.2238  -12.6651  -48.2204 H         1 UNK         0.3000 
    190 H190       -1.4808  -20.7609  -44.8555 H         1 UNK         0.3000 
    191 H191       -3.7221  -22.2990  -43.7975 H         1 UNK         0.0600 
    192 H192       -2.7634  -21.7022  -41.6108 H         1 UNK         0.0600 
    193 H193       -2.8306  -20.2731  -42.6307 H         1 UNK         0.0600 
    194 H194       -1.2984  -21.1002  -42.3674 H         1 UNK         0.0600 
    195 H195       -0.4050  -22.9586  -44.7121 H         1 UNK         0.3000 
    196 H196       -0.3353  -25.5765  -43.3020 H         1 UNK         0.0600 
    197 H197        2.0198  -25.6181  -44.1332 H         1 UNK         0.0600 
    198 H198        1.6966  -24.1925  -43.1608 H         1 UNK         0.0600 
    199 H199        1.7828  -24.0608  -44.9178 H         1 UNK         0.0600 
    200 H200       -0.2654  -24.1257  -46.5784 H         1 UNK         0.3000 
    201 H201       -0.1729  -26.6433  -47.9723 H         1 UNK         0.0600 
    202 H202        0.8587  -24.4946  -48.7798 H         1 UNK         0.0600 
    203 H203       -0.7515  -23.8143  -49.0028 H         1 UNK         0.0600 
    204 H204       -0.2297  -25.1950  -49.9616 H         1 UNK         0.0600 
    205 H205       -2.7795  -25.1200  -46.4775 H         1 UNK         0.3000 
    206 H206       -4.9839  -25.3122  -46.4647 H         1 UNK         0.0600 
    207 H207       -4.5461  -27.7707  -46.4064 H         1 UNK         0.0600 
    208 H208       -6.0568  -27.3992  -47.2218 H         1 UNK         0.0600 
    209 H209       -4.6414  -27.8400  -48.1653 H         1 UNK         0.0600 
    210 H210       -4.1851  -23.4152  -47.9670 H         1 UNK         0.3000 
    211 H211       -4.6709  -21.8947  -49.4898 H         1 UNK         0.0600 
    212 H212       -6.9915  -21.6765  -50.2548 H         1 UNK         0.0600 
    213 H213       -6.9775  -22.2315  -48.5908 H         1 UNK         0.0600 
    214 H214       -7.3183  -23.3651  -49.8982 H         1 UNK         0.0600 
    215 H215       -3.4719  -24.5785  -50.5382 H         1 UNK         0.3000 
    216 H216       -4.1969  -24.8487  -53.2381 H         1 UNK         0.0600 
    217 H217       -1.5158  -25.4645  -51.8955 H         1 UNK         0.0600 
    218 H218       -2.0451  -26.0843  -53.4533 H         1 UNK         0.0600 
    219 H219       -2.9019  -26.5502  -51.9928 H         1 UNK         0.0600 
    220 H220       -1.8802  -22.5809  -51.7641 H         1 UNK         0.3000 
    221 H221       -0.8013  -21.6303  -54.2765 H         1 UNK         0.0600 
    222 H222        0.5268  -21.3987  -52.2408 H         1 UNK         0.0600 
    223 H223       -0.7158  -20.4209  -51.4712 H         1 UNK         0.0600 
    224 H224        0.1521  -19.8004  -52.8662 H         1 UNK         0.0600 
    225 H225       -3.4284  -20.5025  -52.0886 H         1 UNK         0.3000 
    226 H226       -4.1448  -18.1972  -53.5923 H         1 UNK         0.0600 
    227 H227       -5.7806  -19.9227  -51.6617 H         1 UNK         0.0600 
    228 H228       -4.8926  -18.4490  -51.2774 H         1 UNK         0.0600 
    229 H229       -6.3091  -18.3738  -52.3047 H         1 UNK         0.0600 
    230 H230       -5.2059  -21.5982  -53.8151 H         1 UNK         0.3000 
    231 H231       -7.1508  -21.2628  -55.8570 H         1 UNK         0.0600 
    232 H232       -5.4002  -23.6923  -55.2065 H         1 UNK         0.0600 
    233 H233       -6.8766  -23.7139  -56.1609 H         1 UNK         0.0600 
    234 H234       -6.9455  -23.3080  -54.4520 H         1 UNK         0.0600 
    235 H235       -3.6103  -21.4909  -56.0353 H         1 UNK         0.3000 
    236 H236       -3.5186  -21.7189  -58.9390 H         1 UNK         0.0600 
    237 H237       -1.2973  -21.0209  -56.9506 H         1 UNK         0.0600 
    238 H238       -1.7046  -22.6443  -57.4993 H         1 UNK         0.0600 
    239 H239       -1.0940  -21.4542  -58.6396 H         1 UNK         0.0600 
    240 H240       -3.1664  -19.0786  -56.5178 H         1 UNK         0.3000 
    241 H241       -2.7042  -16.9687  -58.3612 H         1 UNK         0.0600 
    242 H242       -6.8334  -17.3226  -58.2418 H         1 UNK         0.3800 
    243 H243       -5.8897  -18.1633  -57.0296 H         1 UNK         0.3800 
    244 H244       -4.0086  -16.8155  -55.6008 H         1 UNK         0.0800 
    245 H245       -3.4593  -15.4381  -56.5238 H         1 UNK         0.0800 
    246 H246       -1.2591  -14.6774  -54.3000 H         1 UNK         0.0800 
    247 H247       -2.8271  -15.3663  -53.9725 H         1 UNK         0.0800 
@<TRIPOS>BOND
     1    1    2 1    
     2    1  127 1    
     3    1  128 1    
     4    1  129 1    
     5    2    3 2    
     6    2    4 am   BACKBONE|DICT|INTERRES
     7    4    5 1    
     8    4  130 1    
     9    5    6 1    
    10    5   65 1    
    11    5  131 1    
    12    6    7 1    
    13    6  132 1    
    14    6  133 1    
    15    7    8 1    
    16    8    9 1    
    17    8  134 1    
    18    8  135 1    
    19    9   10 ar   
    20    9   14 ar   
    21   10   11 ar   
    22   10  136 1    
    23   11   12 ar   
    24   11  126 1    
    25   12   13 ar   
    26   12  137 1    
    27   13   14 ar   
    28   13   15 1    
    29   14  138 1    
    30   15   16 1    
    31   15  139 1    
    32   15  140 1    
    33   16   17 1    
    34   17   18 1    
    35   17  141 1    
    36   17  142 1    
    37   18   19 1    
    38   18   67 1    
    39   18  143 1    
    40   19   20 am   BACKBONE|DICT|INTERRES
    41   19  144 1    
    42   20   21 2    
    43   20   22 1    
    44   22   23 1    
    45   22   24 1    
    46   22  145 1    
    47   23  146 1    
    48   23  147 1    
    49   23  148 1    
    50   24   25 am   BACKBONE|DICT|INTERRES
    51   24  149 1    
    52   25   26 2    
    53   25   27 1    
    54   27   28 1    
    55   27   29 1    
    56   27  150 1    
    57   28  151 1    
    58   28  152 1    
    59   28  153 1    
    60   29   30 am   BACKBONE|DICT|INTERRES
    61   29  154 1    
    62   30   31 2    
    63   30   32 1    
    64   32   33 1    
    65   32   34 1    
    66   32  155 1    
    67   33  156 1    
    68   33  157 1    
    69   33  158 1    
    70   34   35 am   BACKBONE|DICT|INTERRES
    71   34  159 1    
    72   35   36 2    
    73   35   37 1    
    74   37   38 1    
    75   37   39 1    
    76   37  160 1    
    77   38  161 1    
    78   38  162 1    
    79   38  163 1    
    80   39   40 am   BACKBONE|DICT|INTERRES
    81   39  164 1    
    82   40   41 2    
    83   40   42 1    
    84   42   43 1    
    85   42   44 1    
    86   42  165 1    
    87   43  166 1    
    88   43  167 1    
    89   43  168 1    
    90   44   45 am   BACKBONE|DICT|INTERRES
    91   44  169 1    
    92   45   46 2    
    93   45   47 1    
    94   47   48 1    
    95   47   49 1    
    96   47  170 1    
    97   48  171 1    
    98   48  172 1    
    99   48  173 1    
   100   49   50 am   BACKBONE|DICT|INTERRES
   101   49  174 1    
   102   50   51 2    
   103   50   52 1    
   104   52   53 1    
   105   52   54 1    
   106   52  175 1    
   107   53  176 1    
   108   53  177 1    
   109   53  178 1    
   110   54   55 am   BACKBONE|DICT|INTERRES
   111   54  179 1    
   112   55   56 2    
   113   55   57 1    
   114   57   58 1    
   115   57   59 1    
   116   57  180 1    
   117   58  181 1    
   118   58  182 1    
   119   58  183 1    
   120   59   60 am   BACKBONE|DICT|INTERRES
   121   59  184 1    
   122   60   61 2    
   123   60   62 1    
   124   62   63 1    
   125   62   64 1    
   126   62  185 1    
   127   63  186 1    
   128   63  187 1    
   129   63  188 1    
   130   64   65 am   BACKBONE|DICT|INTERRES
   131   64  189 1    
   132   65   66 2    
   133   67   68 2    
   134   67   69 am   BACKBONE|DICT|INTERRES
   135   69   70 1    
   136   69  190 1    
   137   70   71 1    
   138   70   72 1    
   139   70  191 1    
   140   71  192 1    
   141   71  193 1    
   142   71  194 1    
   143   72   73 2    
   144   72   74 am   BACKBONE|DICT|INTERRES
   145   74   75 1    
   146   74  195 1    
   147   75   76 1    
   148   75   77 1    
   149   75  196 1    
   150   76  197 1    
   151   76  198 1    
   152   76  199 1    
   153   77   78 2    
   154   77   79 am   BACKBONE|DICT|INTERRES
   155   79   80 1    
   156   79  200 1    
   157   80   81 1    
   158   80   82 1    
   159   80  201 1    
   160   81  202 1    
   161   81  203 1    
   162   81  204 1    
   163   82   83 2    
   164   82   84 am   BACKBONE|DICT|INTERRES
   165   84   85 1    
   166   84  205 1    
   167   85   86 1    
   168   85   87 1    
   169   85  206 1    
   170   86  207 1    
   171   86  208 1    
   172   86  209 1    
   173   87   88 2    
   174   87   89 am   BACKBONE|DICT|INTERRES
   175   89   90 1    
   176   89  210 1    
   177   90   91 1    
   178   90   92 1    
   179   90  211 1    
   180   91  212 1    
   181   91  213 1    
   182   91  214 1    
   183   92   93 2    
   184   92   94 am   BACKBONE|DICT|INTERRES
   185   94   95 1    
   186   94  215 1    
   187   95   96 1    
   188   95   97 1    
   189   95  216 1    
   190   96  217 1    
   191   96  218 1    
   192   96  219 1    
   193   97   98 2    
   194   97   99 am   BACKBONE|DICT|INTERRES
   195   99  100 1    
   196   99  220 1    
   197  100  101 1    
   198  100  102 1    
   199  100  221 1    
   200  101  222 1    
   201  101  223 1    
   202  101  224 1    
   203  102  103 2    
   204  102  104 am   BACKBONE|DICT|INTERRES
   205  104  105 1    
   206  104  225 1    
   207  105  106 1    
   208  105  107 1    
   209  105  226 1    
   210  106  227 1    
   211  106  228 1    
   212  106  229 1    
   213  107  108 2    
   214  107  109 am   BACKBONE|DICT|INTERRES
   215  109  110 1    
   216  109  230 1    
   217  110  111 1    
   218  110  112 1    
   219  110  231 1    
   220  111  232 1    
   221  111  233 1    
   222  111  234 1    
   223  112  113 2    
   224  112  114 am   BACKBONE|DICT|INTERRES
   225  114  115 1    
   226  114  235 1    
   227  115  116 1    
   228  115  117 1    
   229  115  236 1    
   230  116  237 1    
   231  116  238 1    
   232  116  239 1    
   233  117  118 2    
   234  117  119 am   BACKBONE|DICT|INTERRES
   235  119  120 1    
   236  119  240 1    
   237  120  121 1    
   238  120  124 1    
   239  120  241 1    
   240  121  122 am   BACKBONE|DICT|INTERRES
   241  121  123 2    
   242  122  242 1    
   243  122  243 1    
   244  124  125 1    
   245  124  244 1    
   246  124  245 1    
   247  125  126 1    
   248  126  246 1    
   249  126  247 1    
@<TRIPOS>SUBSTRUCTURE
     1 UNK         1 GROUP             0       ****    0 ROOT    
