@<TRIPOS>MOLECULE
3R540
247   249    1
SMALL
USER_CHARGES


@<TRIPOS>ATOM
      1 CA         -1.3294  -12.6213  -49.5457 C.3       0 UNK        -0.1800 
      2 C          -0.3648  -13.2709  -48.5643 C.2       0 UNK         0.5000 
      3 O          -0.0867  -12.6993  -47.5097 O.2       0 UNK        -0.5000 
      4 N           0.1433  -14.4611  -48.9103 N.am      1 UNK        -0.5000 
      5 CA          1.0744  -15.3084  -48.1496 C.3       1 UNK         0.1400 
      6 C6          0.5520  -15.7433  -46.7545 C.3       23 UNK        -0.0398 
      7 S7         -0.7765  -16.9759  -46.9055 S.3       23 UNK        -0.2404 
      8 C8         -2.2674  -15.9822  -46.6198 C.3       23 UNK        -0.0205 
      9 C9         -3.4980  -16.8548  -46.7846 C.ar      23 UNK        -0.0193 
     10 C10        -4.0065  -17.1050  -48.0615 C.ar      23 UNK        -0.1150 
     11 C11        -5.1040  -17.9509  -48.2364 C.ar      23 UNK        -0.0193 
     12 C12        -5.7094  -18.5270  -47.1179 C.ar      23 UNK        -0.1150 
     13 C13        -5.1951  -18.3042  -45.8382 C.ar      23 UNK        -0.0193 
     14 C14        -4.0979  -17.4542  -45.6741 C.ar      23 UNK        -0.1150 
     15 C15        -5.8043  -19.0195  -44.6427 C.3       23 UNK        -0.0205 
     16 S16        -4.7068  -20.3124  -43.9716 S.3       23 UNK        -0.2404 
     17 C17        -4.2563  -21.2989  -45.4435 C.3       23 UNK        -0.0398 
     18 CA         -2.7637  -21.1184  -45.8515 C.3       11 UNK         0.1400 
     19 N          -1.8107  -21.4546  -44.7835 N.am      11 UNK        -0.5000 
     20 C          -1.6885  -22.6200  -44.1307 C.2       10 UNK         0.5000 
     21 O          -2.3418  -23.6298  -44.3973 O.2       10 UNK        -0.5000 
     22 CA         -0.6698  -22.6723  -42.9783 C.3       10 UNK         0.1400 
     23 CB          0.7465  -22.9209  -43.5126 C.3       10 UNK        -0.1800 
     24 N          -0.6744  -21.4658  -42.1518 N.am      10 UNK        -0.5000 
     25 C          -1.6453  -21.1456  -41.2842 C.2       9 UNK         0.5000 
     26 O          -2.6420  -21.8411  -41.0855 O.2       9 UNK        -0.5000 
     27 CA         -1.4643  -19.8431  -40.4839 C.3       9 UNK         0.1400 
     28 CB         -0.6226  -20.0987  -39.2242 C.3       9 UNK        -0.1800 
     29 N          -0.8369  -18.7904  -41.2797 N.am      9 UNK        -0.5000 
     30 C          -1.4799  -18.0471  -42.1890 C.2       8 UNK         0.5000 
     31 O          -2.6961  -18.0891  -42.3639 O.2       8 UNK        -0.5000 
     32 CA         -0.6309  -17.0989  -43.0572 C.3       8 UNK         0.1400 
     33 CB         -0.5761  -15.6928  -42.4449 C.3       8 UNK        -0.1800 
     34 N           0.7315  -17.5782  -43.2965 N.am      8 UNK        -0.5000 
     35 C           1.0347  -18.6779  -44.0014 C.2       7 UNK         0.5000 
     36 O           0.1989  -19.4175  -44.5206 O.2       7 UNK        -0.5000 
     37 CA          2.5253  -19.0412  -44.0955 C.3       7 UNK         0.1400 
     38 CB          3.2203  -18.2394  -45.2027 C.3       7 UNK        -0.1800 
     39 N           3.2246  -18.8359  -42.8272 N.am      7 UNK        -0.5000 
     40 C           3.0061  -19.5745  -41.7299 C.2       6 UNK         0.5000 
     41 O           2.2085  -20.5113  -41.6840 O.2       6 UNK        -0.5000 
     42 CA          3.7656  -19.1608  -40.4576 C.3       6 UNK         0.1400 
     43 CB          5.2459  -19.5625  -40.5465 C.3       6 UNK        -0.1800 
     44 N           3.6664  -17.7266  -40.1863 N.am      6 UNK        -0.5000 
     45 C           2.5232  -17.0675  -39.9476 C.2       5 UNK         0.5000 
     46 O           1.4206  -17.6085  -39.9060 O.2       5 UNK        -0.5000 
     47 CA          2.6172  -15.5449  -39.7399 C.3       5 UNK         0.1400 
     48 CB          2.6575  -15.2106  -38.2414 C.3       5 UNK        -0.1800 
     49 N           3.7728  -14.9346  -40.3976 N.am      5 UNK        -0.5000 
     50 C           3.9766  -14.8892  -41.7210 C.2       4 UNK         0.5000 
     51 O           3.1821  -15.3494  -42.5470 O.2       4 UNK        -0.5000 
     52 CA          5.2816  -14.1924  -42.1647 C.3       4 UNK         0.1400 
     53 CB          6.5005  -14.6278  -41.3197 C.3       4 UNK        -0.1800 
     54 N           5.5834  -14.3393  -43.5898 N.am      4 UNK        -0.5000 
     55 C           5.8386  -15.4615  -44.2739 C.2       3 UNK         0.5000 
     56 O           5.8087  -16.5919  -43.7814 O.2       3 UNK        -0.5000 
     57 CA          6.2100  -15.2617  -45.7605 C.3       3 UNK         0.1400 
     58 CB          6.5117  -16.5813  -46.4923 C.3       3 UNK        -0.1800 
     59 N           5.1900  -14.5330  -46.5176 N.am      3 UNK        -0.5000 
     60 C           4.9389  -13.2197  -46.4798 C.2       2 UNK         0.5000 
     61 O           5.5369  -12.4420  -45.7344 O.2       2 UNK        -0.5000 
     62 CA          3.8418  -12.6679  -47.4162 C.3       2 UNK         0.1400 
     63 CB          4.4311  -12.3149  -48.7945 C.3       2 UNK        -0.1800 
     64 N           2.6369  -13.4990  -47.5616 N.am      2 UNK        -0.5000 
     65 C           2.5007  -14.7290  -48.0744 C.2       1 UNK         0.5000 
     66 O           3.4411  -15.4086  -48.4868 O.2       1 UNK        -0.5000 
     67 C          -2.4379  -21.8600  -47.1668 C.2       11 UNK         0.5000 
     68 O          -1.9597  -21.2503  -48.1258 O.2       11 UNK        -0.5000 
     69 N          -2.6749  -23.1775  -47.1840 N.am      12 UNK        -0.5000 
     70 CA         -2.4978  -24.0611  -48.3381 C.3       12 UNK         0.1400 
     71 CB         -3.1960  -25.3984  -48.0523 C.3       12 UNK        -0.1800 
     72 C          -1.0273  -24.2831  -48.7369 C.2       12 UNK         0.5000 
     73 O          -0.7649  -24.6802  -49.8717 O.2       12 UNK        -0.5000 
     74 N          -0.0930  -24.0084  -47.8153 N.am      13 UNK        -0.5000 
     75 CA          1.3467  -24.0152  -48.0800 C.3       13 UNK         0.1400 
     76 CB          2.1119  -23.9811  -46.7499 C.3       13 UNK        -0.1800 
     77 C           1.7847  -22.8433  -48.9791 C.2       13 UNK         0.5000 
     78 O           2.7373  -22.9949  -49.7447 O.2       13 UNK        -0.5000 
     79 N           1.0830  -21.7053  -48.8755 N.am      14 UNK        -0.5000 
     80 CA          1.2899  -20.5384  -49.7282 C.3       14 UNK         0.1400 
     81 CB          0.8552  -19.2700  -48.9837 C.3       14 UNK        -0.1800 
     82 C           0.5198  -20.6812  -51.0488 C.2       14 UNK         0.5000 
     83 O           1.0961  -20.4375  -52.1092 O.2       14 UNK        -0.5000 
     84 N          -0.7600  -21.0810  -50.9521 N.am      15 UNK        -0.5000 
     85 CA         -1.6953  -21.2996  -52.0637 C.3       15 UNK         0.1400 
     86 CB         -1.2779  -22.5324  -52.8922 C.3       15 UNK        -0.1800 
     87 C          -1.9098  -20.0375  -52.9304 C.2       15 UNK         0.5000 
     88 O          -2.0055  -20.1273  -54.1558 O.2       15 UNK        -0.5000 
     89 N          -1.9882  -18.8736  -52.2682 N.am      16 UNK        -0.5000 
     90 CA         -2.1213  -17.5431  -52.8716 C.3       16 UNK         0.1400 
     91 CB         -2.0529  -16.4877  -51.7577 C.3       16 UNK        -0.1800 
     92 C          -3.3944  -17.3462  -53.7216 C.2       16 UNK         0.5000 
     93 O          -3.3995  -16.4978  -54.6136 O.2       16 UNK        -0.5000 
     94 N          -4.4346  -18.1486  -53.4558 N.am      17 UNK        -0.5000 
     95 CA         -5.6828  -18.2029  -54.2209 C.3       17 UNK         0.1400 
     96 CB         -6.7938  -18.7582  -53.3172 C.3       17 UNK        -0.1800 
     97 C          -5.5733  -19.0045  -55.5397 C.2       17 UNK         0.5000 
     98 O          -6.5864  -19.1738  -56.2205 O.2       17 UNK        -0.5000 
     99 N          -4.3662  -19.4812  -55.8831 N.am      18 UNK        -0.5000 
    100 CA        -3.9916  -20.1576  -57.1263 C.3       18 UNK         0.1400 
    101 CB        -4.0993  -19.1920  -58.3285 C.3       18 UNK        -0.1800 
    102 C         -4.7538  -21.4823  -57.3088 C.2       18 UNK         0.5000 
    103 O         -4.4952  -22.4230  -56.5586 O.2       18 UNK        -0.5000 
    104 N         -5.6791  -21.5394  -58.2767 N.am      19 UNK        -0.5000 
    105 CA        -6.4717  -22.7205  -58.6341 C.3       19 UNK         0.1400 
    106 CB        -7.3235  -22.3932  -59.8699 C.3       19 UNK        -0.1800 
    107 C         -7.3599  -23.2638  -57.4964 C.2       19 UNK         0.5000 
    108 O         -7.6373  -24.4634  -57.4695 O.2       19 UNK        -0.5000 
    109 N         -7.7700  -22.3870  -56.5692 N.am      20 UNK        -0.5000 
    110 CA        -8.5124  -22.7538  -55.3605 C.3       20 UNK         0.1400 
    111 CB        -9.2614  -21.5157  -54.8471 C.3       20 UNK        -0.1800 
    112 C         -7.6124  -23.3400  -54.2523 C.2       20 UNK         0.5000 
    113 O         -8.1334  -23.9224  -53.2992 O.2       20 UNK        -0.5000 
    114 N         -6.2880  -23.1477  -54.3714 N.am      21 UNK        -0.5000 
    115 CA        -5.2131  -23.6376  -53.4972 C.3       21 UNK         0.1400 
    116 CB        -5.0810  -25.1676  -53.6317 C.3       21 UNK        -0.1800 
    117 C         -5.3126  -23.1928  -52.0217 C.2       21 UNK         0.5000 
    118 O         -4.6555  -23.7841  -51.1660 O.2       21 UNK        -0.5000 
    119 N         -6.1374  -22.1726  -51.7506 N.am      22 UNK        -0.5000 
    120 CA        -6.5524  -21.7187  -50.4124 C.3       22 UNK         0.1400 
    121 C         -7.3786  -22.7771  -49.6157 C.2       22 UNK         0.5000 
    122 N         -8.0279  -23.7328  -50.2729 N.am      22 UNK        -0.7600 
    123 O         -7.4630  -22.7190  -48.3921 O.2       22 UNK        -0.5000 
    124 C124       -5.3935  -21.0942  -49.5876 C.3       23 UNK        -0.0398 
    125 S125       -4.6834  -19.6244  -50.4018 S.3       23 UNK        -0.2404 
    126 C126       -5.6157  -18.2608  -49.6337 C.3       23 UNK        -0.0205 
    127 H127       -1.4946  -13.2436  -50.4256 H         1 UNK         0.0600 
    128 H128       -0.9367  -11.6600  -49.8768 H         1 UNK         0.0600 
    129 H129       -2.2928  -12.4505  -49.0654 H         1 UNK         0.0600 
    130 H130       -0.1186  -14.8420  -49.8079 H         1 UNK         0.3000 
    131 H131        1.1750  -16.2127  -48.7504 H         1 UNK         0.0600 
    132 H132        1.3458  -16.2154  -46.1755 H         1 UNK         0.0800 
    133 H133        0.2171  -14.8955  -46.1564 H         1 UNK         0.0800 
    134 H134       -2.2370  -15.5410  -45.6227 H         1 UNK         0.0800 
    135 H135       -2.3034  -15.1550  -47.3289 H         1 UNK         0.0800 
    136 H136       -3.5267  -16.6611  -48.9204 H         1 UNK         0.1150 
    137 H137       -6.5618  -19.1789  -47.2453 H         1 UNK         0.1150 
    138 H138       -3.6924  -17.2898  -44.6860 H         1 UNK         0.1150 
    139 H139       -6.0145  -18.2928  -43.8568 H         1 UNK         0.0800 
    140 H140       -6.7617  -19.4709  -44.9074 H         1 UNK         0.0800 
    141 H141       -4.9156  -21.0406  -46.2716 H         1 UNK         0.0800 
    142 H142       -4.4790  -22.3416  -45.2156 H         1 UNK         0.0800 
    143 H143       -2.6083  -20.0575  -46.0563 H         1 UNK         0.0600 
    144 H144       -1.1761  -20.7000  -44.5299 H         1 UNK         0.3000 
    145 H145       -0.9370  -23.5182  -42.3413 H         1 UNK         0.0600 
    146 H146        1.4619  -23.0296  -42.6973 H         1 UNK         0.0600 
    147 H147        1.0859  -22.1027  -44.1479 H         1 UNK         0.0600 
    148 H148        0.7826  -23.8395  -44.0981 H         1 UNK         0.0600 
    149 H149        0.1377  -20.8643  -42.2202 H         1 UNK         0.3000 
    150 H150       -2.4528  -19.5048  -40.1659 H         1 UNK         0.0600 
    151 H151       -1.0675  -20.8806  -38.6076 H         1 UNK         0.0600 
    152 H152       -0.5520  -19.2007  -38.6101 H         1 UNK         0.0600 
    153 H153        0.3917  -20.4124  -39.4742 H         1 UNK         0.0600 
    154 H154        0.1486  -18.6180  -41.1127 H         1 UNK         0.3000 
    155 H155       -1.1281  -17.0260  -44.0242 H         1 UNK         0.0600 
    156 H156       -1.5780  -15.2730  -42.3470 H         1 UNK         0.0600 
    157 H157        0.0044  -15.0111  -43.0670 H         1 UNK         0.0600 
    158 H158       -0.1298  -15.7082  -41.4513 H         1 UNK         0.0600 
    159 H159        1.4856  -17.0318  -42.9010 H         1 UNK         0.3000 
    160 H160        2.5930  -20.0997  -44.3551 H         1 UNK         0.0600 
    161 H161        3.2491  -17.1736  -44.9730 H         1 UNK         0.0600 
    162 H162        2.7097  -18.3607  -46.1583 H         1 UNK         0.0600 
    163 H163        4.2459  -18.5818  -45.3360 H         1 UNK         0.0600 
    164 H164        3.8785  -18.0649  -42.7852 H         1 UNK         0.3000 
    165 H165        3.3168  -19.6922  -39.6157 H         1 UNK         0.0600 
    166 H166        5.7668  -19.3563  -39.6114 H         1 UNK         0.0600 
    167 H167        5.3490  -20.6299  -40.7462 H         1 UNK         0.0600 
    168 H168        5.7635  -19.0272  -41.3438 H         1 UNK         0.0600 
    169 H169        4.5256  -17.1984  -40.2090 H         1 UNK         0.3000 
    170 H170        1.7176  -15.0962  -40.1638 H         1 UNK         0.0600 
    171 H171        3.5515  -15.6122  -37.7627 H         1 UNK         0.0600 
    172 H172        2.6417  -14.1332  -38.0762 H         1 UNK         0.0600 
    173 H173        1.7925  -15.6293  -37.7249 H         1 UNK         0.0600 
    174 H174        4.4646  -14.5227  -39.7884 H         1 UNK         0.3000 
    175 H175        5.1267  -13.1247  -42.0041 H         1 UNK         0.0600 
    176 H176        6.6382  -15.7097  -41.3337 H         1 UNK         0.0600 
    177 H177        7.4184  -14.1724  -41.6920 H         1 UNK         0.0600 
    178 H178        6.3995  -14.3221  -40.2781 H         1 UNK         0.0600 
    179 H179        5.5909  -13.4768  -44.1272 H         1 UNK         0.3000 
    180 H180        7.1277  -14.6702  -45.7714 H         1 UNK         0.0600 
    181 H181        6.9047  -16.3925  -47.4914 H         1 UNK         0.0600 
    182 H182        5.6181  -17.1947  -46.6003 H         1 UNK         0.0600 
    183 H183        7.2586  -17.1703  -45.9583 H         1 UNK         0.0600 
    184 H184        4.6424  -15.0786  -47.1789 H         1 UNK         0.3000 
    185 H185        3.4953  -11.7371  -46.9644 H         1 UNK         0.0600 
    186 H186        3.6853  -11.8395  -49.4316 H         1 UNK         0.0600 
    187 H187        5.2646  -11.6184  -48.6950 H         1 UNK         0.0600 
    188 H188        4.8048  -13.1967  -49.3158 H         1 UNK         0.0600 
    189 H189        1.7703  -13.0448  -47.2822 H         1 UNK         0.3000 
    190 H190       -2.9502  -23.6159  -46.3108 H         1 UNK         0.3000 
    191 H191       -2.9876  -23.5943  -49.1929 H         1 UNK         0.0600 
    192 H192       -4.2598  -25.2530  -47.8634 H         1 UNK         0.0600 
    193 H193       -2.7638  -25.9010  -47.1861 H         1 UNK         0.0600 
    194 H194       -3.1097  -26.0739  -48.9045 H         1 UNK         0.0600 
    195 H195       -0.3953  -23.7105  -46.9002 H         1 UNK         0.3000 
    196 H196        1.5975  -24.9454  -48.5944 H         1 UNK         0.0600 
    197 H197        1.8296  -24.8162  -46.1086 H         1 UNK         0.0600 
    198 H198        1.9294  -23.0538  -46.2070 H         1 UNK         0.0600 
    199 H199        3.1871  -24.0524  -46.9190 H         1 UNK         0.0600 
    200 H200        0.2856  -21.6746  -48.2550 H         1 UNK         0.3000 
    201 H201        2.3527  -20.4410  -49.9608 H         1 UNK         0.0600 
    202 H202        1.4313  -19.1303  -48.0696 H         1 UNK         0.0600 
    203 H203       -0.2000  -19.3004  -48.7115 H         1 UNK         0.0600 
    204 H204        1.0070  -18.3882  -49.6061 H         1 UNK         0.0600 
    205 H205       -1.1461  -21.2142  -50.0225 H         1 UNK         0.3000 
    206 H206       -2.6608  -21.5254  -51.6101 H         1 UNK         0.0600 
    207 H207       -0.3116  -22.3887  -53.3758 H         1 UNK         0.0600 
    208 H208       -1.2107  -23.4214  -52.2657 H         1 UNK         0.0600 
    209 H209       -2.0027  -22.7461  -53.6774 H         1 UNK         0.0600 
    210 H210       -1.9252  -18.9020  -51.2609 H         1 UNK         0.3000 
    211 H211       -1.2642  -17.4003  -53.5326 H         1 UNK         0.0600 
    212 H212       -2.9104  -16.5633  -51.0900 H         1 UNK         0.0600 
    213 H213       -2.0509  -15.4796  -52.1741 H         1 UNK         0.0600 
    214 H214       -1.1473  -16.5962  -51.1605 H         1 UNK         0.0600 
    215 H215       -4.3454  -18.8016  -52.6891 H         1 UNK         0.3000 
    216 H216       -5.9599  -17.1831  -54.4954 H         1 UNK         0.0600 
    217 H217       -7.7666  -18.6773  -53.8025 H         1 UNK         0.0600 
    218 H218       -6.8599  -18.2017  -52.3827 H         1 UNK         0.0600 
    219 H219       -6.6265  -19.8063  -53.0755 H         1 UNK         0.0600 
    220 H220       -3.6087  -19.3821  -55.2159 H         1 UNK         0.3000 
    221 H221       -2.9399  -20.4279  -57.0196 H         1 UNK         0.0600 
    222 H222       -5.1158  -18.8302  -58.4852 H         1 UNK         0.0600 
    223 H223       -3.4620  -18.3200  -58.1806 H         1 UNK         0.0600 
    224 H224       -3.7712  -19.6743  -59.2502 H         1 UNK         0.0600 
    225 H225       -5.8481  -20.7052  -58.8200 H         1 UNK         0.3000 
    226 H226       -5.7717  -23.5142  -58.9028 H         1 UNK         0.0600 
    227 H227       -6.6990  -22.1026  -60.7149 H         1 UNK         0.0600 
    228 H228       -7.9080  -23.2594  -60.1832 H         1 UNK         0.0600 
    229 H229       -8.0225  -21.5796  -59.6719 H         1 UNK         0.0600 
    230 H230       -7.4999  -21.4162  -56.6661 H         1 UNK         0.3000 
    231 H231       -9.2528  -23.5151  -55.6147 H         1 UNK         0.0600 
    232 H232       -9.8308  -21.7440  -53.9450 H         1 UNK         0.0600 
    233 H233       -9.9672  -21.1464  -55.5912 H         1 UNK         0.0600 
    234 H234       -8.5746  -20.7054  -54.6082 H         1 UNK         0.0600 
    235 H235       -5.9528  -22.6871  -55.2111 H         1 UNK         0.3000 
    236 H236       -4.2953  -23.1922  -53.8800 H         1 UNK         0.0600 
    237 H237       -5.9474  -25.6845  -53.2179 H         1 UNK         0.0600 
    238 H238       -4.9810  -25.4626  -54.6764 H         1 UNK         0.0600 
    239 H239       -4.1980  -25.5352  -53.1076 H         1 UNK         0.0600 
    240 H240       -6.6458  -21.7740  -52.5240 H         1 UNK         0.3000 
    241 H241       -7.2713  -20.9191  -50.5934 H         1 UNK         0.0600 
    242 H242       -7.9936  -23.7904  -51.2856 H         1 UNK         0.3800 
    243 H243       -8.5683  -24.4071  -49.7551 H         1 UNK         0.3800 
    244 H244       -5.7313  -20.8164  -48.5922 H         1 UNK         0.0800 
    245 H245       -4.5966  -21.8202  -49.4321 H         1 UNK         0.0800 
    246 H246       -6.6791  -18.5036  -49.6124 H         1 UNK         0.0800 
    247 H247       -5.5187  -17.3736  -50.2613 H         1 UNK         0.0800 
@<TRIPOS>BOND
     1    1    2 1    
     2    1  127 1    
     3    1  128 1    
     4    1  129 1    
     5    2    3 2    
     6    2    4 am   BACKBONE|DICT|INTERRES
     7    4    5 1    
     8    4  130 1    
     9    5    6 1    
    10    5   65 1    
    11    5  131 1    
    12    6    7 1    
    13    6  132 1    
    14    6  133 1    
    15    7    8 1    
    16    8    9 1    
    17    8  134 1    
    18    8  135 1    
    19    9   10 ar   
    20    9   14 ar   
    21   10   11 ar   
    22   10  136 1    
    23   11   12 ar   
    24   11  126 1    
    25   12   13 ar   
    26   12  137 1    
    27   13   14 ar   
    28   13   15 1    
    29   14  138 1    
    30   15   16 1    
    31   15  139 1    
    32   15  140 1    
    33   16   17 1    
    34   17   18 1    
    35   17  141 1    
    36   17  142 1    
    37   18   19 1    
    38   18   67 1    
    39   18  143 1    
    40   19   20 am   BACKBONE|DICT|INTERRES
    41   19  144 1    
    42   20   21 2    
    43   20   22 1    
    44   22   23 1    
    45   22   24 1    
    46   22  145 1    
    47   23  146 1    
    48   23  147 1    
    49   23  148 1    
    50   24   25 am   BACKBONE|DICT|INTERRES
    51   24  149 1    
    52   25   26 2    
    53   25   27 1    
    54   27   28 1    
    55   27   29 1    
    56   27  150 1    
    57   28  151 1    
    58   28  152 1    
    59   28  153 1    
    60   29   30 am   BACKBONE|DICT|INTERRES
    61   29  154 1    
    62   30   31 2    
    63   30   32 1    
    64   32   33 1    
    65   32   34 1    
    66   32  155 1    
    67   33  156 1    
    68   33  157 1    
    69   33  158 1    
    70   34   35 am   BACKBONE|DICT|INTERRES
    71   34  159 1    
    72   35   36 2    
    73   35   37 1    
    74   37   38 1    
    75   37   39 1    
    76   37  160 1    
    77   38  161 1    
    78   38  162 1    
    79   38  163 1    
    80   39   40 am   BACKBONE|DICT|INTERRES
    81   39  164 1    
    82   40   41 2    
    83   40   42 1    
    84   42   43 1    
    85   42   44 1    
    86   42  165 1    
    87   43  166 1    
    88   43  167 1    
    89   43  168 1    
    90   44   45 am   BACKBONE|DICT|INTERRES
    91   44  169 1    
    92   45   46 2    
    93   45   47 1    
    94   47   48 1    
    95   47   49 1    
    96   47  170 1    
    97   48  171 1    
    98   48  172 1    
    99   48  173 1    
   100   49   50 am   BACKBONE|DICT|INTERRES
   101   49  174 1    
   102   50   51 2    
   103   50   52 1    
   104   52   53 1    
   105   52   54 1    
   106   52  175 1    
   107   53  176 1    
   108   53  177 1    
   109   53  178 1    
   110   54   55 am   BACKBONE|DICT|INTERRES
   111   54  179 1    
   112   55   56 2    
   113   55   57 1    
   114   57   58 1    
   115   57   59 1    
   116   57  180 1    
   117   58  181 1    
   118   58  182 1    
   119   58  183 1    
   120   59   60 am   BACKBONE|DICT|INTERRES
   121   59  184 1    
   122   60   61 2    
   123   60   62 1    
   124   62   63 1    
   125   62   64 1    
   126   62  185 1    
   127   63  186 1    
   128   63  187 1    
   129   63  188 1    
   130   64   65 am   BACKBONE|DICT|INTERRES
   131   64  189 1    
   132   65   66 2    
   133   67   68 2    
   134   67   69 am   BACKBONE|DICT|INTERRES
   135   69   70 1    
   136   69  190 1    
   137   70   71 1    
   138   70   72 1    
   139   70  191 1    
   140   71  192 1    
   141   71  193 1    
   142   71  194 1    
   143   72   73 2    
   144   72   74 am   BACKBONE|DICT|INTERRES
   145   74   75 1    
   146   74  195 1    
   147   75   76 1    
   148   75   77 1    
   149   75  196 1    
   150   76  197 1    
   151   76  198 1    
   152   76  199 1    
   153   77   78 2    
   154   77   79 am   BACKBONE|DICT|INTERRES
   155   79   80 1    
   156   79  200 1    
   157   80   81 1    
   158   80   82 1    
   159   80  201 1    
   160   81  202 1    
   161   81  203 1    
   162   81  204 1    
   163   82   83 2    
   164   82   84 am   BACKBONE|DICT|INTERRES
   165   84   85 1    
   166   84  205 1    
   167   85   86 1    
   168   85   87 1    
   169   85  206 1    
   170   86  207 1    
   171   86  208 1    
   172   86  209 1    
   173   87   88 2    
   174   87   89 am   BACKBONE|DICT|INTERRES
   175   89   90 1    
   176   89  210 1    
   177   90   91 1    
   178   90   92 1    
   179   90  211 1    
   180   91  212 1    
   181   91  213 1    
   182   91  214 1    
   183   92   93 2    
   184   92   94 am   BACKBONE|DICT|INTERRES
   185   94   95 1    
   186   94  215 1    
   187   95   96 1    
   188   95   97 1    
   189   95  216 1    
   190   96  217 1    
   191   96  218 1    
   192   96  219 1    
   193   97   98 2    
   194   97   99 am   BACKBONE|DICT|INTERRES
   195   99  100 1    
   196   99  220 1    
   197  100  101 1    
   198  100  102 1    
   199  100  221 1    
   200  101  222 1    
   201  101  223 1    
   202  101  224 1    
   203  102  103 2    
   204  102  104 am   BACKBONE|DICT|INTERRES
   205  104  105 1    
   206  104  225 1    
   207  105  106 1    
   208  105  107 1    
   209  105  226 1    
   210  106  227 1    
   211  106  228 1    
   212  106  229 1    
   213  107  108 2    
   214  107  109 am   BACKBONE|DICT|INTERRES
   215  109  110 1    
   216  109  230 1    
   217  110  111 1    
   218  110  112 1    
   219  110  231 1    
   220  111  232 1    
   221  111  233 1    
   222  111  234 1    
   223  112  113 2    
   224  112  114 am   BACKBONE|DICT|INTERRES
   225  114  115 1    
   226  114  235 1    
   227  115  116 1    
   228  115  117 1    
   229  115  236 1    
   230  116  237 1    
   231  116  238 1    
   232  116  239 1    
   233  117  118 2    
   234  117  119 am   BACKBONE|DICT|INTERRES
   235  119  120 1    
   236  119  240 1    
   237  120  121 1    
   238  120  124 1    
   239  120  241 1    
   240  121  122 am   BACKBONE|DICT|INTERRES
   241  121  123 2    
   242  122  242 1    
   243  122  243 1    
   244  124  125 1    
   245  124  244 1    
   246  124  245 1    
   247  125  126 1    
   248  126  246 1    
   249  126  247 1    
@<TRIPOS>SUBSTRUCTURE
     1 UNK         1 GROUP             0       ****    0 ROOT    
