@<TRIPOS>MOLECULE
3R540
247   249    1
SMALL
USER_CHARGES


@<TRIPOS>ATOM
      1 CA          4.1696  -13.4143  -47.1245 C.3       0 UNK        -0.1800 
      2 C           2.6683  -13.4231  -47.3654 C.2       0 UNK         0.5000 
      3 O           1.8917  -13.4927  -46.4131 O.2       0 UNK        -0.5000 
      4 N           2.2453  -13.3384  -48.6321 N.am      1 UNK        -0.5000 
      5 CA          0.8413  -13.4205  -49.0657 C.3       1 UNK         0.1400 
      6 C6          0.7143  -13.6187  -50.5968 C.3       23 UNK        -0.0398 
      7 S7          1.5983  -15.1036  -51.1836 S.3       23 UNK        -0.2404 
      8 C8          0.3528  -16.3766  -50.8204 C.3       23 UNK        -0.0205 
      9 C9          0.8918  -17.7810  -51.0361 C.ar      23 UNK        -0.0193 
     10 C10         0.3896  -18.5820  -52.0634 C.ar      23 UNK        -0.1150 
     11 C11         0.8140  -19.9054  -52.2192 C.ar      23 UNK        -0.0193 
     12 C12         1.7564  -20.4208  -51.3232 C.ar      23 UNK        -0.1150 
     13 C13         2.2783  -19.6292  -50.2944 C.ar      23 UNK        -0.0193 
     14 C14         1.8512  -18.3041  -50.1674 C.ar      23 UNK        -0.1150 
     15 C15         3.2631  -20.2285  -49.2951 C.3       23 UNK        -0.0205 
     16 S16         2.8083  -19.9382  -47.5471 S.3       23 UNK        -0.2404 
     17 C17         1.0582  -20.4529  -47.5051 C.3       23 UNK        -0.0398 
     18 CA          0.8601  -21.9170  -47.0761 C.3       11 UNK         0.1400 
     19 N           1.3081  -22.1564  -45.7034 N.am      11 UNK        -0.5000 
     20 C           1.4544  -23.3692  -45.1543 C.2       10 UNK         0.5000 
     21 O           1.2499  -24.4231  -45.7549 O.2       10 UNK        -0.5000 
     22 CA          1.8156  -23.3952  -43.6598 C.3       10 UNK         0.1400 
     23 CB          3.3078  -23.0985  -43.4491 C.3       10 UNK        -0.1800 
     24 N           1.0149  -22.4424  -42.8891 N.am      10 UNK        -0.5000 
     25 C          -0.3153  -22.5081  -42.7417 C.2       9 UNK         0.5000 
     26 O          -0.9992  -23.4019  -43.2410 O.2       9 UNK        -0.5000 
     27 CA         -1.0191  -21.3754  -41.9679 C.3       9 UNK         0.1400 
     28 CB         -1.9414  -21.9235  -40.8616 C.3       9 UNK        -0.1800 
     29 N          -0.1330  -20.3282  -41.4491 N.am      9 UNK        -0.5000 
     30 C           0.7806  -20.4059  -40.4704 C.2       8 UNK         0.5000 
     31 O           1.0775  -21.4436  -39.8793 O.2       8 UNK        -0.5000 
     32 CA          1.4941  -19.0915  -40.1041 C.3       8 UNK         0.1400 
     33 CB          2.8207  -18.9777  -40.8708 C.3       8 UNK        -0.1800 
     34 N           0.6657  -17.9158  -40.3866 N.am      8 UNK        -0.5000 
     35 C          -0.3891  -17.5451  -39.6457 C.2       7 UNK         0.5000 
     36 O          -0.7150  -18.1004  -38.5957 O.2       7 UNK        -0.5000 
     37 CA         -1.2407  -16.3783  -40.1780 C.3       7 UNK         0.1400 
     38 CB         -0.5837  -15.0294  -39.8515 C.3       7 UNK        -0.1800 
     39 N          -1.4979  -16.4653  -41.6169 N.am      7 UNK        -0.5000 
     40 C          -2.2511  -17.4078  -42.2029 C.2       6 UNK         0.5000 
     41 O          -2.7963  -18.3267  -41.5929 O.2       6 UNK        -0.5000 
     42 CA         -2.4169  -17.3203  -43.7289 C.3       6 UNK         0.1400 
     43 CB         -3.5645  -16.3694  -44.0996 C.3       6 UNK        -0.1800 
     44 N          -1.1910  -16.8708  -44.3817 N.am      6 UNK        -0.5000 
     45 C          -0.1675  -17.6722  -44.7005 C.2       5 UNK         0.5000 
     46 O          -0.1551  -18.8879  -44.4949 O.2       5 UNK        -0.5000 
     47 CA          1.0555  -16.9854  -45.3401 C.3       5 UNK         0.1400 
     48 CB          0.7987  -16.7188  -46.8324 C.3       5 UNK        -0.1800 
     49 N           1.4113  -15.7167  -44.7012 N.am      5 UNK        -0.5000 
     50 C           1.7149  -15.5463  -43.4085 C.2       4 UNK         0.5000 
     51 O           1.7495  -16.4579  -42.5835 O.2       4 UNK        -0.5000 
     52 CA          1.9708  -14.1007  -42.9440 C.3       4 UNK         0.1400 
     53 CB          3.4368  -13.7100  -43.1801 C.3       4 UNK        -0.1800 
     54 N           1.0927  -13.0921  -43.5489 N.am      4 UNK        -0.5000 
     55 C          -0.2486  -13.1198  -43.5633 C.2       3 UNK         0.5000 
     56 O          -0.9233  -14.0686  -43.1614 O.2       3 UNK        -0.5000 
     57 CA         -0.9555  -11.8693  -44.1003 C.3       3 UNK         0.1400 
     58 CB         -0.9477  -10.7737  -43.0125 C.3       3 UNK        -0.1800 
     59 N          -0.3508  -11.3971  -45.3506 N.am      3 UNK        -0.5000 
     60 C          -0.8567  -10.4176  -46.1174 C.2       2 UNK         0.5000 
     61 O          -1.8900   -9.8031  -45.8494 O.2       2 UNK        -0.5000 
     62 CA         -0.0982  -10.0547  -47.4104 C.3       2 UNK         0.1400 
     63 CB          0.9376   -8.9545  -47.1327 C.3       2 UNK        -0.1800 
     64 N           0.5733  -11.1935  -48.0324 N.am      2 UNK        -0.5000 
     65 C          -0.0439  -12.2488  -48.5814 C.2       1 UNK         0.5000 
     66 O          -1.2669  -12.3316  -48.6984 O.2       1 UNK        -0.5000 
     67 C          -0.6178  -22.2997  -47.2718 C.2       11 UNK         0.5000 
     68 O          -0.9809  -22.7600  -48.3547 O.2       11 UNK        -0.5000 
     69 N          -1.4407  -22.0968  -46.2321 N.am      12 UNK        -0.5000 
     70 CA         -2.8594  -22.4503  -46.2239 C.3       12 UNK         0.1400 
     71 CB         -3.5577  -21.8239  -45.0080 C.3       12 UNK        -0.1800 
     72 C          -3.0676  -23.9726  -46.2804 C.2       12 UNK         0.5000 
     73 O          -3.8990  -24.4435  -47.0560 O.2       12 UNK        -0.5000 
     74 N          -2.2671  -24.7128  -45.5031 N.am      13 UNK        -0.5000 
     75 CA         -2.2145  -26.1726  -45.5257 C.3       13 UNK         0.1400 
     76 CB         -1.3814  -26.6667  -44.3330 C.3       13 UNK        -0.1800 
     77 C          -1.6551  -26.7264  -46.8503 C.2       13 UNK         0.5000 
     78 O          -2.1755  -27.7217  -47.3556 O.2       13 UNK        -0.5000 
     79 N          -0.6080  -26.0800  -47.3822 N.am      14 UNK        -0.5000 
     80 CA          0.0823  -26.4956  -48.6013 C.3       14 UNK         0.1400 
     81 CB          1.4474  -25.7953  -48.6905 C.3       14 UNK        -0.1800 
     82 C          -0.7285  -26.2548  -49.8863 C.2       14 UNK         0.5000 
     83 O          -0.8532  -27.1756  -50.6955 O.2       14 UNK        -0.5000 
     84 N          -1.2256  -25.0249  -50.0787 N.am      15 UNK        -0.5000 
     85 CA         -1.7809  -24.5687  -51.3556 C.3       15 UNK         0.1400 
     86 CB         -0.6287  -24.2292  -52.3236 C.3       15 UNK        -0.1800 
     87 C          -2.7867  -23.4144  -51.1860 C.2       15 UNK         0.5000 
     88 O          -2.8976  -22.5597  -52.0670 O.2       15 UNK        -0.5000 
     89 N          -3.5116  -23.4025  -50.0580 N.am      16 UNK        -0.5000 
     90 CA         -4.6190  -22.4929  -49.7299 C.3       16 UNK         0.1400 
     91 CB         -5.7927  -22.7096  -50.7068 C.3       16 UNK        -0.1800 
     92 C          -4.2422  -20.9983  -49.6189 C.2       16 UNK         0.5000 
     93 O          -5.1439  -20.1633  -49.5751 O.2       16 UNK        -0.5000 
     94 N          -2.9403  -20.6722  -49.5748 N.am      17 UNK        -0.5000 
     95 CA         -2.3747  -19.3179  -49.4745 C.3       17 UNK         0.1400 
     96 CB         -2.5104  -18.7916  -48.0297 C.3       17 UNK        -0.1800 
     97 C          -2.9358  -18.3343  -50.5309 C.2       17 UNK         0.5000 
     98 O          -3.2708  -17.1962  -50.2025 O.2       17 UNK        -0.5000 
     99 N          -3.0486  -18.8231  -51.7752 N.am      18 UNK        -0.5000 
    100 CA        -3.5992  -18.1683  -52.9706 C.3       18 UNK         0.1400 
    101 CB        -2.9692  -16.7858  -53.2543 C.3       18 UNK        -0.1800 
    102 C         -5.1384  -18.0973  -53.0325 C.2       18 UNK         0.5000 
    103 O         -5.6549  -17.6378  -54.0520 O.2       18 UNK        -0.5000 
    104 N         -5.8692  -18.5923  -52.0197 N.am      19 UNK        -0.5000 
    105 CA        -7.3415  -18.6096  -52.0228 C.3       19 UNK         0.1400 
    106 CB        -7.8708  -18.9591  -50.6247 C.3       19 UNK        -0.1800 
    107 C         -7.9399  -19.5584  -53.0831 C.2       19 UNK         0.5000 
    108 O         -9.0540  -19.3218  -53.5506 O.2       19 UNK        -0.5000 
    109 N         -7.1690  -20.5841  -53.4673 N.am      20 UNK        -0.5000 
    110 CA        -7.4527  -21.5046  -54.5708 C.3       20 UNK         0.1400 
    111 CB        -7.3556  -22.9499  -54.0491 C.3       20 UNK        -0.1800 
    112 C         -6.4914  -21.2608  -55.7545 C.2       20 UNK         0.5000 
    113 O         -6.2360  -22.1830  -56.5309 O.2       20 UNK        -0.5000 
    114 N         -5.9276  -20.0436  -55.8477 N.am      21 UNK        -0.5000 
    115 CA        -4.9591  -19.5798  -56.8538 C.3       21 UNK         0.1400 
    116 CB        -5.6358  -19.4653  -58.2354 C.3       21 UNK        -0.1800 
    117 C         -3.6556  -20.4106  -56.8977 C.2       21 UNK         0.5000 
    118 O         -3.0117  -20.4909  -57.9449 O.2       21 UNK        -0.5000 
    119 N         -3.3103  -21.0293  -55.7600 N.am      22 UNK        -0.5000 
    120 CA        -2.2239  -22.0082  -55.5867 C.3       22 UNK         0.1400 
    121 C         -2.4588  -23.3674  -56.3182 C.2       22 UNK         0.5000 
    122 N         -3.6683  -23.6875  -56.7661 N.am      22 UNK        -0.7600 
    123 O         -1.5377  -24.1676  -56.4560 O.2       22 UNK        -0.5000 
    124 C124       -0.8021  -21.4263  -55.8355 C.3       23 UNK        -0.0398 
    125 S125       -0.4118  -19.9850  -54.7834 S.3       23 UNK        -0.2404 
    126 C126        0.2342  -20.8241  -53.2948 C.3       23 UNK        -0.0205 
    127 H127        4.4419  -12.5728  -46.4877 H         1 UNK         0.0600 
    128 H128        4.4716  -14.3348  -46.6252 H         1 UNK         0.0600 
    129 H129        4.7288  -13.3327  -48.0567 H         1 UNK         0.0600 
    130 H130        2.9248  -13.2849  -49.3778 H         1 UNK         0.3000 
    131 H131        0.4208  -14.3055  -48.5877 H         1 UNK         0.0600 
    132 H132       -0.3326  -13.6989  -50.8962 H         1 UNK         0.0800 
    133 H133        1.1149  -12.7523  -51.1256 H         1 UNK         0.0800 
    134 H134       -0.5291  -16.1997  -51.4371 H         1 UNK         0.0800 
    135 H135        0.0226  -16.2883  -49.7851 H         1 UNK         0.0800 
    136 H136       -0.3544  -18.1801  -52.7289 H         1 UNK         0.1150 
    137 H137        2.0729  -21.4502  -51.4181 H         1 UNK         0.1150 
    138 H138        2.2403  -17.6884  -49.3690 H         1 UNK         0.1150 
    139 H139        3.3574  -21.3046  -49.4487 H         1 UNK         0.0800 
    140 H140        4.2510  -19.8039  -49.4773 H         1 UNK         0.0800 
    141 H141        0.5362  -19.7988  -46.8100 H         1 UNK         0.0800 
    142 H142        0.5949  -20.2715  -48.4737 H         1 UNK         0.0800 
    143 H143        1.4513  -22.5490  -47.7415 H         1 UNK         0.0600 
    144 H144        1.4886  -21.3393  -45.1382 H         1 UNK         0.3000 
    145 H145        1.6066  -24.3983  -43.2819 H         1 UNK         0.0600 
    146 H146        3.5814  -23.1859  -42.3973 H         1 UNK         0.0600 
    147 H147        3.9274  -23.8035  -44.0050 H         1 UNK         0.0600 
    148 H148        3.5732  -22.0942  -43.7820 H         1 UNK         0.0600 
    149 H149        1.5061  -21.6868  -42.4361 H         1 UNK         0.3000 
    150 H150       -1.6541  -20.8722  -42.6982 H         1 UNK         0.0600 
    151 H151       -2.6992  -22.5883  -41.2779 H         1 UNK         0.0600 
    152 H152       -2.4659  -21.1147  -40.3523 H         1 UNK         0.0600 
    153 H153       -1.3875  -22.4905  -40.1132 H         1 UNK         0.0600 
    154 H154       -0.2603  -19.4219  -41.8776 H         1 UNK         0.3000 
    155 H155        1.7170  -19.1152  -39.0353 H         1 UNK         0.0600 
    156 H156        3.4803  -19.8144  -40.6374 H         1 UNK         0.0600 
    157 H157        3.3506  -18.0620  -40.6076 H         1 UNK         0.0600 
    158 H158        2.6636  -18.9742  -41.9503 H         1 UNK         0.0600 
    159 H159        0.9074  -17.3798  -41.2181 H         1 UNK         0.3000 
    160 H160       -2.2060  -16.4126  -39.6686 H         1 UNK         0.0600 
    161 H161        0.4063  -14.9491  -40.2973 H         1 UNK         0.0600 
    162 H162       -1.1857  -14.1959  -40.2142 H         1 UNK         0.0600 
    163 H163       -0.4677  -14.9044  -38.7743 H         1 UNK         0.0600 
    164 H164       -1.1284  -15.7138  -42.1923 H         1 UNK         0.3000 
    165 H165       -2.6737  -18.3162  -44.0970 H         1 UNK         0.0600 
    166 H166       -3.7227  -16.3467  -45.1781 H         1 UNK         0.0600 
    167 H167       -4.5003  -16.6899  -43.6402 H         1 UNK         0.0600 
    168 H168       -3.3676  -15.3491  -43.7678 H         1 UNK         0.0600 
    169 H169       -1.0843  -15.8727  -44.5074 H         1 UNK         0.3000 
    170 H170        1.9065  -17.6626  -45.2457 H         1 UNK         0.0600 
    171 H171        0.4965  -17.6203  -47.3616 H         1 UNK         0.0600 
    172 H172        0.0059  -15.9837  -46.9730 H         1 UNK         0.0600 
    173 H173        1.6961  -16.3439  -47.3241 H         1 UNK         0.0600 
    174 H174        1.4401  -14.8946  -45.3006 H         1 UNK         0.3000 
    175 H175        1.7933  -14.0699  -41.8690 H         1 UNK         0.0600 
    176 H176        3.6771  -13.6749  -44.2422 H         1 UNK         0.0600 
    177 H177        3.6595  -12.7323  -42.7528 H         1 UNK         0.0600 
    178 H178        4.1128  -14.4285  -42.7146 H         1 UNK         0.0600 
    179 H179        1.5565  -12.2739  -43.9135 H         1 UNK         0.3000 
    180 H180       -1.9905  -12.1481  -44.3086 H         1 UNK         0.0600 
    181 H181       -1.2949  -11.1685  -42.0565 H         1 UNK         0.0600 
    182 H182        0.0531  -10.3700  -42.8561 H         1 UNK         0.0600 
    183 H183       -1.6063   -9.9437  -43.2654 H         1 UNK         0.0600 
    184 H184        0.4532  -11.9159  -45.6859 H         1 UNK         0.3000 
    185 H185       -0.8277   -9.6640  -48.1230 H         1 UNK         0.0600 
    186 H186        0.4657   -8.0769  -46.6889 H         1 UNK         0.0600 
    187 H187        1.7117   -9.2947  -46.4436 H         1 UNK         0.0600 
    188 H188        1.4247   -8.6296  -48.0522 H         1 UNK         0.0600 
    189 H189        1.5809  -11.2147  -47.9757 H         1 UNK         0.3000 
    190 H190       -1.0570  -21.7241  -45.3769 H         1 UNK         0.3000 
    191 H191       -3.3105  -22.0178  -47.1149 H         1 UNK         0.0600 
    192 H192       -4.6356  -21.9808  -45.0614 H         1 UNK         0.0600 
    193 H193       -3.3885  -20.7477  -44.9648 H         1 UNK         0.0600 
    194 H194       -3.2159  -22.2582  -44.0695 H         1 UNK         0.0600 
    195 H195       -1.6475  -24.2438  -44.8479 H         1 UNK         0.3000 
    196 H196       -3.2327  -26.5497  -45.4091 H         1 UNK         0.0600 
    197 H197       -1.3378  -27.7562  -44.3104 H         1 UNK         0.0600 
    198 H198       -1.8141  -26.3375  -43.3880 H         1 UNK         0.0600 
    199 H199       -0.3565  -26.2961  -44.3763 H         1 UNK         0.0600 
    200 H200       -0.1941  -25.3114  -46.8653 H         1 UNK         0.3000 
    201 H201        0.2701  -27.5691  -48.5286 H         1 UNK         0.0600 
    202 H202        2.0752  -26.0449  -47.8351 H         1 UNK         0.0600 
    203 H203        1.3431  -24.7111  -48.7256 H         1 UNK         0.0600 
    204 H204        1.9865  -26.1017  -49.5879 H         1 UNK         0.0600 
    205 H205       -1.0919  -24.3073  -49.3684 H         1 UNK         0.3000 
    206 H206       -2.3610  -25.3813  -51.7974 H         1 UNK         0.0600 
    207 H207       -0.0137  -25.1051  -52.5294 H         1 UNK         0.0600 
    208 H208       -1.0002  -23.8762  -53.2854 H         1 UNK         0.0600 
    209 H209        0.0223  -23.4607  -51.9072 H         1 UNK         0.0600 
    210 H210       -3.3322  -24.1225  -49.3697 H         1 UNK         0.3000 
    211 H211       -4.9726  -22.7827  -48.7413 H         1 UNK         0.0600 
    212 H212       -5.5560  -22.3368  -51.7023 H         1 UNK         0.0600 
    213 H213       -6.6905  -22.1927  -50.3680 H         1 UNK         0.0600 
    214 H214       -6.0461  -23.7660  -50.7948 H         1 UNK         0.0600 
    215 H215       -2.2728  -21.4335  -49.6036 H         1 UNK         0.3000 
    216 H216       -1.3106  -19.4131  -49.6911 H         1 UNK         0.0600 
    217 H217       -2.0505  -19.4710  -47.3131 H         1 UNK         0.0600 
    218 H218       -3.5553  -18.6649  -47.7449 H         1 UNK         0.0600 
    219 H219       -2.0203  -17.8242  -47.9149 H         1 UNK         0.0600 
    220 H220       -2.7720  -19.7871  -51.9091 H         1 UNK         0.3000 
    221 H221       -3.3107  -18.8151  -53.7997 H         1 UNK         0.0600 
    222 H222       -3.2169  -16.0524  -52.4875 H         1 UNK         0.0600 
    223 H223       -1.8875  -16.8363  -53.3374 H         1 UNK         0.0600 
    224 H224       -3.3285  -16.3831  -54.2020 H         1 UNK         0.0600 
    225 H225       -5.4111  -18.9694  -51.1958 H         1 UNK         0.3000 
    226 H226       -7.6818  -17.5997  -52.2616 H         1 UNK         0.0600 
    227 H227       -7.4386  -18.3106  -49.8625 H         1 UNK         0.0600 
    228 H228       -8.9538  -18.8386  -50.5793 H         1 UNK         0.0600 
    229 H229       -7.6492  -19.9911  -50.3549 H         1 UNK         0.0600 
    230 H230       -6.2734  -20.6892  -53.0150 H         1 UNK         0.3000 
    231 H231       -8.4652  -21.3481  -54.9472 H         1 UNK         0.0600 
    232 H232       -6.3326  -23.2150  -53.7804 H         1 UNK         0.0600 
    233 H233       -7.9839  -23.0967  -53.1704 H         1 UNK         0.0600 
    234 H234       -7.6882  -23.6615  -54.8057 H         1 UNK         0.0600 
    235 H235       -6.1922  -19.3424  -55.1650 H         1 UNK         0.3000 
    236 H236       -4.6619  -18.5752  -56.5496 H         1 UNK         0.0600 
    237 H237       -6.5427  -18.8632  -58.1809 H         1 UNK         0.0600 
    238 H238       -4.9747  -18.9867  -58.9587 H         1 UNK         0.0600 
    239 H239       -5.9056  -20.4431  -58.6356 H         1 UNK         0.0600 
    240 H240       -3.9192  -20.9212  -54.9647 H         1 UNK         0.3000 
    241 H241       -2.2660  -22.2772  -54.5338 H         1 UNK         0.0600 
    242 H242       -3.8003  -24.5743  -57.2257 H         1 UNK         0.3800 
    243 H243       -4.4592  -23.0595  -56.6651 H         1 UNK         0.3800 
    244 H244       -0.6892  -21.1292  -56.8785 H         1 UNK         0.0800 
    245 H245       -0.0386  -22.1867  -55.6645 H         1 UNK         0.0800 
    246 H246        0.9929  -21.5457  -53.6015 H         1 UNK         0.0800 
    247 H247       -0.5814  -21.3887  -52.8459 H         1 UNK         0.0800 
@<TRIPOS>BOND
     1    1    2 1    
     2    1  127 1    
     3    1  128 1    
     4    1  129 1    
     5    2    3 2    
     6    2    4 am   BACKBONE|DICT|INTERRES
     7    4    5 1    
     8    4  130 1    
     9    5    6 1    
    10    5   65 1    
    11    5  131 1    
    12    6    7 1    
    13    6  132 1    
    14    6  133 1    
    15    7    8 1    
    16    8    9 1    
    17    8  134 1    
    18    8  135 1    
    19    9   10 ar   
    20    9   14 ar   
    21   10   11 ar   
    22   10  136 1    
    23   11   12 ar   
    24   11  126 1    
    25   12   13 ar   
    26   12  137 1    
    27   13   14 ar   
    28   13   15 1    
    29   14  138 1    
    30   15   16 1    
    31   15  139 1    
    32   15  140 1    
    33   16   17 1    
    34   17   18 1    
    35   17  141 1    
    36   17  142 1    
    37   18   19 1    
    38   18   67 1    
    39   18  143 1    
    40   19   20 am   BACKBONE|DICT|INTERRES
    41   19  144 1    
    42   20   21 2    
    43   20   22 1    
    44   22   23 1    
    45   22   24 1    
    46   22  145 1    
    47   23  146 1    
    48   23  147 1    
    49   23  148 1    
    50   24   25 am   BACKBONE|DICT|INTERRES
    51   24  149 1    
    52   25   26 2    
    53   25   27 1    
    54   27   28 1    
    55   27   29 1    
    56   27  150 1    
    57   28  151 1    
    58   28  152 1    
    59   28  153 1    
    60   29   30 am   BACKBONE|DICT|INTERRES
    61   29  154 1    
    62   30   31 2    
    63   30   32 1    
    64   32   33 1    
    65   32   34 1    
    66   32  155 1    
    67   33  156 1    
    68   33  157 1    
    69   33  158 1    
    70   34   35 am   BACKBONE|DICT|INTERRES
    71   34  159 1    
    72   35   36 2    
    73   35   37 1    
    74   37   38 1    
    75   37   39 1    
    76   37  160 1    
    77   38  161 1    
    78   38  162 1    
    79   38  163 1    
    80   39   40 am   BACKBONE|DICT|INTERRES
    81   39  164 1    
    82   40   41 2    
    83   40   42 1    
    84   42   43 1    
    85   42   44 1    
    86   42  165 1    
    87   43  166 1    
    88   43  167 1    
    89   43  168 1    
    90   44   45 am   BACKBONE|DICT|INTERRES
    91   44  169 1    
    92   45   46 2    
    93   45   47 1    
    94   47   48 1    
    95   47   49 1    
    96   47  170 1    
    97   48  171 1    
    98   48  172 1    
    99   48  173 1    
   100   49   50 am   BACKBONE|DICT|INTERRES
   101   49  174 1    
   102   50   51 2    
   103   50   52 1    
   104   52   53 1    
   105   52   54 1    
   106   52  175 1    
   107   53  176 1    
   108   53  177 1    
   109   53  178 1    
   110   54   55 am   BACKBONE|DICT|INTERRES
   111   54  179 1    
   112   55   56 2    
   113   55   57 1    
   114   57   58 1    
   115   57   59 1    
   116   57  180 1    
   117   58  181 1    
   118   58  182 1    
   119   58  183 1    
   120   59   60 am   BACKBONE|DICT|INTERRES
   121   59  184 1    
   122   60   61 2    
   123   60   62 1    
   124   62   63 1    
   125   62   64 1    
   126   62  185 1    
   127   63  186 1    
   128   63  187 1    
   129   63  188 1    
   130   64   65 am   BACKBONE|DICT|INTERRES
   131   64  189 1    
   132   65   66 2    
   133   67   68 2    
   134   67   69 am   BACKBONE|DICT|INTERRES
   135   69   70 1    
   136   69  190 1    
   137   70   71 1    
   138   70   72 1    
   139   70  191 1    
   140   71  192 1    
   141   71  193 1    
   142   71  194 1    
   143   72   73 2    
   144   72   74 am   BACKBONE|DICT|INTERRES
   145   74   75 1    
   146   74  195 1    
   147   75   76 1    
   148   75   77 1    
   149   75  196 1    
   150   76  197 1    
   151   76  198 1    
   152   76  199 1    
   153   77   78 2    
   154   77   79 am   BACKBONE|DICT|INTERRES
   155   79   80 1    
   156   79  200 1    
   157   80   81 1    
   158   80   82 1    
   159   80  201 1    
   160   81  202 1    
   161   81  203 1    
   162   81  204 1    
   163   82   83 2    
   164   82   84 am   BACKBONE|DICT|INTERRES
   165   84   85 1    
   166   84  205 1    
   167   85   86 1    
   168   85   87 1    
   169   85  206 1    
   170   86  207 1    
   171   86  208 1    
   172   86  209 1    
   173   87   88 2    
   174   87   89 am   BACKBONE|DICT|INTERRES
   175   89   90 1    
   176   89  210 1    
   177   90   91 1    
   178   90   92 1    
   179   90  211 1    
   180   91  212 1    
   181   91  213 1    
   182   91  214 1    
   183   92   93 2    
   184   92   94 am   BACKBONE|DICT|INTERRES
   185   94   95 1    
   186   94  215 1    
   187   95   96 1    
   188   95   97 1    
   189   95  216 1    
   190   96  217 1    
   191   96  218 1    
   192   96  219 1    
   193   97   98 2    
   194   97   99 am   BACKBONE|DICT|INTERRES
   195   99  100 1    
   196   99  220 1    
   197  100  101 1    
   198  100  102 1    
   199  100  221 1    
   200  101  222 1    
   201  101  223 1    
   202  101  224 1    
   203  102  103 2    
   204  102  104 am   BACKBONE|DICT|INTERRES
   205  104  105 1    
   206  104  225 1    
   207  105  106 1    
   208  105  107 1    
   209  105  226 1    
   210  106  227 1    
   211  106  228 1    
   212  106  229 1    
   213  107  108 2    
   214  107  109 am   BACKBONE|DICT|INTERRES
   215  109  110 1    
   216  109  230 1    
   217  110  111 1    
   218  110  112 1    
   219  110  231 1    
   220  111  232 1    
   221  111  233 1    
   222  111  234 1    
   223  112  113 2    
   224  112  114 am   BACKBONE|DICT|INTERRES
   225  114  115 1    
   226  114  235 1    
   227  115  116 1    
   228  115  117 1    
   229  115  236 1    
   230  116  237 1    
   231  116  238 1    
   232  116  239 1    
   233  117  118 2    
   234  117  119 am   BACKBONE|DICT|INTERRES
   235  119  120 1    
   236  119  240 1    
   237  120  121 1    
   238  120  124 1    
   239  120  241 1    
   240  121  122 am   BACKBONE|DICT|INTERRES
   241  121  123 2    
   242  122  242 1    
   243  122  243 1    
   244  124  125 1    
   245  124  244 1    
   246  124  245 1    
   247  125  126 1    
   248  126  246 1    
   249  126  247 1    
@<TRIPOS>SUBSTRUCTURE
     1 UNK         1 GROUP             0       ****    0 ROOT    
