@<TRIPOS>MOLECULE
3R540
247   249    1
SMALL
USER_CHARGES


@<TRIPOS>ATOM
      1 CA          1.9387  -16.2769  -49.4624 C.3       0 UNK        -0.1800 
      2 C           0.8695  -15.1981  -49.3551 C.2       0 UNK         0.5000 
      3 O           1.1967  -14.0169  -49.2552 O.2       0 UNK        -0.5000 
      4 N          -0.4063  -15.6056  -49.3660 N.am      1 UNK        -0.5000 
      5 CA         -1.5956  -14.7432  -49.3203 C.3       1 UNK         0.1400 
      6 C6         -1.7196  -13.8260  -50.5705 C.3       23 UNK        -0.0398 
      7 S7         -3.4533  -13.5159  -51.0584 S.3       23 UNK        -0.2404 
      8 C8         -3.6996  -14.7280  -52.3970 C.3       23 UNK        -0.0205 
      9 C9         -3.9088  -16.1356  -51.8586 C.ar      23 UNK        -0.0193 
     10 C10        -5.2010  -16.6111  -51.6047 C.ar      23 UNK        -0.1150 
     11 C11        -5.3931  -17.9100  -51.1241 C.ar      23 UNK        -0.0193 
     12 C12        -4.2858  -18.7293  -50.9034 C.ar      23 UNK        -0.1150 
     13 C13        -2.9919  -18.2544  -51.1111 C.ar      23 UNK        -0.0193 
     14 C14        -2.8093  -16.9641  -51.6122 C.ar      23 UNK        -0.1150 
     15 C15        -1.8013  -19.1328  -50.7686 C.3       23 UNK        -0.0205 
     16 S16        -1.1427  -18.7750  -49.1045 S.3       23 UNK        -0.2404 
     17 C17        -2.5171  -19.2720  -48.0070 C.3       23 UNK        -0.0398 
     18 CA         -2.4634  -20.7809  -47.6785 C.3       11 UNK         0.1400 
     19 N          -1.3721  -21.0935  -46.7480 N.am      11 UNK        -0.5000 
     20 C          -0.9413  -22.3254  -46.4537 C.2       10 UNK         0.5000 
     21 O          -1.4826  -23.3449  -46.8791 O.2       10 UNK        -0.5000 
     22 CA          0.2358  -22.4402  -45.4712 C.3       10 UNK         0.1400 
     23 CB          1.5388  -21.9147  -46.0917 C.3       10 UNK        -0.1800 
     24 N          -0.0370  -21.7445  -44.2155 N.am      10 UNK        -0.5000 
     25 C          -0.9760  -22.1177  -43.3343 C.2       9 UNK         0.5000 
     26 O          -1.6673  -23.1282  -43.4609 O.2       9 UNK        -0.5000 
     27 CA         -1.2037  -21.1958  -42.1224 C.3       9 UNK         0.1400 
     28 CB         -0.2019  -21.5119  -41.0018 C.3       9 UNK        -0.1800 
     29 N          -1.1231  -19.7758  -42.4649 N.am      9 UNK        -0.5000 
     30 C          -1.9684  -19.1417  -43.2906 C.2       8 UNK         0.5000 
     31 O          -2.9407  -19.6759  -43.8228 O.2       8 UNK        -0.5000 
     32 CA         -1.6415  -17.6733  -43.6136 C.3       8 UNK         0.1400 
     33 CB         -2.0703  -16.7494  -42.4629 C.3       8 UNK        -0.1800 
     34 N          -0.2209  -17.4740  -43.9015 N.am      8 UNK        -0.5000 
     35 C           0.4321  -18.0299  -44.9316 C.2       7 UNK         0.5000 
     36 O          -0.1066  -18.7309  -45.7849 O.2       7 UNK        -0.5000 
     37 CA          1.9489  -17.7947  -44.9978 C.3       7 UNK         0.1400 
     38 CB          2.2611  -16.4381  -45.6463 C.3       7 UNK        -0.1800 
     39 N           2.5721  -17.8748  -43.6767 N.am      7 UNK        -0.5000 
     40 C           2.6802  -19.0045  -42.9622 C.2       6 UNK         0.5000 
     41 O           2.3011  -20.1048  -43.3617 O.2       6 UNK        -0.5000 
     42 CA          3.2711  -18.8727  -41.5467 C.3       6 UNK         0.1400 
     43 CB          4.8061  -18.8662  -41.5980 C.3       6 UNK        -0.1800 
     44 N           2.8026  -17.6709  -40.8551 N.am      6 UNK        -0.5000 
     45 C           1.5347  -17.4634  -40.4720 C.2       5 UNK         0.5000 
     46 O           0.6314  -18.2852  -40.6249 O.2       5 UNK        -0.5000 
     47 CA          1.2139  -16.0811  -39.8705 C.3       5 UNK         0.1400 
     48 CB          1.5009  -16.0678  -38.3618 C.3       5 UNK        -0.1800 
     49 N           1.9436  -14.9840  -40.5171 N.am      5 UNK        -0.5000 
     50 C           1.8282  -14.6637  -41.8119 C.2       4 UNK         0.5000 
     51 O           1.0927  -15.2686  -42.5993 O.2       4 UNK        -0.5000 
     52 CA          2.7065  -13.5134  -42.3260 C.3       4 UNK         0.1400 
     53 CB          4.1839  -13.9353  -42.4101 C.3       4 UNK        -0.1800 
     54 N           2.2246  -13.1632  -43.6532 N.am      4 UNK        -0.5000 
     55 C           2.3001  -11.9776  -44.2629 C.2       3 UNK         0.5000 
     56 O           2.8918  -11.0035  -43.7962 O.2       3 UNK        -0.5000 
     57 CA          1.5829  -11.8605  -45.6264 C.3       3 UNK         0.1400 
     58 CB          2.6030  -11.9147  -46.7738 C.3       3 UNK        -0.1800 
     59 N           0.5702  -12.8996  -45.8509 N.am      3 UNK        -0.5000 
     60 C          -0.5820  -13.0118  -45.1731 C.2       2 UNK         0.5000 
     61 O          -0.9429  -12.2068  -44.3133 O.2       2 UNK        -0.5000 
     62 CA         -1.4463  -14.2522  -45.4864 C.3       2 UNK         0.1400 
     63 CB         -2.9147  -14.1003  -45.0377 C.3       2 UNK        -0.1800 
     64 N          -1.3725  -14.6969  -46.8829 N.am      2 UNK        -0.5000 
     65 C          -1.7343  -13.9991  -47.9717 C.2       1 UNK         0.5000 
     66 O          -2.1535  -12.8413  -47.9342 O.2       1 UNK        -0.5000 
     67 C          -3.8479  -21.3156  -47.2472 C.2       11 UNK         0.5000 
     68 O          -4.7512  -21.3675  -48.0821 O.2       11 UNK        -0.5000 
     69 N          -3.9990  -21.7379  -45.9863 N.am      12 UNK        -0.5000 
     70 CA         -5.2070  -22.3812  -45.4779 C.3       12 UNK         0.1400 
     71 CB         -5.1595  -22.4110  -43.9429 C.3       12 UNK        -0.1800 
     72 C          -5.4406  -23.8013  -46.0337 C.2       12 UNK         0.5000 
     73 O          -6.5996  -24.2118  -46.1094 O.2       12 UNK        -0.5000 
     74 N          -4.3744  -24.5343  -46.4001 N.am      13 UNK        -0.5000 
     75 CA         -4.4860  -25.9397  -46.8165 C.3       13 UNK         0.1400 
     76 CB         -4.6560  -26.8458  -45.5818 C.3       13 UNK        -0.1800 
     77 C          -3.3213  -26.4450  -47.6838 C.2       13 UNK         0.5000 
     78 O          -3.5612  -27.2157  -48.6137 O.2       13 UNK        -0.5000 
     79 N          -2.0859  -26.0404  -47.3665 N.am      14 UNK        -0.5000 
     80 CA         -0.8692  -26.4893  -48.0510 C.3       14 UNK         0.1400 
     81 CB          0.3239  -26.3406  -47.0937 C.3       14 UNK        -0.1800 
     82 C          -0.5930  -25.7365  -49.3670 C.2       14 UNK         0.5000 
     83 O           0.1127  -26.2739  -50.2216 O.2       14 UNK        -0.5000 
     84 N          -1.1459  -24.5203  -49.4908 N.am      15 UNK        -0.5000 
     85 CA         -0.9330  -23.5289  -50.5520 C.3       15 UNK         0.1400 
     86 CB         -1.1904  -24.1227  -51.9537 C.3       15 UNK        -0.1800 
     87 C           0.4497  -22.8537  -50.4485 C.2       15 UNK         0.5000 
     88 O           1.2122  -23.1252  -49.5183 O.2       15 UNK        -0.5000 
     89 N           0.7437  -21.9642  -51.4005 N.am      16 UNK        -0.5000 
     90 CA          2.0156  -21.2603  -51.5253 C.3       16 UNK         0.1400 
     91 CB          1.9933  -19.9848  -50.6585 C.3       16 UNK        -0.1800 
     92 C           2.2643  -20.9466  -53.0087 C.2       16 UNK         0.5000 
     93 O           1.4596  -21.3206  -53.8647 O.2       16 UNK        -0.5000 
     94 N           3.3646  -20.2397  -53.2946 N.am      17 UNK        -0.5000 
     95 CA          3.7067  -19.7572  -54.6368 C.3       17 UNK         0.1400 
     96 CB          5.1577  -19.2517  -54.6291 C.3       17 UNK        -0.1800 
     97 C           2.7544  -18.6571  -55.1536 C.2       17 UNK         0.5000 
     98 O           2.6688  -18.4530  -56.3651 O.2       17 UNK        -0.5000 
     99 N           2.0691  -17.9672  -54.2298 N.am      18 UNK        -0.5000 
    100 CA         1.1098  -16.9006  -54.5099 C.3       18 UNK         0.1400 
    101 CB         0.7467  -16.1902  -53.1960 C.3       18 UNK        -0.1800 
    102 C         -0.1550  -17.3899  -55.2404 C.2       18 UNK         0.5000 
    103 O         -0.5678  -16.7536  -56.2109 O.2       18 UNK        -0.5000 
    104 N         -0.7348  -18.5044  -54.7754 N.am      19 UNK        -0.5000 
    105 CA        -1.9437  -19.1291  -55.3110 C.3       19 UNK         0.1400 
    106 CB        -3.1746  -18.2125  -55.1274 C.3       19 UNK        -0.1800 
    107 C         -2.1854  -20.4721  -54.6039 C.2       19 UNK         0.5000 
    108 O         -1.5476  -20.7653  -53.5874 O.2       19 UNK        -0.5000 
    109 N         -3.1397  -21.2432  -55.1427 N.am      20 UNK        -0.5000 
    110 CA        -3.7117  -22.4387  -54.5207 C.3       20 UNK         0.1400 
    111 CB        -4.6713  -23.1049  -55.5189 C.3       20 UNK        -0.1800 
    112 C         -4.4473  -22.1025  -53.2072 C.2       20 UNK         0.5000 
    113 O         -4.9329  -20.9806  -53.0505 O.2       20 UNK        -0.5000 
    114 N         -4.5166  -23.0822  -52.2964 N.am      21 UNK        -0.5000 
    115 CA        -5.0800  -22.9388  -50.9523 C.3       21 UNK         0.1400 
    116 CB        -4.8987  -24.2565  -50.1868 C.3       21 UNK        -0.1800 
    117 C         -6.5613  -22.5130  -50.9369 C.2       21 UNK         0.5000 
    118 O         -7.3245  -22.9071  -51.8225 O.2       21 UNK        -0.5000 
    119 N         -6.9358  -21.7307  -49.9181 N.am      22 UNK        -0.5000 
    120 CA        -8.2807  -21.1473  -49.7689 C.3       22 UNK         0.1400 
    121 C         -9.3904  -22.1602  -49.3586 C.2       22 UNK         0.5000 
    122 N         -9.0604  -23.3499  -48.8708 N.am      22 UNK        -0.7600 
    123 O        -10.5740  -21.8594  -49.4879 O.2       22 UNK        -0.5000 
    124 C124       -8.2980  -19.9213  -48.8137 C.3       23 UNK        -0.0398 
    125 S125       -6.9663  -18.6807  -49.0098 S.3       23 UNK        -0.2404 
    126 C126       -6.7799  -18.4470  -50.8106 C.3       23 UNK        -0.0205 
    127 H127        2.7905  -16.0320  -48.8281 H         1 UNK         0.0600 
    128 H128        2.2942  -16.3542  -50.4892 H         1 UNK         0.0600 
    129 H129        1.5590  -17.2517  -49.1559 H         1 UNK         0.0600 
    130 H130       -0.6008  -16.5990  -49.4158 H         1 UNK         0.3000 
    131 H131       -2.4336  -15.4410  -49.3330 H         1 UNK         0.0600 
    132 H132       -1.2057  -14.2744  -51.4207 H         1 UNK         0.0800 
    133 H133       -1.2160  -12.8710  -50.4113 H         1 UNK         0.0800 
    134 H134       -2.8548  -14.7054  -53.0870 H         1 UNK         0.0800 
    135 H135       -4.5704  -14.4275  -52.9815 H         1 UNK         0.0800 
    136 H136       -6.0536  -15.9695  -51.7773 H         1 UNK         0.1150 
    137 H137       -4.4364  -19.7312  -50.5277 H         1 UNK         0.1150 
    138 H138       -1.8110  -16.5972  -51.7918 H         1 UNK         0.1150 
    139 H139       -2.0719  -20.1871  -50.8399 H         1 UNK         0.0800 
    140 H140       -1.0148  -18.9750  -51.5065 H         1 UNK         0.0800 
    141 H141       -2.4575  -18.6858  -47.0889 H         1 UNK         0.0800 
    142 H142       -3.4648  -18.9851  -48.4580 H         1 UNK         0.0800 
    143 H143       -2.2423  -21.3124  -48.6047 H         1 UNK         0.0600 
    144 H144       -0.8867  -20.2909  -46.3502 H         1 UNK         0.3000 
    145 H145        0.3776  -23.4979  -45.2416 H         1 UNK         0.0600 
    146 H146        2.3784  -22.0388  -45.4078 H         1 UNK         0.0600 
    147 H147        1.7820  -22.4602  -47.0034 H         1 UNK         0.0600 
    148 H148        1.4722  -20.8581  -46.3504 H         1 UNK         0.0600 
    149 H149        0.5348  -20.9325  -44.0096 H         1 UNK         0.3000 
    150 H150       -2.2095  -21.3902  -41.7442 H         1 UNK         0.0600 
    151 H151       -0.2550  -22.5627  -40.7145 H         1 UNK         0.0600 
    152 H152       -0.4089  -20.9197  -40.1102 H         1 UNK         0.0600 
    153 H153        0.8238  -21.3057  -41.3087 H         1 UNK         0.0600 
    154 H154       -0.3762  -19.2449  -42.0269 H         1 UNK         0.3000 
    155 H155       -2.2047  -17.3926  -44.5060 H         1 UNK         0.0600 
    156 H156       -1.8278  -15.7083  -42.6729 H         1 UNK         0.0600 
    157 H157       -1.5831  -17.0177  -41.5257 H         1 UNK         0.0600 
    158 H158       -3.1470  -16.8077  -42.2998 H         1 UNK         0.0600 
    159 H159        0.2948  -16.8712  -43.2666 H         1 UNK         0.3000 
    160 H160        2.3793  -18.5770  -45.6265 H         1 UNK         0.0600 
    161 H161        1.8853  -15.6063  -45.0548 H         1 UNK         0.0600 
    162 H162        1.7978  -16.3677  -46.6292 H         1 UNK         0.0600 
    163 H163        3.3341  -16.2996  -45.7791 H         1 UNK         0.0600 
    164 H164        2.8630  -17.0061  -43.2556 H         1 UNK         0.3000 
    165 H165        2.9518  -19.7435  -40.9701 H         1 UNK         0.0600 
    166 H166        5.1893  -18.0010  -42.1406 H         1 UNK         0.0600 
    167 H167        5.2336  -18.8503  -40.5954 H         1 UNK         0.0600 
    168 H168        5.1831  -19.7602  -42.0967 H         1 UNK         0.0600 
    169 H169        3.4815  -16.9431  -40.6888 H         1 UNK         0.3000 
    170 H170        0.1467  -15.9006  -40.0152 H         1 UNK         0.0600 
    171 H171        0.9550  -16.8641  -37.8539 H         1 UNK         0.0600 
    172 H172        2.5615  -16.2104  -38.1511 H         1 UNK         0.0600 
    173 H173        1.1920  -15.1250  -37.9099 H         1 UNK         0.0600 
    174 H174        2.5674  -14.4488  -39.9303 H         1 UNK         0.3000 
    175 H175        2.5936  -12.6601  -41.6543 H         1 UNK         0.0600 
    176 H176        4.8028  -13.1248  -42.7954 H         1 UNK         0.0600 
    177 H177        4.5767  -14.2008  -41.4281 H         1 UNK         0.0600 
    178 H178        4.3196  -14.7970  -43.0649 H         1 UNK         0.0600 
    179 H179        1.6539  -13.8849  -44.0722 H         1 UNK         0.3000 
    180 H180        1.0855  -10.8889  -45.6529 H         1 UNK         0.0600 
    181 H181        2.1207  -11.7500  -47.7377 H         1 UNK         0.0600 
    182 H182        3.3662  -11.1441  -46.6577 H         1 UNK         0.0600 
    183 H183        3.1116  -12.8789  -46.8143 H         1 UNK         0.0600 
    184 H184        0.7681  -13.5682  -46.5817 H         1 UNK         0.3000 
    185 H185       -1.0090  -15.0553  -44.8958 H         1 UNK         0.0600 
    186 H186       -3.4797  -15.0134  -45.2247 H         1 UNK         0.0600 
    187 H187       -2.9810  -13.8943  -43.9689 H         1 UNK         0.0600 
    188 H188       -3.4148  -13.2830  -45.5578 H         1 UNK         0.0600 
    189 H189       -1.0277  -15.6350  -47.0285 H         1 UNK         0.3000 
    190 H190       -3.2301  -21.6265  -45.3394 H         1 UNK         0.3000 
    191 H191       -6.0624  -21.7698  -45.7740 H         1 UNK         0.0600 
    192 H192       -6.0746  -22.8399  -43.5326 H         1 UNK         0.0600 
    193 H193       -5.0592  -21.4073  -43.5300 H         1 UNK         0.0600 
    194 H194       -4.3258  -23.0106  -43.5778 H         1 UNK         0.0600 
    195 H195       -3.4512  -24.1183  -46.3717 H         1 UNK         0.3000 
    196 H196       -5.3802  -26.0442  -47.4351 H         1 UNK         0.0600 
    197 H197       -4.7066  -27.8970  -45.8688 H         1 UNK         0.0600 
    198 H198       -5.5747  -26.6174  -45.0415 H         1 UNK         0.0600 
    199 H199       -3.8230  -26.7339  -44.8869 H         1 UNK         0.0600 
    200 H200       -1.9511  -25.3492  -46.6402 H         1 UNK         0.3000 
    201 H201       -0.9734  -27.5492  -48.2929 H         1 UNK         0.0600 
    202 H202        0.1543  -26.8780  -46.1605 H         1 UNK         0.0600 
    203 H203        0.5176  -25.2956  -46.8525 H         1 UNK         0.0600 
    204 H204        1.2332  -26.7440  -47.5409 H         1 UNK         0.0600 
    205 H205       -1.5915  -24.1607  -48.6532 H         1 UNK         0.3000 
    206 H206       -1.6766  -22.7497  -50.3843 H         1 UNK         0.0600 
    207 H207       -2.1152  -24.6974  -51.9811 H         1 UNK         0.0600 
    208 H208       -1.2715  -23.3333  -52.6992 H         1 UNK         0.0600 
    209 H209       -0.3809  -24.7783  -52.2750 H         1 UNK         0.0600 
    210 H210        0.1100  -21.8162  -52.1799 H         1 UNK         0.3000 
    211 H211        2.8254  -21.9120  -51.1907 H         1 UNK         0.0600 
    212 H212        1.2860  -19.2500  -51.0415 H         1 UNK         0.0600 
    213 H213        2.9735  -19.5090  -50.6240 H         1 UNK         0.0600 
    214 H214        1.7141  -20.2091  -49.6285 H         1 UNK         0.0600 
    215 H215        3.9949  -19.9812  -52.5491 H         1 UNK         0.3000 
    216 H216        3.6417  -20.5986  -55.3300 H         1 UNK         0.0600 
    217 H217        5.4584  -18.9113  -55.6209 H         1 UNK         0.0600 
    218 H218        5.8495  -20.0414  -54.3354 H         1 UNK         0.0600 
    219 H219        5.2893  -18.4153  -53.9414 H         1 UNK         0.0600 
    220 H220        2.2216  -18.1981  -53.2606 H         1 UNK         0.3000 
    221 H221        1.6000  -16.1725  -55.1599 H         1 UNK         0.0600 
    222 H222        0.3856  -16.8923  -52.4444 H         1 UNK         0.0600 
    223 H223        1.6107  -15.6714  -52.7809 H         1 UNK         0.0600 
    224 H224       -0.0315  -15.4426  -53.3550 H         1 UNK         0.0600 
    225 H225       -0.3149  -19.0192  -54.0116 H         1 UNK         0.3000 
    226 H226       -1.7862  -19.3239  -56.3735 H         1 UNK         0.0600 
    227 H227       -3.0439  -17.2385  -55.5967 H         1 UNK         0.0600 
    228 H228       -4.0660  -18.6556  -55.5720 H         1 UNK         0.0600 
    229 H229       -3.3935  -18.0488  -54.0735 H         1 UNK         0.0600 
    230 H230       -3.6251  -20.9021  -55.9588 H         1 UNK         0.3000 
    231 H231       -2.8977  -23.1319  -54.3064 H         1 UNK         0.0600 
    232 H232       -5.0954  -24.0201  -55.1037 H         1 UNK         0.0600 
    233 H233       -4.1573  -23.3759  -56.4413 H         1 UNK         0.0600 
    234 H234       -5.5025  -22.4472  -55.7770 H         1 UNK         0.0600 
    235 H235       -4.1551  -23.9938  -52.5316 H         1 UNK         0.3000 
    236 H236       -4.4917  -22.1659  -50.4580 H         1 UNK         0.0600 
    237 H237       -5.4410  -25.0760  -50.6600 H         1 UNK         0.0600 
    238 H238       -3.8499  -24.5407  -50.1243 H         1 UNK         0.0600 
    239 H239       -5.2700  -24.1632  -49.1663 H         1 UNK         0.0600 
    240 H240       -6.2477  -21.4710  -49.2141 H         1 UNK         0.3000 
    241 H241       -8.5819  -20.7890  -50.7546 H         1 UNK         0.0600 
    242 H242       -9.7863  -23.9982  -48.6091 H         1 UNK         0.3800 
    243 H243       -8.0936  -23.6000  -48.7391 H         1 UNK         0.3800 
    244 H244       -8.2455  -20.2635  -47.7785 H         1 UNK         0.0800 
    245 H245       -9.2506  -19.3965  -48.9040 H         1 UNK         0.0800 
    246 H246       -6.9017  -19.3845  -51.3509 H         1 UNK         0.0800 
    247 H247       -7.5567  -17.7720  -51.1722 H         1 UNK         0.0800 
@<TRIPOS>BOND
     1    1    2 1    
     2    1  127 1    
     3    1  128 1    
     4    1  129 1    
     5    2    3 2    
     6    2    4 am   BACKBONE|DICT|INTERRES
     7    4    5 1    
     8    4  130 1    
     9    5    6 1    
    10    5   65 1    
    11    5  131 1    
    12    6    7 1    
    13    6  132 1    
    14    6  133 1    
    15    7    8 1    
    16    8    9 1    
    17    8  134 1    
    18    8  135 1    
    19    9   10 ar   
    20    9   14 ar   
    21   10   11 ar   
    22   10  136 1    
    23   11   12 ar   
    24   11  126 1    
    25   12   13 ar   
    26   12  137 1    
    27   13   14 ar   
    28   13   15 1    
    29   14  138 1    
    30   15   16 1    
    31   15  139 1    
    32   15  140 1    
    33   16   17 1    
    34   17   18 1    
    35   17  141 1    
    36   17  142 1    
    37   18   19 1    
    38   18   67 1    
    39   18  143 1    
    40   19   20 am   BACKBONE|DICT|INTERRES
    41   19  144 1    
    42   20   21 2    
    43   20   22 1    
    44   22   23 1    
    45   22   24 1    
    46   22  145 1    
    47   23  146 1    
    48   23  147 1    
    49   23  148 1    
    50   24   25 am   BACKBONE|DICT|INTERRES
    51   24  149 1    
    52   25   26 2    
    53   25   27 1    
    54   27   28 1    
    55   27   29 1    
    56   27  150 1    
    57   28  151 1    
    58   28  152 1    
    59   28  153 1    
    60   29   30 am   BACKBONE|DICT|INTERRES
    61   29  154 1    
    62   30   31 2    
    63   30   32 1    
    64   32   33 1    
    65   32   34 1    
    66   32  155 1    
    67   33  156 1    
    68   33  157 1    
    69   33  158 1    
    70   34   35 am   BACKBONE|DICT|INTERRES
    71   34  159 1    
    72   35   36 2    
    73   35   37 1    
    74   37   38 1    
    75   37   39 1    
    76   37  160 1    
    77   38  161 1    
    78   38  162 1    
    79   38  163 1    
    80   39   40 am   BACKBONE|DICT|INTERRES
    81   39  164 1    
    82   40   41 2    
    83   40   42 1    
    84   42   43 1    
    85   42   44 1    
    86   42  165 1    
    87   43  166 1    
    88   43  167 1    
    89   43  168 1    
    90   44   45 am   BACKBONE|DICT|INTERRES
    91   44  169 1    
    92   45   46 2    
    93   45   47 1    
    94   47   48 1    
    95   47   49 1    
    96   47  170 1    
    97   48  171 1    
    98   48  172 1    
    99   48  173 1    
   100   49   50 am   BACKBONE|DICT|INTERRES
   101   49  174 1    
   102   50   51 2    
   103   50   52 1    
   104   52   53 1    
   105   52   54 1    
   106   52  175 1    
   107   53  176 1    
   108   53  177 1    
   109   53  178 1    
   110   54   55 am   BACKBONE|DICT|INTERRES
   111   54  179 1    
   112   55   56 2    
   113   55   57 1    
   114   57   58 1    
   115   57   59 1    
   116   57  180 1    
   117   58  181 1    
   118   58  182 1    
   119   58  183 1    
   120   59   60 am   BACKBONE|DICT|INTERRES
   121   59  184 1    
   122   60   61 2    
   123   60   62 1    
   124   62   63 1    
   125   62   64 1    
   126   62  185 1    
   127   63  186 1    
   128   63  187 1    
   129   63  188 1    
   130   64   65 am   BACKBONE|DICT|INTERRES
   131   64  189 1    
   132   65   66 2    
   133   67   68 2    
   134   67   69 am   BACKBONE|DICT|INTERRES
   135   69   70 1    
   136   69  190 1    
   137   70   71 1    
   138   70   72 1    
   139   70  191 1    
   140   71  192 1    
   141   71  193 1    
   142   71  194 1    
   143   72   73 2    
   144   72   74 am   BACKBONE|DICT|INTERRES
   145   74   75 1    
   146   74  195 1    
   147   75   76 1    
   148   75   77 1    
   149   75  196 1    
   150   76  197 1    
   151   76  198 1    
   152   76  199 1    
   153   77   78 2    
   154   77   79 am   BACKBONE|DICT|INTERRES
   155   79   80 1    
   156   79  200 1    
   157   80   81 1    
   158   80   82 1    
   159   80  201 1    
   160   81  202 1    
   161   81  203 1    
   162   81  204 1    
   163   82   83 2    
   164   82   84 am   BACKBONE|DICT|INTERRES
   165   84   85 1    
   166   84  205 1    
   167   85   86 1    
   168   85   87 1    
   169   85  206 1    
   170   86  207 1    
   171   86  208 1    
   172   86  209 1    
   173   87   88 2    
   174   87   89 am   BACKBONE|DICT|INTERRES
   175   89   90 1    
   176   89  210 1    
   177   90   91 1    
   178   90   92 1    
   179   90  211 1    
   180   91  212 1    
   181   91  213 1    
   182   91  214 1    
   183   92   93 2    
   184   92   94 am   BACKBONE|DICT|INTERRES
   185   94   95 1    
   186   94  215 1    
   187   95   96 1    
   188   95   97 1    
   189   95  216 1    
   190   96  217 1    
   191   96  218 1    
   192   96  219 1    
   193   97   98 2    
   194   97   99 am   BACKBONE|DICT|INTERRES
   195   99  100 1    
   196   99  220 1    
   197  100  101 1    
   198  100  102 1    
   199  100  221 1    
   200  101  222 1    
   201  101  223 1    
   202  101  224 1    
   203  102  103 2    
   204  102  104 am   BACKBONE|DICT|INTERRES
   205  104  105 1    
   206  104  225 1    
   207  105  106 1    
   208  105  107 1    
   209  105  226 1    
   210  106  227 1    
   211  106  228 1    
   212  106  229 1    
   213  107  108 2    
   214  107  109 am   BACKBONE|DICT|INTERRES
   215  109  110 1    
   216  109  230 1    
   217  110  111 1    
   218  110  112 1    
   219  110  231 1    
   220  111  232 1    
   221  111  233 1    
   222  111  234 1    
   223  112  113 2    
   224  112  114 am   BACKBONE|DICT|INTERRES
   225  114  115 1    
   226  114  235 1    
   227  115  116 1    
   228  115  117 1    
   229  115  236 1    
   230  116  237 1    
   231  116  238 1    
   232  116  239 1    
   233  117  118 2    
   234  117  119 am   BACKBONE|DICT|INTERRES
   235  119  120 1    
   236  119  240 1    
   237  120  121 1    
   238  120  124 1    
   239  120  241 1    
   240  121  122 am   BACKBONE|DICT|INTERRES
   241  121  123 2    
   242  122  242 1    
   243  122  243 1    
   244  124  125 1    
   245  124  244 1    
   246  124  245 1    
   247  125  126 1    
   248  126  246 1    
   249  126  247 1    
@<TRIPOS>SUBSTRUCTURE
     1 UNK         1 GROUP             0       ****    0 ROOT    
