@<TRIPOS>MOLECULE
3R540
247   249    1
SMALL
USER_CHARGES


@<TRIPOS>ATOM
      1 CA          6.6094  -12.9092  -50.5815 C.3       0 UNK        -0.1800 
      2 C           5.5875  -12.4410  -49.5551 C.2       0 UNK         0.5000 
      3 O           5.3613  -11.2378  -49.4263 O.2       0 UNK        -0.5000 
      4 N           4.9783  -13.3891  -48.8286 N.am      1 UNK        -0.5000 
      5 CA          3.9562  -13.1775  -47.7918 C.3       1 UNK         0.1400 
      6 C6          2.6161  -12.6027  -48.3298 C.3       23 UNK        -0.0398 
      7 S7          1.8717  -13.6493  -49.6230 S.3       23 UNK        -0.2404 
      8 C8          0.7993  -14.7106  -48.6095 C.3       23 UNK        -0.0205 
      9 C9          0.1468  -15.7940  -49.4508 C.ar      23 UNK        -0.0193 
     10 C10        -1.2022  -15.7032  -49.8053 C.ar      23 UNK        -0.1150 
     11 C11        -1.8149  -16.7218  -50.5419 C.ar      23 UNK        -0.0193 
     12 C12        -1.0515  -17.8202  -50.9515 C.ar      23 UNK        -0.1150 
     13 C13         0.2993  -17.9232  -50.6051 C.ar      23 UNK        -0.0193 
     14 C14         0.8898  -16.9082  -49.8485 C.ar      23 UNK        -0.1150 
     15 C15         1.1232  -19.1333  -51.0312 C.3       23 UNK        -0.0205 
     16 S16         0.3834  -20.7138  -50.5041 S.3       23 UNK        -0.2404 
     17 C17         0.2464  -20.4308  -48.7081 C.3       23 UNK        -0.0398 
     18 CA          0.1584  -21.7248  -47.8680 C.3       11 UNK         0.1400 
     19 N           0.3103  -21.4358  -46.4416 N.am      11 UNK        -0.5000 
     20 C           0.3929  -22.3506  -45.4660 C.2       10 UNK         0.5000 
     21 O           0.4136  -23.5660  -45.6614 O.2       10 UNK        -0.5000 
     22 CA          0.3994  -21.8129  -44.0237 C.3       10 UNK         0.1400 
     23 CB          1.7982  -21.3146  -43.6318 C.3       10 UNK        -0.1800 
     24 N          -0.5826  -20.7450  -43.8198 N.am      10 UNK        -0.5000 
     25 C          -1.9087  -20.9080  -43.9385 C.2       9 UNK         0.5000 
     26 O          -2.4436  -21.9877  -44.1871 O.2       9 UNK        -0.5000 
     27 CA         -2.7863  -19.6522  -43.7992 C.3       9 UNK         0.1400 
     28 CB         -2.9837  -19.2880  -42.3206 C.3       9 UNK        -0.1800 
     29 N          -2.2520  -18.5023  -44.5293 N.am      9 UNK        -0.5000 
     30 C          -2.1001  -18.4490  -45.8606 C.2       8 UNK         0.5000 
     31 O          -2.4265  -19.3581  -46.6226 O.2       8 UNK        -0.5000 
     32 CA         -1.4210  -17.1927  -46.4348 C.3       8 UNK         0.1400 
     33 CB         -2.4101  -16.0208  -46.5177 C.3       8 UNK        -0.1800 
     34 N          -0.2413  -16.7922  -45.6670 N.am      8 UNK        -0.5000 
     35 C           0.8544  -17.5503  -45.5151 C.2       7 UNK         0.5000 
     36 O           1.0116  -18.6463  -46.0516 O.2       7 UNK        -0.5000 
     37 CA          1.9284  -17.0222  -44.5507 C.3       7 UNK         0.1400 
     38 CB          2.8336  -15.9878  -45.2396 C.3       7 UNK        -0.1800 
     39 N           1.3285  -16.4578  -43.3403 N.am      7 UNK        -0.5000 
     40 C           0.7098  -17.1933  -42.4034 C.2       6 UNK         0.5000 
     41 O           0.6529  -18.4225  -42.4295 O.2       6 UNK        -0.5000 
     42 CA         -0.0169  -16.4314  -41.2811 C.3       6 UNK         0.1400 
     43 CB          0.9183  -16.1634  -40.0948 C.3       6 UNK        -0.1800 
     44 N          -0.5988  -15.1747  -41.7551 N.am      6 UNK        -0.5000 
     45 C          -1.6852  -15.1185  -42.5396 C.2       5 UNK         0.5000 
     46 O          -2.3064  -16.1146  -42.9064 O.2       5 UNK        -0.5000 
     47 CA         -2.1387  -13.7330  -43.0341 C.3       5 UNK         0.1400 
     48 CB         -3.1568  -13.1220  -42.0604 C.3       5 UNK        -0.1800 
     49 N          -1.0388  -12.7906  -43.2339 N.am      5 UNK        -0.5000 
     50 C          -0.0291  -12.9512  -44.0991 C.2       4 UNK         0.5000 
     51 O           0.0884  -13.9343  -44.8334 O.2       4 UNK        -0.5000 
     52 CA          1.0463  -11.8460  -44.1364 C.3       4 UNK         0.1400 
     53 CB          0.6628  -10.5642  -43.3636 C.3       4 UNK        -0.1800 
     54 N           2.3572  -12.3236  -43.6870 N.am      4 UNK        -0.5000 
     55 C           2.6581  -12.9242  -42.5238 C.2       3 UNK         0.5000 
     56 O           1.8138  -13.2208  -41.6772 O.2       3 UNK        -0.5000 
     57 CA          4.1428  -13.2564  -42.2555 C.3       3 UNK         0.1400 
     58 CB          4.3221  -14.6816  -41.7049 C.3       3 UNK        -0.1800 
     59 N           4.9746  -13.1007  -43.4522 N.am      3 UNK        -0.5000 
     60 C           5.7524  -12.0417  -43.7151 C.2       2 UNK         0.5000 
     61 O           5.9011  -11.0904  -42.9476 O.2       2 UNK        -0.5000 
     62 CA          6.4636  -12.0277  -45.0840 C.3       2 UNK         0.1400 
     63 CB          7.8658  -12.6442  -44.9670 C.3       2 UNK        -0.1800 
     64 N           5.7294  -12.7096  -46.1568 N.am      2 UNK        -0.5000 
     65 C           4.5073  -12.3707  -46.5946 C.2       1 UNK         0.5000 
     66 O           3.8319  -11.4759  -46.0843 O.2       1 UNK        -0.5000 
     67 C          -1.1378  -22.5129  -48.1467 C.2       11 UNK         0.5000 
     68 O          -1.0808  -23.5633  -48.7853 O.2       11 UNK        -0.5000 
     69 N          -2.2712  -22.0252  -47.6210 N.am      12 UNK        -0.5000 
     70 CA         -3.5776  -22.6743  -47.7194 C.3       12 UNK         0.1400 
     71 CB         -4.6588  -21.7703  -47.1115 C.3       12 UNK        -0.1800 
     72 C          -3.6057  -24.0731  -47.0812 C.2       12 UNK         0.5000 
     73 O          -4.1563  -24.9914  -47.6852 O.2       12 UNK        -0.5000 
     74 N          -2.9861  -24.2279  -45.9039 N.am      13 UNK        -0.5000 
     75 CA         -2.8475  -25.5087  -45.2103 C.3       13 UNK         0.1400 
     76 CB         -2.2504  -25.2819  -43.8131 C.3       13 UNK        -0.1800 
     77 C          -2.0141  -26.5295  -46.0068 C.2       13 UNK         0.5000 
     78 O          -2.4344  -27.6793  -46.1420 O.2       13 UNK        -0.5000 
     79 N          -0.8697  -26.0858  -46.5455 N.am      14 UNK        -0.5000 
     80 CA          0.0341  -26.8998  -47.3606 C.3       14 UNK         0.1400 
     81 CB          1.3482  -26.1347  -47.5797 C.3       14 UNK        -0.1800 
     82 C          -0.5787  -27.3199  -48.7099 C.2       14 UNK         0.5000 
     83 O          -0.3975  -28.4622  -49.1326 O.2       14 UNK        -0.5000 
     84 N          -1.2992  -26.3938  -49.3536 N.am      15 UNK        -0.5000 
     85 CA         -1.9299  -26.5782  -50.6615 C.3       15 UNK         0.1400 
     86 CB         -2.0105  -25.2101  -51.3494 C.3       15 UNK        -0.1800 
     87 C          -3.3239  -27.2357  -50.6002 C.2       15 UNK         0.5000 
     88 O          -3.9406  -27.4119  -51.6509 O.2       15 UNK        -0.5000 
     89 N          -3.8091  -27.5662  -49.3943 N.am      16 UNK        -0.5000 
     90 CA         -5.1107  -28.1787  -49.1025 C.3       16 UNK         0.1400 
     91 CB         -5.1795  -29.6164  -49.6588 C.3       16 UNK        -0.1800 
     92 C          -6.2927  -27.2924  -49.5516 C.2       16 UNK         0.5000 
     93 O          -7.1624  -27.7340  -50.3038 O.2       16 UNK        -0.5000 
     94 N          -6.2706  -26.0397  -49.0796 N.am      17 UNK        -0.5000 
     95 CA         -7.2430  -24.9555  -49.2593 C.3       17 UNK         0.1400 
     96 CB         -8.6704  -25.3933  -48.8722 C.3       17 UNK        -0.1800 
     97 C          -7.2017  -24.2623  -50.6354 C.2       17 UNK         0.5000 
     98 O          -7.8937  -23.2587  -50.8115 O.2       17 UNK        -0.5000 
     99 N          -6.3850  -24.7589  -51.5753 N.am      18 UNK        -0.5000 
    100 CA        -6.1959  -24.1505  -52.8961 C.3       18 UNK         0.1400 
    101 CB        -5.5836  -25.1881  -53.8480 C.3       18 UNK        -0.1800 
    102 C         -5.3230  -22.8806  -52.8545 C.2       18 UNK         0.5000 
    103 O         -5.4828  -22.0072  -53.7096 O.2       18 UNK        -0.5000 
    104 N         -4.4147  -22.8101  -51.8681 N.am      19 UNK        -0.5000 
    105 CA        -3.4097  -21.7623  -51.6563 C.3       19 UNK         0.1400 
    106 CB        -4.0900  -20.4907  -51.1045 C.3       19 UNK        -0.1800 
    107 C         -2.5571  -21.5446  -52.9266 C.2       19 UNK         0.5000 
    108 O         -1.9391  -22.4989  -53.4005 O.2       19 UNK        -0.5000 
    109 N         -2.5789  -20.3277  -53.4798 N.am      20 UNK        -0.5000 
    110 CA        -2.0080  -19.9844  -54.7820 C.3       20 UNK         0.1400 
    111 CB        -0.8731  -18.9648  -54.5827 C.3       20 UNK        -0.1800 
    112 C         -3.1189  -19.4712  -55.7181 C.2       20 UNK         0.5000 
    113 O         -2.8962  -18.5213  -56.4704 O.2       20 UNK        -0.5000 
    114 N         -4.3073  -20.0939  -55.6313 N.am      21 UNK        -0.5000 
    115 CA        -5.5583  -19.7133  -56.2997 C.3       21 UNK         0.1400 
    116 CB        -5.4442  -19.8521  -57.8326 C.3       21 UNK        -0.1800 
    117 C         -6.0493  -18.3243  -55.8400 C.2       21 UNK         0.5000 
    118 O         -6.4768  -17.5050  -56.6555 O.2       21 UNK        -0.5000 
    119 N         -5.9483  -18.0878  -54.5261 N.am      22 UNK        -0.5000 
    120 CA        -6.2506  -16.8094  -53.8624 C.3       22 UNK         0.1400 
    121 C         -7.7682  -16.4837  -53.7272 C.2       22 UNK         0.5000 
    122 N         -8.6793  -17.4091  -54.0025 N.am      22 UNK        -0.7600 
    123 O         -8.1264  -15.3646  -53.3702 O.2       22 UNK        -0.5000 
    124 C124       -5.5447  -16.7052  -52.4854 C.3       23 UNK        -0.0398 
    125 S125       -3.7303  -16.8899  -52.5821 S.3       23 UNK        -0.2404 
    126 C126       -3.3117  -16.6584  -50.8247 C.3       23 UNK        -0.0205 
    127 H127        6.7083  -13.9949  -50.5906 H         1 UNK         0.0600 
    128 H128        7.5869  -12.4806  -50.3602 H         1 UNK         0.0600 
    129 H129        6.3125  -12.5870  -51.5796 H         1 UNK         0.0600 
    130 H130        5.2143  -14.3556  -49.0047 H         1 UNK         0.3000 
    131 H131        3.7395  -14.1676  -47.3905 H         1 UNK         0.0600 
    132 H132        2.7646  -11.6037  -48.7420 H         1 UNK         0.0800 
    133 H133        1.8910  -12.4880  -47.5220 H         1 UNK         0.0800 
    134 H134        1.3860  -15.1767  -47.8175 H         1 UNK         0.0800 
    135 H135        0.0440  -14.0986  -48.1140 H         1 UNK         0.0800 
    136 H136       -1.7821  -14.8507  -49.4809 H         1 UNK         0.1150 
    137 H137       -1.5094  -18.6100  -51.5262 H         1 UNK         0.1150 
    138 H138        1.9310  -16.9802  -49.5671 H         1 UNK         0.1150 
    139 H139        1.2311  -19.1292  -52.1149 H         1 UNK         0.0800 
    140 H140        2.1348  -19.0730  -50.6268 H         1 UNK         0.0800 
    141 H141        1.1260  -19.8645  -48.3994 H         1 UNK         0.0800 
    142 H142       -0.6095  -19.7813  -48.5202 H         1 UNK         0.0800 
    143 H143        0.9966  -22.3659  -48.1493 H         1 UNK         0.0600 
    144 H144        0.3451  -20.4525  -46.1867 H         1 UNK         0.3000 
    145 H145        0.1358  -22.6394  -43.3607 H         1 UNK         0.0600 
    146 H146        1.8290  -21.0132  -42.5846 H         1 UNK         0.0600 
    147 H147        2.5444  -22.0984  -43.7670 H         1 UNK         0.0600 
    148 H148        2.1056  -20.4594  -44.2342 H         1 UNK         0.0600 
    149 H149       -0.2170  -19.8325  -43.5667 H         1 UNK         0.3000 
    150 H150       -3.7655  -19.8850  -44.2223 H         1 UNK         0.0600 
    151 H151       -3.4011  -20.1280  -41.7640 H         1 UNK         0.0600 
    152 H152       -3.6727  -18.4506  -42.2094 H         1 UNK         0.0600 
    153 H153       -2.0426  -19.0135  -41.8441 H         1 UNK         0.0600 
    154 H154       -2.0199  -17.6826  -43.9756 H         1 UNK         0.3000 
    155 H155       -1.0892  -17.4335  -47.4460 H         1 UNK         0.0600 
    156 H156       -3.2361  -16.2597  -47.1886 H         1 UNK         0.0600 
    157 H157       -1.9291  -15.1207  -46.8996 H         1 UNK         0.0600 
    158 H158       -2.8377  -15.7816  -45.5446 H         1 UNK         0.0600 
    159 H159       -0.2683  -15.8815  -45.2202 H         1 UNK         0.3000 
    160 H160        2.5531  -17.8695  -44.2596 H         1 UNK         0.0600 
    161 H161        2.3033  -15.0651  -45.4697 H         1 UNK         0.0600 
    162 H162        3.2265  -16.3825  -46.1776 H         1 UNK         0.0600 
    163 H163        3.6908  -15.7365  -44.6179 H         1 UNK         0.0600 
    164 H164        1.2678  -15.4515  -43.2814 H         1 UNK         0.3000 
    165 H165       -0.8270  -17.0693  -40.9217 H         1 UNK         0.0600 
    166 H166        0.3855  -15.6837  -39.2737 H         1 UNK         0.0600 
    167 H167        1.3383  -17.0942  -39.7113 H         1 UNK         0.0600 
    168 H168        1.7497  -15.5200  -40.3744 H         1 UNK         0.0600 
    169 H169       -0.0963  -14.3223  -41.5355 H         1 UNK         0.3000 
    170 H170       -2.6312  -13.8735  -43.9981 H         1 UNK         0.0600 
    171 H171       -4.0036  -13.7929  -41.9092 H         1 UNK         0.0600 
    172 H172       -2.7128  -12.9281  -41.0831 H         1 UNK         0.0600 
    173 H173       -3.5537  -12.1814  -42.4426 H         1 UNK         0.0600 
    174 H174       -1.0401  -11.9666  -42.6507 H         1 UNK         0.3000 
    175 H175        1.1588  -11.5741  -45.1866 H         1 UNK         0.0600 
    176 H176        0.5737  -10.7389  -42.2907 H         1 UNK         0.0600 
    177 H177        1.4163   -9.7893  -43.5060 H         1 UNK         0.0600 
    178 H178       -0.2838  -10.1550  -43.7190 H         1 UNK         0.0600 
    179 H179        3.1152  -12.1179  -44.3285 H         1 UNK         0.3000 
    180 H180        4.4793  -12.5655  -41.4800 H         1 UNK         0.0600 
    181 H181        3.8418  -15.4308  -42.3324 H         1 UNK         0.0600 
    182 H182        3.8942  -14.7650  -40.7061 H         1 UNK         0.0600 
    183 H183        5.3771  -14.9423  -41.6185 H         1 UNK         0.0600 
    184 H184        4.9208  -13.8352  -44.1420 H         1 UNK         0.3000 
    185 H185        6.5755  -10.9824  -45.3792 H         1 UNK         0.0600 
    186 H186        8.4505  -12.1426  -44.1946 H         1 UNK         0.0600 
    187 H187        7.8198  -13.7028  -44.7083 H         1 UNK         0.0600 
    188 H188        8.4182  -12.5497  -45.9021 H         1 UNK         0.0600 
    189 H189        6.2229  -13.4469  -46.6391 H         1 UNK         0.3000 
    190 H190       -2.2450  -21.1367  -47.1249 H         1 UNK         0.3000 
    191 H191       -3.8031  -22.7984  -48.7796 H         1 UNK         0.0600 
    192 H192       -4.6971  -20.8064  -47.6191 H         1 UNK         0.0600 
    193 H193       -5.6460  -22.2252  -47.2012 H         1 UNK         0.0600 
    194 H194       -4.4774  -21.5821  -46.0531 H         1 UNK         0.0600 
    195 H195       -2.6014  -23.4105  -45.4371 H         1 UNK         0.3000 
    196 H196       -3.8485  -25.9264  -45.0841 H         1 UNK         0.0600 
    197 H197       -2.1486  -26.2242  -43.2735 H         1 UNK         0.0600 
    198 H198       -2.8878  -24.6312  -43.2143 H         1 UNK         0.0600 
    199 H199       -1.2624  -24.8240  -43.8655 H         1 UNK         0.0600 
    200 H200       -0.5813  -25.1278  -46.3669 H         1 UNK         0.3000 
    201 H201        0.2611  -27.8102  -46.8021 H         1 UNK         0.0600 
    202 H202        1.8359  -25.9109  -46.6307 H         1 UNK         0.0600 
    203 H203        1.1814  -25.1901  -48.0993 H         1 UNK         0.0600 
    204 H204        2.0487  -26.7205  -48.1760 H         1 UNK         0.0600 
    205 H205       -1.3534  -25.4579  -48.9585 H         1 UNK         0.3000 
    206 H206       -1.2978  -27.2245  -51.2739 H         1 UNK         0.0600 
    207 H207       -1.0241  -24.7564  -51.4490 H         1 UNK         0.0600 
    208 H208       -2.4328  -25.2855  -52.3519 H         1 UNK         0.0600 
    209 H209       -2.6327  -24.5285  -50.7729 H         1 UNK         0.0600 
    210 H210       -3.2441  -27.3353  -48.5878 H         1 UNK         0.3000 
    211 H211       -5.1764  -28.2472  -48.0155 H         1 UNK         0.0600 
    212 H212       -5.1527  -29.6353  -50.7486 H         1 UNK         0.0600 
    213 H213       -6.1009  -30.1098  -49.3473 H         1 UNK         0.0600 
    214 H214       -4.3488  -30.2196  -49.2927 H         1 UNK         0.0600 
    215 H215       -5.4611  -25.7739  -48.5162 H         1 UNK         0.3000 
    216 H216       -6.9414  -24.1899  -48.5430 H         1 UNK         0.0600 
    217 H217       -9.3437  -24.5361  -48.8363 H         1 UNK         0.0600 
    218 H218       -8.6879  -25.8590  -47.8869 H         1 UNK         0.0600 
    219 H219       -9.0892  -26.1007  -49.5881 H         1 UNK         0.0600 
    220 H220       -5.8756  -25.6098  -51.3792 H         1 UNK         0.3000 
    221 H221       -7.1733  -23.8663  -53.2921 H         1 UNK         0.0600 
    222 H222       -4.5919  -25.5007  -53.5207 H         1 UNK         0.0600 
    223 H223       -6.2092  -26.0782  -53.9180 H         1 UNK         0.0600 
    224 H224       -5.4822  -24.7812  -54.8550 H         1 UNK         0.0600 
    225 H225       -4.3641  -23.5985  -51.2421 H         1 UNK         0.3000 
    226 H226       -2.7225  -22.1264  -50.8919 H         1 UNK         0.0600 
    227 H227       -4.6763  -20.7209  -50.2151 H         1 UNK         0.0600 
    228 H228       -3.3503  -19.7495  -50.8068 H         1 UNK         0.0600 
    229 H229       -4.7645  -20.0315  -51.8276 H         1 UNK         0.0600 
    230 H230       -3.1255  -19.6024  -53.0380 H         1 UNK         0.3000 
    231 H231       -1.5853  -20.8665  -55.2666 H         1 UNK         0.0600 
    232 H232       -1.2303  -18.0477  -54.1130 H         1 UNK         0.0600 
    233 H233       -0.4130  -18.6933  -55.5334 H         1 UNK         0.0600 
    234 H234       -0.0877  -19.3823  -53.9556 H         1 UNK         0.0600 
    235 H235       -4.4045  -20.8544  -54.9647 H         1 UNK         0.3000 
    236 H236       -6.3117  -20.4275  -55.9641 H         1 UNK         0.0600 
    237 H237       -5.0944  -20.8455  -58.1129 H         1 UNK         0.0600 
    238 H238       -6.4141  -19.7038  -58.3087 H         1 UNK         0.0600 
    239 H239       -4.7579  -19.1210  -58.2603 H         1 UNK         0.0600 
    240 H240       -5.5977  -18.8242  -53.9336 H         1 UNK         0.3000 
    241 H241       -5.8399  -16.0187  -54.4935 H         1 UNK         0.0600 
    242 H242       -9.6582  -17.1840  -53.9158 H         1 UNK         0.3800 
    243 H243       -8.4013  -18.3299  -54.3013 H         1 UNK         0.3800 
    244 H244       -5.7540  -15.7371  -52.0263 H         1 UNK         0.0800 
    245 H245       -5.9364  -17.4602  -51.8014 H         1 UNK         0.0800 
    246 H246       -3.7181  -15.7006  -50.4961 H         1 UNK         0.0800 
    247 H247       -3.8114  -17.4234  -50.2293 H         1 UNK         0.0800 
@<TRIPOS>BOND
     1    1    2 1    
     2    1  127 1    
     3    1  128 1    
     4    1  129 1    
     5    2    3 2    
     6    2    4 am   BACKBONE|DICT|INTERRES
     7    4    5 1    
     8    4  130 1    
     9    5    6 1    
    10    5   65 1    
    11    5  131 1    
    12    6    7 1    
    13    6  132 1    
    14    6  133 1    
    15    7    8 1    
    16    8    9 1    
    17    8  134 1    
    18    8  135 1    
    19    9   10 ar   
    20    9   14 ar   
    21   10   11 ar   
    22   10  136 1    
    23   11   12 ar   
    24   11  126 1    
    25   12   13 ar   
    26   12  137 1    
    27   13   14 ar   
    28   13   15 1    
    29   14  138 1    
    30   15   16 1    
    31   15  139 1    
    32   15  140 1    
    33   16   17 1    
    34   17   18 1    
    35   17  141 1    
    36   17  142 1    
    37   18   19 1    
    38   18   67 1    
    39   18  143 1    
    40   19   20 am   BACKBONE|DICT|INTERRES
    41   19  144 1    
    42   20   21 2    
    43   20   22 1    
    44   22   23 1    
    45   22   24 1    
    46   22  145 1    
    47   23  146 1    
    48   23  147 1    
    49   23  148 1    
    50   24   25 am   BACKBONE|DICT|INTERRES
    51   24  149 1    
    52   25   26 2    
    53   25   27 1    
    54   27   28 1    
    55   27   29 1    
    56   27  150 1    
    57   28  151 1    
    58   28  152 1    
    59   28  153 1    
    60   29   30 am   BACKBONE|DICT|INTERRES
    61   29  154 1    
    62   30   31 2    
    63   30   32 1    
    64   32   33 1    
    65   32   34 1    
    66   32  155 1    
    67   33  156 1    
    68   33  157 1    
    69   33  158 1    
    70   34   35 am   BACKBONE|DICT|INTERRES
    71   34  159 1    
    72   35   36 2    
    73   35   37 1    
    74   37   38 1    
    75   37   39 1    
    76   37  160 1    
    77   38  161 1    
    78   38  162 1    
    79   38  163 1    
    80   39   40 am   BACKBONE|DICT|INTERRES
    81   39  164 1    
    82   40   41 2    
    83   40   42 1    
    84   42   43 1    
    85   42   44 1    
    86   42  165 1    
    87   43  166 1    
    88   43  167 1    
    89   43  168 1    
    90   44   45 am   BACKBONE|DICT|INTERRES
    91   44  169 1    
    92   45   46 2    
    93   45   47 1    
    94   47   48 1    
    95   47   49 1    
    96   47  170 1    
    97   48  171 1    
    98   48  172 1    
    99   48  173 1    
   100   49   50 am   BACKBONE|DICT|INTERRES
   101   49  174 1    
   102   50   51 2    
   103   50   52 1    
   104   52   53 1    
   105   52   54 1    
   106   52  175 1    
   107   53  176 1    
   108   53  177 1    
   109   53  178 1    
   110   54   55 am   BACKBONE|DICT|INTERRES
   111   54  179 1    
   112   55   56 2    
   113   55   57 1    
   114   57   58 1    
   115   57   59 1    
   116   57  180 1    
   117   58  181 1    
   118   58  182 1    
   119   58  183 1    
   120   59   60 am   BACKBONE|DICT|INTERRES
   121   59  184 1    
   122   60   61 2    
   123   60   62 1    
   124   62   63 1    
   125   62   64 1    
   126   62  185 1    
   127   63  186 1    
   128   63  187 1    
   129   63  188 1    
   130   64   65 am   BACKBONE|DICT|INTERRES
   131   64  189 1    
   132   65   66 2    
   133   67   68 2    
   134   67   69 am   BACKBONE|DICT|INTERRES
   135   69   70 1    
   136   69  190 1    
   137   70   71 1    
   138   70   72 1    
   139   70  191 1    
   140   71  192 1    
   141   71  193 1    
   142   71  194 1    
   143   72   73 2    
   144   72   74 am   BACKBONE|DICT|INTERRES
   145   74   75 1    
   146   74  195 1    
   147   75   76 1    
   148   75   77 1    
   149   75  196 1    
   150   76  197 1    
   151   76  198 1    
   152   76  199 1    
   153   77   78 2    
   154   77   79 am   BACKBONE|DICT|INTERRES
   155   79   80 1    
   156   79  200 1    
   157   80   81 1    
   158   80   82 1    
   159   80  201 1    
   160   81  202 1    
   161   81  203 1    
   162   81  204 1    
   163   82   83 2    
   164   82   84 am   BACKBONE|DICT|INTERRES
   165   84   85 1    
   166   84  205 1    
   167   85   86 1    
   168   85   87 1    
   169   85  206 1    
   170   86  207 1    
   171   86  208 1    
   172   86  209 1    
   173   87   88 2    
   174   87   89 am   BACKBONE|DICT|INTERRES
   175   89   90 1    
   176   89  210 1    
   177   90   91 1    
   178   90   92 1    
   179   90  211 1    
   180   91  212 1    
   181   91  213 1    
   182   91  214 1    
   183   92   93 2    
   184   92   94 am   BACKBONE|DICT|INTERRES
   185   94   95 1    
   186   94  215 1    
   187   95   96 1    
   188   95   97 1    
   189   95  216 1    
   190   96  217 1    
   191   96  218 1    
   192   96  219 1    
   193   97   98 2    
   194   97   99 am   BACKBONE|DICT|INTERRES
   195   99  100 1    
   196   99  220 1    
   197  100  101 1    
   198  100  102 1    
   199  100  221 1    
   200  101  222 1    
   201  101  223 1    
   202  101  224 1    
   203  102  103 2    
   204  102  104 am   BACKBONE|DICT|INTERRES
   205  104  105 1    
   206  104  225 1    
   207  105  106 1    
   208  105  107 1    
   209  105  226 1    
   210  106  227 1    
   211  106  228 1    
   212  106  229 1    
   213  107  108 2    
   214  107  109 am   BACKBONE|DICT|INTERRES
   215  109  110 1    
   216  109  230 1    
   217  110  111 1    
   218  110  112 1    
   219  110  231 1    
   220  111  232 1    
   221  111  233 1    
   222  111  234 1    
   223  112  113 2    
   224  112  114 am   BACKBONE|DICT|INTERRES
   225  114  115 1    
   226  114  235 1    
   227  115  116 1    
   228  115  117 1    
   229  115  236 1    
   230  116  237 1    
   231  116  238 1    
   232  116  239 1    
   233  117  118 2    
   234  117  119 am   BACKBONE|DICT|INTERRES
   235  119  120 1    
   236  119  240 1    
   237  120  121 1    
   238  120  124 1    
   239  120  241 1    
   240  121  122 am   BACKBONE|DICT|INTERRES
   241  121  123 2    
   242  122  242 1    
   243  122  243 1    
   244  124  125 1    
   245  124  244 1    
   246  124  245 1    
   247  125  126 1    
   248  126  246 1    
   249  126  247 1    
@<TRIPOS>SUBSTRUCTURE
     1 UNK         1 GROUP             0       ****    0 ROOT    
