@<TRIPOS>MOLECULE
3R540
247   249    1
SMALL
USER_CHARGES


@<TRIPOS>ATOM
      1 CA          0.5697  -10.9525  -50.5679 C.3       0 UNK        -0.1800 
      2 C          -0.5149  -11.9368  -50.1553 C.2       0 UNK         0.5000 
      3 O          -1.6450  -11.5275  -49.8901 O.2       0 UNK        -0.5000 
      4 N          -0.1697  -13.2290  -50.0771 N.am      1 UNK        -0.5000 
      5 CA         -1.0196  -14.3749  -49.7177 C.3       1 UNK         0.1400 
      6 C6         -2.2529  -14.5448  -50.6479 C.3       23 UNK        -0.0398 
      7 S7         -3.0183  -16.2026  -50.5729 S.3       23 UNK        -0.2404 
      8 C8         -2.1403  -17.0829  -51.9067 C.3       23 UNK        -0.0205 
      9 C9         -0.6601  -17.2801  -51.6113 C.ar      23 UNK        -0.0193 
     10 C10         0.3013  -16.8611  -52.5357 C.ar      23 UNK        -0.1150 
     11 C11         1.6623  -17.0426  -52.2738 C.ar      23 UNK        -0.0193 
     12 C12         2.0592  -17.6278  -51.0684 C.ar      23 UNK        -0.1150 
     13 C13         1.1089  -18.0502  -50.1357 C.ar      23 UNK        -0.0193 
     14 C14        -0.2492  -17.8857  -50.4187 C.ar      23 UNK        -0.1150 
     15 C15         1.5549  -18.6643  -48.8183 C.3       23 UNK        -0.0205 
     16 S16         1.4564  -20.4816  -48.8503 S.3       23 UNK        -0.2404 
     17 C17        -0.2799  -20.7598  -48.3649 C.3       23 UNK        -0.0398 
     18 CA         -0.4508  -22.0560  -47.5410 C.3       11 UNK         0.1400 
     19 N           0.2406  -22.0079  -46.2492 N.am      11 UNK        -0.5000 
     20 C           0.4615  -23.0801  -45.4768 C.2       10 UNK         0.5000 
     21 O           0.1228  -24.2224  -45.7870 O.2       10 UNK        -0.5000 
     22 CA          1.1192  -22.8304  -44.1076 C.3       10 UNK         0.1400 
     23 CB          2.6331  -22.6148  -44.2510 C.3       10 UNK        -0.1800 
     24 N           0.5180  -21.7016  -43.3952 N.am      10 UNK        -0.5000 
     25 C          -0.7530  -21.6717  -42.9691 C.2       9 UNK         0.5000 
     26 O          -1.5365  -22.6117  -43.0991 O.2       9 UNK        -0.5000 
     27 CA         -1.2508  -20.3631  -42.3295 C.3       9 UNK         0.1400 
     28 CB         -0.8208  -20.2763  -40.8578 C.3       9 UNK        -0.1800 
     29 N          -0.7998  -19.1702  -43.0452 N.am      9 UNK        -0.5000 
     30 C          -1.1158  -18.8722  -44.3138 C.2       8 UNK         0.5000 
     31 O          -1.8553  -19.5586  -45.0165 O.2       8 UNK        -0.5000 
     32 CA         -0.4405  -17.6301  -44.9193 C.3       8 UNK         0.1400 
     33 CB         -1.1133  -16.3431  -44.4223 C.3       8 UNK        -0.1800 
     34 N           0.9920  -17.5781  -44.6282 N.am      8 UNK        -0.5000 
     35 C           1.8783  -18.5159  -44.9920 C.2       7 UNK         0.5000 
     36 O           1.5881  -19.5217  -45.6363 O.2       7 UNK        -0.5000 
     37 CA          3.3200  -18.3250  -44.4958 C.3       7 UNK         0.1400 
     38 CB          4.0617  -17.2932  -45.3581 C.3       7 UNK        -0.1800 
     39 N           3.3556  -17.9219  -43.0894 N.am      7 UNK        -0.5000 
     40 C           2.9654  -18.7071  -42.0738 C.2       6 UNK         0.5000 
     41 O           2.5873  -19.8703  -42.2129 O.2       6 UNK        -0.5000 
     42 CA          2.9490  -18.0652  -40.6759 C.3       6 UNK         0.1400 
     43 CB          4.3521  -18.0806  -40.0518 C.3       6 UNK        -0.1800 
     44 N           2.4431  -16.6926  -40.6985 N.am      6 UNK        -0.5000 
     45 C           1.1928  -16.3363  -41.0149 C.2       5 UNK         0.5000 
     46 O           0.3143  -17.1456  -41.3086 O.2       5 UNK        -0.5000 
     47 CA          0.8724  -14.8295  -41.0457 C.3       5 UNK         0.1400 
     48 CB          0.7477  -14.2504  -39.6240 C.3       5 UNK        -0.1800 
     49 N           1.7920  -14.0417  -41.8768 N.am      5 UNK        -0.5000 
     50 C           3.0991  -13.7981  -41.7063 C.2       4 UNK         0.5000 
     51 O           3.7451  -14.2084  -40.7409 O.2       4 UNK        -0.5000 
     52 CA          3.8288  -12.9623  -42.7806 C.3       4 UNK         0.1400 
     53 CB          4.9483  -13.7832  -43.4510 C.3       4 UNK        -0.1800 
     54 N           2.9784  -12.3205  -43.7960 N.am      4 UNK        -0.5000 
     55 C           2.2155  -12.8908  -44.7391 C.2       3 UNK         0.5000 
     56 O           2.0473  -14.1069  -44.8531 O.2       3 UNK        -0.5000 
     57 CA          1.5449  -11.9158  -45.7261 C.3       3 UNK         0.1400 
     58 CB          2.4643  -11.6633  -46.9312 C.3       3 UNK        -0.1800 
     59 N           0.2523  -12.3821  -46.2227 N.am      3 UNK        -0.5000 
     60 C          -0.8402  -12.6314  -45.4876 C.2       2 UNK         0.5000 
     61 O          -0.8822  -12.5004  -44.2633 O.2       2 UNK        -0.5000 
     62 CA         -2.1100  -13.0726  -46.2490 C.3       2 UNK         0.1400 
     63 CB         -3.2192  -12.0182  -46.1074 C.3       2 UNK        -0.1800 
     64 N          -1.8647  -13.2954  -47.6760 N.am      2 UNK        -0.5000 
     65 C          -1.3752  -14.4178  -48.2153 C.2       1 UNK         0.5000 
     66 O          -1.1478  -15.4386  -47.5680 O.2       1 UNK        -0.5000 
     67 C          -1.9416  -22.4246  -47.3903 C.2       11 UNK         0.5000 
     68 O          -2.4817  -23.0889  -48.2744 O.2       11 UNK        -0.5000 
     69 N          -2.5867  -22.0160  -46.2889 N.am      12 UNK        -0.5000 
     70 CA         -3.9553  -22.4049  -45.9440 C.3       12 UNK         0.1400 
     71 CB         -4.4977  -21.5025  -44.8268 C.3       12 UNK        -0.1800 
     72 C          -4.0584  -23.8894  -45.5597 C.2       12 UNK         0.5000 
     73 O          -4.9703  -24.5675  -46.0314 O.2       12 UNK        -0.5000 
     74 N          -3.0992  -24.3852  -44.7646 N.am      13 UNK        -0.5000 
     75 CA         -2.9760  -25.7972  -44.3881 C.3       13 UNK         0.1400 
     76 CB         -1.8782  -25.9529  -43.3252 C.3       13 UNK        -0.1800 
     77 C          -2.7061  -26.7176  -45.5949 C.2       13 UNK         0.5000 
     78 O          -3.2282  -27.8317  -45.6415 O.2       13 UNK        -0.5000 
     79 N          -1.9363  -26.2147  -46.5693 N.am      14 UNK        -0.5000 
     80 CA         -1.6827  -26.8557  -47.8613 C.3       14 UNK         0.1400 
     81 CB         -0.4351  -26.2123  -48.4879 C.3       14 UNK        -0.1800 
     82 C          -2.8739  -26.7729  -48.8416 C.2       14 UNK         0.5000 
     83 O          -2.8273  -27.4193  -49.8887 O.2       14 UNK        -0.5000 
     84 N          -3.8949  -25.9664  -48.5087 N.am      15 UNK        -0.5000 
     85 CA         -5.0840  -25.6353  -49.3049 C.3       15 UNK         0.1400 
     86 CB         -5.9472  -26.8852  -49.5713 C.3       15 UNK        -0.1800 
     87 C          -4.7685  -24.8392  -50.5903 C.2       15 UNK         0.5000 
     88 O          -5.5912  -24.7974  -51.5057 O.2       15 UNK        -0.5000 
     89 N          -3.5985  -24.1906  -50.6253 N.am      16 UNK        -0.5000 
     90 CA         -3.1498  -23.3238  -51.7091 C.3       16 UNK         0.1400 
     91 CB         -1.6150  -23.2523  -51.6984 C.3       16 UNK        -0.1800 
     92 C          -3.7804  -21.9300  -51.5766 C.2       16 UNK         0.5000 
     93 O          -4.3269  -21.4160  -52.5523 O.2       16 UNK        -0.5000 
     94 N          -3.7708  -21.3714  -50.3551 N.am      17 UNK        -0.5000 
     95 CA         -4.3696  -20.0658  -50.0505 C.3       17 UNK         0.1400 
     96 CB         -3.9331  -19.5803  -48.6618 C.3       17 UNK        -0.1800 
     97 C          -5.9039  -20.0624  -50.1703 C.2       17 UNK         0.5000 
     98 O          -6.4822  -19.0205  -50.4745 O.2       17 UNK        -0.5000 
     99 N          -6.5290  -21.2365  -50.0009 N.am      18 UNK        -0.5000 
    100 CA        -7.9573  -21.4678  -50.2320 C.3       18 UNK         0.1400 
    101 CB        -8.3252  -22.8701  -49.7232 C.3       18 UNK        -0.1800 
    102 C         -8.3657  -21.3004  -51.7114 C.2       18 UNK         0.5000 
    103 O         -9.5055  -20.9246  -51.9858 O.2       18 UNK        -0.5000 
    104 N         -7.4225  -21.5532  -52.6289 N.am      19 UNK        -0.5000 
    105 CA        -7.5593  -21.3345  -54.0698 C.3       19 UNK         0.1400 
    106 CB        -6.8889  -22.5124  -54.7976 C.3       19 UNK        -0.1800 
    107 C         -6.9318  -19.9971  -54.5180 C.2       19 UNK         0.5000 
    108 O         -6.9857  -19.6804  -55.7070 O.2       19 UNK        -0.5000 
    109 N         -6.3257  -19.2566  -53.5752 N.am      20 UNK        -0.5000 
    110 CA        -5.5104  -18.0504  -53.7606 C.3       20 UNK         0.1400 
    111 CB        -6.3786  -16.8682  -54.2369 C.3       20 UNK        -0.1800 
    112 C         -4.2697  -18.2911  -54.6511 C.2       20 UNK         0.5000 
    113 O         -3.8475  -17.3912  -55.3796 O.2       20 UNK        -0.5000 
    114 N         -3.7104  -19.5043  -54.5769 N.am      21 UNK        -0.5000 
    115 CA        -2.5599  -19.9564  -55.3495 C.3       21 UNK         0.1400 
    116 CB        -2.8386  -21.3891  -55.8320 C.3       21 UNK        -0.1800 
    117 C         -1.2903  -19.9277  -54.4858 C.2       21 UNK         0.5000 
    118 O         -1.3635  -20.1464  -53.2762 O.2       21 UNK        -0.5000 
    119 N         -0.1456  -19.7011  -55.1382 N.am      22 UNK        -0.5000 
    120 CA         1.1947  -19.7331  -54.5266 C.3       22 UNK         0.1400 
    121 C          1.8467  -21.1513  -54.5168 C.2       22 UNK         0.5000 
    122 N          1.2317  -22.1723  -55.1030 N.am      22 UNK        -0.7600 
    123 O          2.9222  -21.3420  -53.9571 O.2       22 UNK        -0.5000 
    124 C124        2.1035  -18.6546  -55.1804 C.3       23 UNK        -0.0398 
    125 S125        3.4638  -18.0634  -54.1140 S.3       23 UNK        -0.2404 
    126 C126        2.7092  -16.6218  -53.2934 C.3       23 UNK        -0.0205 
    127 H127        1.5320  -11.4446  -50.7108 H         1 UNK         0.0600 
    128 H128        0.6908  -10.1857  -49.8029 H         1 UNK         0.0600 
    129 H129        0.2949  -10.4629  -51.5021 H         1 UNK         0.0600 
    130 H130        0.7856  -13.4778  -50.2943 H         1 UNK         0.3000 
    131 H131       -0.3637  -15.2273  -49.8821 H         1 UNK         0.0600 
    132 H132       -3.0189  -13.8050  -50.4113 H         1 UNK         0.0800 
    133 H133       -1.9649  -14.3499  -51.6817 H         1 UNK         0.0800 
    134 H134       -2.2852  -16.5461  -52.8455 H         1 UNK         0.0800 
    135 H135       -2.5920  -18.0642  -52.0434 H         1 UNK         0.0800 
    136 H136       -0.0094  -16.4070  -53.4661 H         1 UNK         0.1150 
    137 H137        3.1118  -17.7644  -50.8636 H         1 UNK         0.1150 
    138 H138       -0.9893  -18.2076  -49.7007 H         1 UNK         0.1150 
    139 H139        0.9600  -18.2594  -47.9989 H         1 UNK         0.0800 
    140 H140        2.5861  -18.3807  -48.6035 H         1 UNK         0.0800 
    141 H141       -0.8690  -20.7974  -49.2832 H         1 UNK         0.0800 
    142 H142       -0.6440  -19.9066  -47.7904 H         1 UNK         0.0800 
    143 H143        0.0037  -22.8652  -48.1164 H         1 UNK         0.0600 
    144 H144        0.5944  -21.1009  -45.9522 H         1 UNK         0.3000 
    145 H145        0.9647  -23.7247  -43.5003 H         1 UNK         0.0600 
    146 H146        3.1016  -23.4634  -44.7507 H         1 UNK         0.0600 
    147 H147        3.1092  -22.5071  -43.2763 H         1 UNK         0.0600 
    148 H148        2.8631  -21.7235  -44.8345 H         1 UNK         0.0600 
    149 H149        1.1154  -20.9004  -43.2205 H         1 UNK         0.3000 
    150 H150       -2.3419  -20.3732  -42.3622 H         1 UNK         0.0600 
    151 H151        0.2636  -20.2268  -40.7566 H         1 UNK         0.0600 
    152 H152       -1.1644  -21.1471  -40.2982 H         1 UNK         0.0600 
    153 H153       -1.2412  -19.3932  -40.3764 H         1 UNK         0.0600 
    154 H154       -0.2189  -18.5208  -42.5216 H         1 UNK         0.3000 
    155 H155       -0.5544  -17.6794  -46.0040 H         1 UNK         0.0600 
    156 H156       -0.6049  -15.4641  -44.8157 H         1 UNK         0.0600 
    157 H157       -1.1136  -16.2694  -43.3357 H         1 UNK         0.0600 
    158 H158       -2.1511  -16.2986  -44.7540 H         1 UNK         0.0600 
    159 H159        1.3195  -16.7791  -44.1066 H         1 UNK         0.3000 
    160 H160        3.8384  -19.2819  -44.5880 H         1 UNK         0.0600 
    161 H161        3.5648  -16.3232  -45.3458 H         1 UNK         0.0600 
    162 H162        4.1075  -17.6206  -46.3976 H         1 UNK         0.0600 
    163 H163        5.0871  -17.1529  -45.0159 H         1 UNK         0.0600 
    164 H164        3.6433  -16.9765  -42.8873 H         1 UNK         0.3000 
    165 H165        2.2857  -18.6595  -40.0439 H         1 UNK         0.0600 
    166 H166        4.7515  -19.0949  -40.0136 H         1 UNK         0.0600 
    167 H167        5.0543  -17.4707  -40.6217 H         1 UNK         0.0600 
    168 H168        4.3320  -17.7009  -39.0301 H         1 UNK         0.0600 
    169 H169        3.1039  -15.9450  -40.5018 H         1 UNK         0.3000 
    170 H170       -0.1048  -14.7290  -41.5208 H         1 UNK         0.0600 
    171 H171        0.4555  -13.2006  -39.6518 H         1 UNK         0.0600 
    172 H172        1.6809  -14.3237  -39.0652 H         1 UNK         0.0600 
    173 H173       -0.0136  -14.7845  -39.0543 H         1 UNK         0.0600 
    174 H174        1.3915  -13.7052  -42.7431 H         1 UNK         0.3000 
    175 H175        4.3060  -12.1438  -42.2398 H         1 UNK         0.0600 
    176 H176        4.5541  -14.6459  -43.9859 H         1 UNK         0.0600 
    177 H177        5.6587  -14.1563  -42.7123 H         1 UNK         0.0600 
    178 H178        5.5104  -13.1769  -44.1613 H         1 UNK         0.0600 
    179 H179        3.0145  -11.3103  -43.7818 H         1 UNK         0.3000 
    180 H180        1.3734  -10.9671  -45.2135 H         1 UNK         0.0600 
    181 H181        2.6371  -12.5767  -47.5022 H         1 UNK         0.0600 
    182 H182        3.4374  -11.2879  -46.6117 H         1 UNK         0.0600 
    183 H183        2.0379  -10.9207  -47.6059 H         1 UNK         0.0600 
    184 H184        0.1905  -12.5542  -47.2137 H         1 UNK         0.3000 
    185 H185       -2.4627  -14.0005  -45.7955 H         1 UNK         0.0600 
    186 H186       -3.4648  -11.8443  -45.0590 H         1 UNK         0.0600 
    187 H187       -2.9217  -11.0617  -46.5392 H         1 UNK         0.0600 
    188 H188       -4.1344  -12.3405  -46.6044 H         1 UNK         0.0600 
    189 H189       -1.9967  -12.5000  -48.2959 H         1 UNK         0.3000 
    190 H190       -2.1171  -21.3851  -45.6459 H         1 UNK         0.3000 
    191 H191       -4.5843  -22.2594  -46.8240 H         1 UNK         0.0600 
    192 H192       -4.4997  -20.4563  -45.1332 H         1 UNK         0.0600 
    193 H193       -5.5245  -21.7689  -44.5736 H         1 UNK         0.0600 
    194 H194       -3.9039  -21.5832  -43.9169 H         1 UNK         0.0600 
    195 H195       -2.4102  -23.7490  -44.3714 H         1 UNK         0.3000 
    196 H196       -3.9244  -26.1060  -43.9439 H         1 UNK         0.0600 
    197 H197       -1.7845  -26.9925  -43.0092 H         1 UNK         0.0600 
    198 H198       -2.1033  -25.3618  -42.4374 H         1 UNK         0.0600 
    199 H199       -0.9054  -25.6342  -43.7001 H         1 UNK         0.0600 
    200 H200       -1.4756  -25.3251  -46.4060 H         1 UNK         0.3000 
    201 H201       -1.4728  -27.9131  -47.6884 H         1 UNK         0.0600 
    202 H202       -0.1654  -26.7061  -49.4222 H         1 UNK         0.0600 
    203 H203        0.4251  -26.2861  -47.8222 H         1 UNK         0.0600 
    204 H204       -0.5972  -25.1576  -48.7107 H         1 UNK         0.0600 
    205 H205       -3.8416  -25.4903  -47.6167 H         1 UNK         0.3000 
    206 H206       -5.6759  -24.9621  -48.6835 H         1 UNK         0.0600 
    207 H207       -6.1561  -27.4236  -48.6468 H         1 UNK         0.0600 
    208 H208       -6.9076  -26.6104  -50.0089 H         1 UNK         0.0600 
    209 H209       -5.4618  -27.5757  -50.2612 H         1 UNK         0.0600 
    210 H210       -3.0270  -24.1950  -49.7867 H         1 UNK         0.3000 
    211 H211       -3.4635  -23.7519  -52.6637 H         1 UNK         0.0600 
    212 H212       -1.1752  -24.2472  -51.7689 H         1 UNK         0.0600 
    213 H213       -1.2461  -22.6769  -52.5474 H         1 UNK         0.0600 
    214 H214       -1.2327  -22.7830  -50.7918 H         1 UNK         0.0600 
    215 H215       -3.3432  -21.8848  -49.5924 H         1 UNK         0.3000 
    216 H216       -3.9926  -19.3527  -50.7841 H         1 UNK         0.0600 
    217 H217       -4.2871  -20.2383  -47.8711 H         1 UNK         0.0600 
    218 H218       -4.3321  -18.5858  -48.4574 H         1 UNK         0.0600 
    219 H219       -2.8506  -19.5061  -48.5878 H         1 UNK         0.0600 
    220 H220       -5.9711  -22.0424  -49.7645 H         1 UNK         0.3000 
    221 H221       -8.5163  -20.7329  -49.6490 H         1 UNK         0.0600 
    222 H222       -7.8018  -23.6504  -50.2764 H         1 UNK         0.0600 
    223 H223       -8.0822  -22.9851  -48.6666 H         1 UNK         0.0600 
    224 H224       -9.3948  -23.0548  -49.8316 H         1 UNK         0.0600 
    225 H225       -6.5049  -21.8472  -52.3189 H         1 UNK         0.3000 
    226 H226       -8.6140  -21.3138  -54.3508 H         1 UNK         0.0600 
    227 H227       -7.3294  -23.4633  -54.4974 H         1 UNK         0.0600 
    228 H228       -7.0082  -22.4267  -55.8783 H         1 UNK         0.0600 
    229 H229       -5.8193  -22.5590  -54.5886 H         1 UNK         0.0600 
    230 H230       -6.3735  -19.5941  -52.6236 H         1 UNK         0.3000 
    231 H231       -5.1250  -17.7938  -52.7729 H         1 UNK         0.0600 
    232 H232       -6.7513  -17.0207  -55.2501 H         1 UNK         0.0600 
    233 H233       -5.8081  -15.9387  -54.2346 H         1 UNK         0.0600 
    234 H234       -7.2369  -16.7215  -53.5812 H         1 UNK         0.0600 
    235 H235       -4.0551  -20.1661  -53.8844 H         1 UNK         0.3000 
    236 H236       -2.4153  -19.3168  -56.2226 H         1 UNK         0.0600 
    237 H237       -2.9573  -22.0799  -54.9958 H         1 UNK         0.0600 
    238 H238       -3.7496  -21.4317  -56.4295 H         1 UNK         0.0600 
    239 H239       -2.0242  -21.7607  -56.4545 H         1 UNK         0.0600 
    240 H240       -0.1705  -19.5520  -56.1366 H         1 UNK         0.3000 
    241 H241        1.0794  -19.4732  -53.4736 H         1 UNK         0.0600 
    242 H242        0.3447  -22.0462  -55.5609 H         1 UNK         0.3800 
    243 H243        1.6616  -23.0837  -55.0839 H         1 UNK         0.3800 
    244 H244        2.5284  -19.0257  -56.1145 H         1 UNK         0.0800 
    245 H245        1.5092  -17.7834  -55.4597 H         1 UNK         0.0800 
    246 H246        3.4924  -16.0557  -52.7872 H         1 UNK         0.0800 
    247 H247        2.2836  -15.9505  -54.0408 H         1 UNK         0.0800 
@<TRIPOS>BOND
     1    1    2 1    
     2    1  127 1    
     3    1  128 1    
     4    1  129 1    
     5    2    3 2    
     6    2    4 am   BACKBONE|DICT|INTERRES
     7    4    5 1    
     8    4  130 1    
     9    5    6 1    
    10    5   65 1    
    11    5  131 1    
    12    6    7 1    
    13    6  132 1    
    14    6  133 1    
    15    7    8 1    
    16    8    9 1    
    17    8  134 1    
    18    8  135 1    
    19    9   10 ar   
    20    9   14 ar   
    21   10   11 ar   
    22   10  136 1    
    23   11   12 ar   
    24   11  126 1    
    25   12   13 ar   
    26   12  137 1    
    27   13   14 ar   
    28   13   15 1    
    29   14  138 1    
    30   15   16 1    
    31   15  139 1    
    32   15  140 1    
    33   16   17 1    
    34   17   18 1    
    35   17  141 1    
    36   17  142 1    
    37   18   19 1    
    38   18   67 1    
    39   18  143 1    
    40   19   20 am   BACKBONE|DICT|INTERRES
    41   19  144 1    
    42   20   21 2    
    43   20   22 1    
    44   22   23 1    
    45   22   24 1    
    46   22  145 1    
    47   23  146 1    
    48   23  147 1    
    49   23  148 1    
    50   24   25 am   BACKBONE|DICT|INTERRES
    51   24  149 1    
    52   25   26 2    
    53   25   27 1    
    54   27   28 1    
    55   27   29 1    
    56   27  150 1    
    57   28  151 1    
    58   28  152 1    
    59   28  153 1    
    60   29   30 am   BACKBONE|DICT|INTERRES
    61   29  154 1    
    62   30   31 2    
    63   30   32 1    
    64   32   33 1    
    65   32   34 1    
    66   32  155 1    
    67   33  156 1    
    68   33  157 1    
    69   33  158 1    
    70   34   35 am   BACKBONE|DICT|INTERRES
    71   34  159 1    
    72   35   36 2    
    73   35   37 1    
    74   37   38 1    
    75   37   39 1    
    76   37  160 1    
    77   38  161 1    
    78   38  162 1    
    79   38  163 1    
    80   39   40 am   BACKBONE|DICT|INTERRES
    81   39  164 1    
    82   40   41 2    
    83   40   42 1    
    84   42   43 1    
    85   42   44 1    
    86   42  165 1    
    87   43  166 1    
    88   43  167 1    
    89   43  168 1    
    90   44   45 am   BACKBONE|DICT|INTERRES
    91   44  169 1    
    92   45   46 2    
    93   45   47 1    
    94   47   48 1    
    95   47   49 1    
    96   47  170 1    
    97   48  171 1    
    98   48  172 1    
    99   48  173 1    
   100   49   50 am   BACKBONE|DICT|INTERRES
   101   49  174 1    
   102   50   51 2    
   103   50   52 1    
   104   52   53 1    
   105   52   54 1    
   106   52  175 1    
   107   53  176 1    
   108   53  177 1    
   109   53  178 1    
   110   54   55 am   BACKBONE|DICT|INTERRES
   111   54  179 1    
   112   55   56 2    
   113   55   57 1    
   114   57   58 1    
   115   57   59 1    
   116   57  180 1    
   117   58  181 1    
   118   58  182 1    
   119   58  183 1    
   120   59   60 am   BACKBONE|DICT|INTERRES
   121   59  184 1    
   122   60   61 2    
   123   60   62 1    
   124   62   63 1    
   125   62   64 1    
   126   62  185 1    
   127   63  186 1    
   128   63  187 1    
   129   63  188 1    
   130   64   65 am   BACKBONE|DICT|INTERRES
   131   64  189 1    
   132   65   66 2    
   133   67   68 2    
   134   67   69 am   BACKBONE|DICT|INTERRES
   135   69   70 1    
   136   69  190 1    
   137   70   71 1    
   138   70   72 1    
   139   70  191 1    
   140   71  192 1    
   141   71  193 1    
   142   71  194 1    
   143   72   73 2    
   144   72   74 am   BACKBONE|DICT|INTERRES
   145   74   75 1    
   146   74  195 1    
   147   75   76 1    
   148   75   77 1    
   149   75  196 1    
   150   76  197 1    
   151   76  198 1    
   152   76  199 1    
   153   77   78 2    
   154   77   79 am   BACKBONE|DICT|INTERRES
   155   79   80 1    
   156   79  200 1    
   157   80   81 1    
   158   80   82 1    
   159   80  201 1    
   160   81  202 1    
   161   81  203 1    
   162   81  204 1    
   163   82   83 2    
   164   82   84 am   BACKBONE|DICT|INTERRES
   165   84   85 1    
   166   84  205 1    
   167   85   86 1    
   168   85   87 1    
   169   85  206 1    
   170   86  207 1    
   171   86  208 1    
   172   86  209 1    
   173   87   88 2    
   174   87   89 am   BACKBONE|DICT|INTERRES
   175   89   90 1    
   176   89  210 1    
   177   90   91 1    
   178   90   92 1    
   179   90  211 1    
   180   91  212 1    
   181   91  213 1    
   182   91  214 1    
   183   92   93 2    
   184   92   94 am   BACKBONE|DICT|INTERRES
   185   94   95 1    
   186   94  215 1    
   187   95   96 1    
   188   95   97 1    
   189   95  216 1    
   190   96  217 1    
   191   96  218 1    
   192   96  219 1    
   193   97   98 2    
   194   97   99 am   BACKBONE|DICT|INTERRES
   195   99  100 1    
   196   99  220 1    
   197  100  101 1    
   198  100  102 1    
   199  100  221 1    
   200  101  222 1    
   201  101  223 1    
   202  101  224 1    
   203  102  103 2    
   204  102  104 am   BACKBONE|DICT|INTERRES
   205  104  105 1    
   206  104  225 1    
   207  105  106 1    
   208  105  107 1    
   209  105  226 1    
   210  106  227 1    
   211  106  228 1    
   212  106  229 1    
   213  107  108 2    
   214  107  109 am   BACKBONE|DICT|INTERRES
   215  109  110 1    
   216  109  230 1    
   217  110  111 1    
   218  110  112 1    
   219  110  231 1    
   220  111  232 1    
   221  111  233 1    
   222  111  234 1    
   223  112  113 2    
   224  112  114 am   BACKBONE|DICT|INTERRES
   225  114  115 1    
   226  114  235 1    
   227  115  116 1    
   228  115  117 1    
   229  115  236 1    
   230  116  237 1    
   231  116  238 1    
   232  116  239 1    
   233  117  118 2    
   234  117  119 am   BACKBONE|DICT|INTERRES
   235  119  120 1    
   236  119  240 1    
   237  120  121 1    
   238  120  124 1    
   239  120  241 1    
   240  121  122 am   BACKBONE|DICT|INTERRES
   241  121  123 2    
   242  122  242 1    
   243  122  243 1    
   244  124  125 1    
   245  124  244 1    
   246  124  245 1    
   247  125  126 1    
   248  126  246 1    
   249  126  247 1    
@<TRIPOS>SUBSTRUCTURE
     1 UNK         1 GROUP             0       ****    0 ROOT    
