@<TRIPOS>MOLECULE
3R540
247   249    1
SMALL
USER_CHARGES


@<TRIPOS>ATOM
      1 CA          1.9749  -11.7358  -51.7752 C.3       0 UNK        -0.1800 
      2 C           0.9176  -12.0474  -50.7254 C.2       0 UNK         0.5000 
      3 O          -0.1238  -11.3918  -50.6980 O.2       0 UNK        -0.5000 
      4 N           1.1886  -13.0424  -49.8688 N.am      1 UNK        -0.5000 
      5 CA          0.3219  -13.5295  -48.7858 C.3       1 UNK         0.1400 
      6 C6         -0.9936  -14.1968  -49.2755 C.3       23 UNK        -0.0398 
      7 S7         -0.6941  -15.5838  -50.4171 S.3       23 UNK        -0.2404 
      8 C8         -0.5417  -16.9544  -49.2355 C.3       23 UNK        -0.0205 
      9 C9          0.0394  -18.1799  -49.9149 C.ar      23 UNK        -0.0193 
     10 C10        -0.7873  -19.0545  -50.6222 C.ar      23 UNK        -0.1150 
     11 C11        -0.2555  -20.1568  -51.2988 C.ar      23 UNK        -0.0193 
     12 C12         1.1240  -20.3966  -51.2205 C.ar      23 UNK        -0.1150 
     13 C13         1.9580  -19.5433  -50.4918 C.ar      23 UNK        -0.0193 
     14 C14         1.4112  -18.4299  -49.8510 C.ar      23 UNK        -0.1150 
     15 C15         3.4543  -19.8098  -50.4112 C.3       23 UNK        -0.0205 
     16 S16         3.9799  -20.2813  -48.7327 S.3       23 UNK        -0.2404 
     17 C17         3.1085  -21.8687  -48.5202 C.3       23 UNK        -0.0398 
     18 CA          3.6655  -22.6815  -47.3253 C.3       11 UNK         0.1400 
     19 N           3.4095  -22.0110  -46.0421 N.am      11 UNK        -0.5000 
     20 C           4.0773  -22.2391  -44.9027 C.2       10 UNK         0.5000 
     21 O           5.0572  -22.9804  -44.8238 O.2       10 UNK        -0.5000 
     22 CA          3.5255  -21.5728  -43.6252 C.3       10 UNK         0.1400 
     23 CB          4.1172  -20.1685  -43.4323 C.3       10 UNK        -0.1800 
     24 N           2.0609  -21.5022  -43.6107 N.am      10 UNK        -0.5000 
     25 C           1.2539  -22.5710  -43.5352 C.2       9 UNK         0.5000 
     26 O           1.6636  -23.7230  -43.3988 O.2       9 UNK        -0.5000 
     27 CA         -0.2582  -22.3320  -43.7020 C.3       9 UNK         0.1400 
     28 CB         -0.9175  -22.0018  -42.3563 C.3       9 UNK        -0.1800 
     29 N          -0.5655  -21.2873  -44.6803 N.am      9 UNK        -0.5000 
     30 C          -0.2943  -21.3765  -45.9895 C.2       8 UNK         0.5000 
     31 O           0.1965  -22.3794  -46.5016 O.2       8 UNK        -0.5000 
     32 CA         -0.5746  -20.1315  -46.8564 C.3       8 UNK         0.1400 
     33 CB         -2.0504  -20.0648  -47.2790 C.3       8 UNK        -0.1800 
     34 N          -0.2021  -18.8889  -46.1764 N.am      8 UNK        -0.5000 
     35 C           1.0546  -18.5807  -45.8235 C.2       7 UNK         0.5000 
     36 O           2.0289  -19.2784  -46.0972 O.2       7 UNK        -0.5000 
     37 CA          1.2435  -17.3292  -44.9489 C.3       7 UNK         0.1400 
     38 CB          1.3294  -16.0497  -45.7974 C.3       7 UNK        -0.1800 
     39 N           0.1795  -17.2158  -43.9488 N.am      7 UNK        -0.5000 
     40 C           0.0818  -18.0223  -42.8800 C.2       6 UNK         0.5000 
     41 O           0.9328  -18.8614  -42.5854 O.2       6 UNK        -0.5000 
     42 CA         -1.2003  -17.9234  -42.0314 C.3       6 UNK         0.1400 
     43 CB         -1.0125  -16.9621  -40.8503 C.3       6 UNK        -0.1800 
     44 N          -2.3667  -17.5301  -42.8260 N.am      6 UNK        -0.5000 
     45 C          -2.9705  -18.3526  -43.6984 C.2       5 UNK         0.5000 
     46 O          -2.6196  -19.5171  -43.8732 O.2       5 UNK        -0.5000 
     47 CA         -4.1136  -17.7847  -44.5617 C.3       5 UNK         0.1400 
     48 CB         -5.4806  -18.1143  -43.9460 C.3       5 UNK        -0.1800 
     49 N          -4.0193  -16.3426  -44.7824 N.am      5 UNK        -0.5000 
     50 C          -3.0281  -15.7334  -45.4450 C.2       4 UNK         0.5000 
     51 O          -2.0839  -16.3391  -45.9567 O.2       4 UNK        -0.5000 
     52 CA         -3.0879  -14.1948  -45.5471 C.3       4 UNK         0.1400 
     53 CB         -4.3741  -13.5672  -44.9647 C.3       4 UNK        -0.1800 
     54 N          -1.9061  -13.5560  -44.9649 N.am      4 UNK        -0.5000 
     55 C          -1.4413  -13.6885  -43.7128 C.2       3 UNK         0.5000 
     56 O          -1.9656  -14.4231  -42.8749 O.2       3 UNK        -0.5000 
     57 CA         -0.1824  -12.8790  -43.3308 C.3       3 UNK         0.1400 
     58 CB          0.8148  -13.7200  -42.5151 C.3       3 UNK        -0.1800 
     59 N           0.5037  -12.3382  -44.5081 N.am      3 UNK        -0.5000 
     60 C           0.4467  -11.0632  -44.9158 C.2       2 UNK         0.5000 
     61 O          -0.1439  -10.1717  -44.3053 O.2       2 UNK        -0.5000 
     62 CA          1.1425  -10.7312  -46.2528 C.3       2 UNK         0.1400 
     63 CB          2.5848  -10.2639  -46.0052 C.3       2 UNK        -0.1800 
     64 N           1.1571  -11.8334  -47.2231 N.am      2 UNK        -0.5000 
     65 C           0.0692  -12.4352  -47.7266 C.2       1 UNK         0.5000 
     66 O          -1.0796  -12.1566  -47.3806 O.2       1 UNK        -0.5000 
     67 C           3.1282  -24.1333  -47.3592 C.2       11 UNK         0.5000 
     68 O           3.4526  -24.8674  -48.2933 O.2       11 UNK        -0.5000 
     69 N           2.3236  -24.5193  -46.3566 N.am      12 UNK        -0.5000 
     70 CA          1.6456  -25.8076  -46.1715 C.3       12 UNK         0.1400 
     71 CB          2.6621  -26.9618  -46.0504 C.3       12 UNK        -0.1800 
     72 C           0.5376  -26.0922  -47.2089 C.2       12 UNK         0.5000 
     73 O           0.0969  -27.2365  -47.3293 O.2       12 UNK        -0.5000 
     74 N           0.0806  -25.0511  -47.9115 N.am      13 UNK        -0.5000 
     75 CA         -0.9814  -25.0627  -48.9092 C.3       13 UNK         0.1400 
     76 CB         -0.5579  -25.8456  -50.1669 C.3       13 UNK        -0.1800 
     77 C          -1.2722  -23.5984  -49.2785 C.2       13 UNK         0.5000 
     78 O          -0.3255  -22.8214  -49.3736 O.2       13 UNK        -0.5000 
     79 N          -2.5267  -23.1860  -49.5099 N.am      14 UNK        -0.5000 
     80 CA         -3.7737  -23.9347  -49.3335 C.3       14 UNK         0.1400 
     81 CB         -4.8772  -23.2306  -50.1380 C.3       14 UNK        -0.1800 
     82 C          -4.1927  -24.0580  -47.8541 C.2       14 UNK         0.5000 
     83 O          -5.0424  -24.8894  -47.5390 O.2       14 UNK        -0.5000 
     84 N          -3.5999  -23.2246  -46.9845 N.am      15 UNK        -0.5000 
     85 CA         -3.7517  -23.1236  -45.5244 C.3       15 UNK         0.1400 
     86 CB         -3.3415  -24.4370  -44.8335 C.3       15 UNK        -0.1800 
     87 C          -5.1328  -22.6410  -45.0388 C.2       15 UNK         0.5000 
     88 O          -5.2015  -21.8956  -44.0627 O.2       15 UNK        -0.5000 
     89 N          -6.2034  -23.0497  -45.7266 N.am      16 UNK        -0.5000 
     90 CA         -7.5827  -22.6465  -45.4592 C.3       16 UNK         0.1400 
     91 CB         -8.5278  -23.6506  -46.1369 C.3       16 UNK        -0.1800 
     92 C          -7.8980  -21.2134  -45.9297 C.2       16 UNK         0.5000 
     93 O          -8.8371  -20.6062  -45.4133 O.2       16 UNK        -0.5000 
     94 N          -7.1305  -20.7019  -46.9002 N.am      17 UNK        -0.5000 
     95 CA         -7.3085  -19.3901  -47.5108 C.3       17 UNK         0.1400 
     96 CB         -8.4520  -19.4459  -48.5416 C.3       17 UNK        -0.1800 
     97 C          -6.0022  -18.9512  -48.1831 C.2       17 UNK         0.5000 
     98 O          -5.1426  -19.7866  -48.4795 O.2       17 UNK        -0.5000 
     99 N          -5.9006  -17.6452  -48.4540 N.am      18 UNK        -0.5000 
    100 CA        -4.8115  -17.0073  -49.1919 C.3       18 UNK         0.1400 
    101 CB        -4.7668  -15.5201  -48.7999 C.3       18 UNK        -0.1800 
    102 C         -4.9930  -17.2029  -50.7112 C.2       18 UNK         0.5000 
    103 O         -5.2730  -16.2437  -51.4316 O.2       18 UNK        -0.5000 
    104 N         -4.8789  -18.4582  -51.1648 N.am      19 UNK        -0.5000 
    105 CA        -5.1348  -18.8725  -52.5489 C.3       19 UNK         0.1400 
    106 CB        -5.1596  -20.4071  -52.6129 C.3       19 UNK        -0.1800 
    107 C         -4.1401  -18.3035  -53.5815 C.2       19 UNK         0.5000 
    108 O         -4.5030  -18.1650  -54.7500 O.2       19 UNK        -0.5000 
    109 N         -2.9137  -17.9991  -53.1306 N.am      20 UNK        -0.5000 
    110 CA        -1.7599  -17.4224  -53.8384 C.3       20 UNK         0.1400 
    111 CB        -2.0719  -15.9952  -54.3241 C.3       20 UNK        -0.1800 
    112 C         -1.1797  -18.2824  -54.9819 C.2       20 UNK         0.5000 
    113 O          0.0353  -18.4676  -55.0418 O.2       20 UNK        -0.5000 
    114 N         -2.0455  -18.8001  -55.8571 N.am      21 UNK        -0.5000 
    115 CA        -1.7178  -19.5977  -57.0373 C.3       21 UNK         0.1400 
    116 CB        -2.4289  -18.9812  -58.2559 C.3       21 UNK        -0.1800 
    117 C         -2.0931  -21.0755  -56.8151 C.2       21 UNK         0.5000 
    118 O         -2.7228  -21.6938  -57.6754 O.2       21 UNK        -0.5000 
    119 N         -1.7083  -21.6168  -55.6533 N.am      22 UNK        -0.5000 
    120 CA        -1.9178  -23.0235  -55.2665 C.3       22 UNK         0.1400 
    121 C         -0.9402  -24.0418  -55.9279 C.2       22 UNK         0.5000 
    122 N          0.1026  -23.6112  -56.6278 N.am      22 UNK        -0.7600 
    123 O         -1.1434  -25.2480  -55.8184 O.2       22 UNK        -0.5000 
    124 C124       -1.9808  -23.1933  -53.7256 C.3       23 UNK        -0.0398 
    125 S125       -0.5142  -22.5423  -52.8511 S.3       23 UNK        -0.2404 
    126 C126       -1.2162  -21.0320  -52.1054 C.3       23 UNK        -0.0205 
    127 H127        1.5579  -11.8587  -52.7748 H         1 UNK         0.0600 
    128 H128        2.8417  -12.3911  -51.6862 H         1 UNK         0.0600 
    129 H129        2.3154  -10.7056  -51.6707 H         1 UNK         0.0600 
    130 H130        2.0646  -13.5357  -49.9684 H         1 UNK         0.3000 
    131 H131        0.8989  -14.2993  -48.2724 H         1 UNK         0.0600 
    132 H132       -1.5725  -14.5700  -48.4294 H         1 UNK         0.0800 
    133 H133       -1.6306  -13.4700  -49.7819 H         1 UNK         0.0800 
    134 H134        0.0997  -16.6571  -48.4070 H         1 UNK         0.0800 
    135 H135       -1.5164  -17.1767  -48.8035 H         1 UNK         0.0800 
    136 H136       -1.8490  -18.8636  -50.6561 H         1 UNK         0.1150 
    137 H137        1.5614  -21.2466  -51.7218 H         1 UNK         0.1150 
    138 H138        2.0567  -17.7615  -49.2988 H         1 UNK         0.1150 
    139 H139        3.7516  -20.5884  -51.1152 H         1 UNK         0.0800 
    140 H140        3.9920  -18.9084  -50.7080 H         1 UNK         0.0800 
    141 H141        2.0423  -21.6734  -48.3943 H         1 UNK         0.0800 
    142 H142        3.2079  -22.4297  -49.4514 H         1 UNK         0.0800 
    143 H143        4.7473  -22.7587  -47.4530 H         1 UNK         0.0600 
    144 H144        2.6628  -21.3247  -46.0379 H         1 UNK         0.3000 
    145 H145        3.8355  -22.1846  -42.7754 H         1 UNK         0.0600 
    146 H146        3.7523  -19.7091  -42.5134 H         1 UNK         0.0600 
    147 H147        3.8686  -19.5049  -44.2596 H         1 UNK         0.0600 
    148 H148        5.2049  -20.2120  -43.3654 H         1 UNK         0.0600 
    149 H149        1.6466  -20.5796  -43.6717 H         1 UNK         0.3000 
    150 H150       -0.6949  -23.2629  -44.0677 H         1 UNK         0.0600 
    151 H151       -0.7640  -22.8100  -41.6403 H         1 UNK         0.0600 
    152 H152       -1.9936  -21.8645  -42.4659 H         1 UNK         0.0600 
    153 H153       -0.5035  -21.0948  -41.9176 H         1 UNK         0.0600 
    154 H154       -1.0634  -20.4706  -44.3368 H         1 UNK         0.3000 
    155 H155        0.0338  -20.2119  -47.7599 H         1 UNK         0.0600 
    156 H156       -2.2870  -20.8660  -47.9756 H         1 UNK         0.0600 
    157 H157       -2.2806  -19.1296  -47.7863 H         1 UNK         0.0600 
    158 H158       -2.7282  -20.1539  -46.4311 H         1 UNK         0.0600 
    159 H159       -0.9475  -18.2498  -45.9306 H         1 UNK         0.3000 
    160 H160        2.1970  -17.4403  -44.4277 H         1 UNK         0.0600 
    161 H161        0.3690  -15.7757  -46.2291 H         1 UNK         0.0600 
    162 H162        2.0364  -16.1742  -46.6188 H         1 UNK         0.0600 
    163 H163        1.6794  -15.2078  -45.2026 H         1 UNK         0.0600 
    164 H164       -0.5895  -16.5960  -44.1631 H         1 UNK         0.3000 
    165 H165       -1.3956  -18.9129  -41.6140 H         1 UNK         0.0600 
    166 H166       -1.9113  -16.9102  -40.2359 H         1 UNK         0.0600 
    167 H167       -0.1967  -17.2939  -40.2068 H         1 UNK         0.0600 
    168 H168       -0.7739  -15.9540  -41.1815 H         1 UNK         0.0600 
    169 H169       -2.6613  -16.5630  -42.7604 H         1 UNK         0.3000 
    170 H170       -4.0574  -18.2720  -45.5373 H         1 UNK         0.0600 
    171 H171       -5.5946  -19.1896  -43.8027 H         1 UNK         0.0600 
    172 H172       -5.6097  -17.6378  -42.9736 H         1 UNK         0.0600 
    173 H173       -6.2949  -17.7880  -44.5928 H         1 UNK         0.0600 
    174 H174       -4.7442  -15.7733  -44.3704 H         1 UNK         0.3000 
    175 H175       -3.0660  -13.9619  -46.6116 H         1 UNK         0.0600 
    176 H176       -4.4690  -13.7384  -43.8918 H         1 UNK         0.0600 
    177 H177       -4.3824  -12.4889  -45.1246 H         1 UNK         0.0600 
    178 H178       -5.2659  -13.9651  -45.4508 H         1 UNK         0.0600 
    179 H179       -1.4179  -12.9291  -45.5956 H         1 UNK         0.3000 
    180 H180       -0.5218  -12.0634  -42.6895 H         1 UNK         0.0600 
    181 H181        0.3967  -13.9804  -41.5429 H         1 UNK         0.0600 
    182 H182        1.7353  -13.1676  -42.3260 H         1 UNK         0.0600 
    183 H183        1.0786  -14.6487  -43.0191 H         1 UNK         0.0600 
    184 H184        1.0173  -12.9963  -45.0748 H         1 UNK         0.3000 
    185 H185        0.5909   -9.9055  -46.7071 H         1 UNK         0.0600 
    186 H186        2.6102   -9.4260  -45.3070 H         1 UNK         0.0600 
    187 H187        3.1992  -11.0607  -45.5840 H         1 UNK         0.0600 
    188 H188        3.0556   -9.9282  -46.9293 H         1 UNK         0.0600 
    189 H189        2.0637  -12.1072  -47.5739 H         1 UNK         0.3000 
    190 H190        2.1049  -23.8251  -45.6541 H         1 UNK         0.3000 
    191 H191        1.1310  -25.7305  -45.2131 H         1 UNK         0.0600 
    192 H192        2.1716  -27.8832  -45.7347 H         1 UNK         0.0600 
    193 H193        3.4293  -26.7349  -45.3100 H         1 UNK         0.0600 
    194 H194        3.1590  -27.1677  -46.9986 H         1 UNK         0.0600 
    195 H195        0.4509  -24.1244  -47.7157 H         1 UNK         0.3000 
    196 H196       -1.8504  -25.5382  -48.4568 H         1 UNK         0.0600 
    197 H197       -0.3858  -26.8994  -49.9498 H         1 UNK         0.0600 
    198 H198       -1.3318  -25.7977  -50.9341 H         1 UNK         0.0600 
    199 H199        0.3569  -25.4387  -50.6002 H         1 UNK         0.0600 
    200 H200       -2.6466  -22.2252  -49.7871 H         1 UNK         0.3000 
    201 H201       -3.6550  -24.9406  -49.7401 H         1 UNK         0.0600 
    202 H202       -5.8262  -23.7616  -50.0518 H         1 UNK         0.0600 
    203 H203       -4.6262  -23.1911  -51.1981 H         1 UNK         0.0600 
    204 H204       -5.0416  -22.2091  -49.7930 H         1 UNK         0.0600 
    205 H205       -2.9461  -22.5671  -47.3821 H         1 UNK         0.3000 
    206 H206       -3.0442  -22.3579  -45.2084 H         1 UNK         0.0600 
    207 H207       -2.3483  -24.7557  -45.1503 H         1 UNK         0.0600 
    208 H208       -3.3151  -24.3131  -43.7502 H         1 UNK         0.0600 
    209 H209       -4.0381  -25.2468  -45.0520 H         1 UNK         0.0600 
    210 H210       -6.0481  -23.7101  -46.4834 H         1 UNK         0.3000 
    211 H211       -7.7549  -22.6871  -44.3816 H         1 UNK         0.0600 
    212 H212       -8.3903  -23.6644  -47.2190 H         1 UNK         0.0600 
    213 H213       -9.5713  -23.4004  -45.9408 H         1 UNK         0.0600 
    214 H214       -8.3613  -24.6617  -45.7648 H         1 UNK         0.0600 
    215 H215       -6.3417  -21.2287  -47.2514 H         1 UNK         0.3000 
    216 H216       -7.5500  -18.6634  -46.7323 H         1 UNK         0.0600 
    217 H217       -9.3978  -19.7186  -48.0732 H         1 UNK         0.0600 
    218 H218       -8.2464  -20.1747  -49.3268 H         1 UNK         0.0600 
    219 H219       -8.6007  -18.4784  -49.0224 H         1 UNK         0.0600 
    220 H220       -6.6745  -17.0426  -48.2138 H         1 UNK         0.3000 
    221 H221       -3.8655  -17.4658  -48.8993 H         1 UNK         0.0600 
    222 H222       -3.9116  -15.0211  -49.2562 H         1 UNK         0.0600 
    223 H223       -5.6654  -14.9892  -49.1167 H         1 UNK         0.0600 
    224 H224       -4.6852  -15.4011  -47.7226 H         1 UNK         0.0600 
    225 H225       -4.7273  -19.1926  -50.4829 H         1 UNK         0.3000 
    226 H226       -6.1263  -18.5080  -52.8262 H         1 UNK         0.0600 
    227 H227       -4.2141  -20.8385  -52.2886 H         1 UNK         0.0600 
    228 H228       -5.9480  -20.8142  -51.9794 H         1 UNK         0.0600 
    229 H229       -5.3487  -20.7561  -53.6291 H         1 UNK         0.0600 
    230 H230       -2.7599  -18.1505  -52.1464 H         1 UNK         0.3000 
    231 H231       -0.9708  -17.3402  -53.0889 H         1 UNK         0.0600 
    232 H232       -1.1904  -15.5345  -54.7716 H         1 UNK         0.0600 
    233 H233       -2.3849  -15.3598  -53.4952 H         1 UNK         0.0600 
    234 H234       -2.8635  -15.9833  -55.0737 H         1 UNK         0.0600 
    235 H235       -3.0344  -18.6237  -55.6878 H         1 UNK         0.3000 
    236 H236       -0.6436  -19.5687  -57.2296 H         1 UNK         0.0600 
    237 H237       -3.5136  -19.0059  -58.1431 H         1 UNK         0.0600 
    238 H238       -2.1317  -17.9423  -58.3996 H         1 UNK         0.0600 
    239 H239       -2.1784  -19.5181  -59.1717 H         1 UNK         0.0600 
    240 H240       -1.1664  -21.0574  -55.0112 H         1 UNK         0.3000 
    241 H241       -2.9030  -23.3104  -55.6396 H         1 UNK         0.0600 
    242 H242        0.2873  -22.6260  -56.7220 H         1 UNK         0.3800 
    243 H243        0.7228  -24.2807  -57.0560 H         1 UNK         0.3800 
    244 H244       -2.1027  -24.2437  -53.4554 H         1 UNK         0.0800 
    245 H245       -2.8756  -22.6990  -53.3469 H         1 UNK         0.0800 
    246 H246       -2.0423  -21.3218  -51.4588 H         1 UNK         0.0800 
    247 H247       -1.6434  -20.4290  -52.9044 H         1 UNK         0.0800 
@<TRIPOS>BOND
     1    1    2 1    
     2    1  127 1    
     3    1  128 1    
     4    1  129 1    
     5    2    3 2    
     6    2    4 am   BACKBONE|DICT|INTERRES
     7    4    5 1    
     8    4  130 1    
     9    5    6 1    
    10    5   65 1    
    11    5  131 1    
    12    6    7 1    
    13    6  132 1    
    14    6  133 1    
    15    7    8 1    
    16    8    9 1    
    17    8  134 1    
    18    8  135 1    
    19    9   10 ar   
    20    9   14 ar   
    21   10   11 ar   
    22   10  136 1    
    23   11   12 ar   
    24   11  126 1    
    25   12   13 ar   
    26   12  137 1    
    27   13   14 ar   
    28   13   15 1    
    29   14  138 1    
    30   15   16 1    
    31   15  139 1    
    32   15  140 1    
    33   16   17 1    
    34   17   18 1    
    35   17  141 1    
    36   17  142 1    
    37   18   19 1    
    38   18   67 1    
    39   18  143 1    
    40   19   20 am   BACKBONE|DICT|INTERRES
    41   19  144 1    
    42   20   21 2    
    43   20   22 1    
    44   22   23 1    
    45   22   24 1    
    46   22  145 1    
    47   23  146 1    
    48   23  147 1    
    49   23  148 1    
    50   24   25 am   BACKBONE|DICT|INTERRES
    51   24  149 1    
    52   25   26 2    
    53   25   27 1    
    54   27   28 1    
    55   27   29 1    
    56   27  150 1    
    57   28  151 1    
    58   28  152 1    
    59   28  153 1    
    60   29   30 am   BACKBONE|DICT|INTERRES
    61   29  154 1    
    62   30   31 2    
    63   30   32 1    
    64   32   33 1    
    65   32   34 1    
    66   32  155 1    
    67   33  156 1    
    68   33  157 1    
    69   33  158 1    
    70   34   35 am   BACKBONE|DICT|INTERRES
    71   34  159 1    
    72   35   36 2    
    73   35   37 1    
    74   37   38 1    
    75   37   39 1    
    76   37  160 1    
    77   38  161 1    
    78   38  162 1    
    79   38  163 1    
    80   39   40 am   BACKBONE|DICT|INTERRES
    81   39  164 1    
    82   40   41 2    
    83   40   42 1    
    84   42   43 1    
    85   42   44 1    
    86   42  165 1    
    87   43  166 1    
    88   43  167 1    
    89   43  168 1    
    90   44   45 am   BACKBONE|DICT|INTERRES
    91   44  169 1    
    92   45   46 2    
    93   45   47 1    
    94   47   48 1    
    95   47   49 1    
    96   47  170 1    
    97   48  171 1    
    98   48  172 1    
    99   48  173 1    
   100   49   50 am   BACKBONE|DICT|INTERRES
   101   49  174 1    
   102   50   51 2    
   103   50   52 1    
   104   52   53 1    
   105   52   54 1    
   106   52  175 1    
   107   53  176 1    
   108   53  177 1    
   109   53  178 1    
   110   54   55 am   BACKBONE|DICT|INTERRES
   111   54  179 1    
   112   55   56 2    
   113   55   57 1    
   114   57   58 1    
   115   57   59 1    
   116   57  180 1    
   117   58  181 1    
   118   58  182 1    
   119   58  183 1    
   120   59   60 am   BACKBONE|DICT|INTERRES
   121   59  184 1    
   122   60   61 2    
   123   60   62 1    
   124   62   63 1    
   125   62   64 1    
   126   62  185 1    
   127   63  186 1    
   128   63  187 1    
   129   63  188 1    
   130   64   65 am   BACKBONE|DICT|INTERRES
   131   64  189 1    
   132   65   66 2    
   133   67   68 2    
   134   67   69 am   BACKBONE|DICT|INTERRES
   135   69   70 1    
   136   69  190 1    
   137   70   71 1    
   138   70   72 1    
   139   70  191 1    
   140   71  192 1    
   141   71  193 1    
   142   71  194 1    
   143   72   73 2    
   144   72   74 am   BACKBONE|DICT|INTERRES
   145   74   75 1    
   146   74  195 1    
   147   75   76 1    
   148   75   77 1    
   149   75  196 1    
   150   76  197 1    
   151   76  198 1    
   152   76  199 1    
   153   77   78 2    
   154   77   79 am   BACKBONE|DICT|INTERRES
   155   79   80 1    
   156   79  200 1    
   157   80   81 1    
   158   80   82 1    
   159   80  201 1    
   160   81  202 1    
   161   81  203 1    
   162   81  204 1    
   163   82   83 2    
   164   82   84 am   BACKBONE|DICT|INTERRES
   165   84   85 1    
   166   84  205 1    
   167   85   86 1    
   168   85   87 1    
   169   85  206 1    
   170   86  207 1    
   171   86  208 1    
   172   86  209 1    
   173   87   88 2    
   174   87   89 am   BACKBONE|DICT|INTERRES
   175   89   90 1    
   176   89  210 1    
   177   90   91 1    
   178   90   92 1    
   179   90  211 1    
   180   91  212 1    
   181   91  213 1    
   182   91  214 1    
   183   92   93 2    
   184   92   94 am   BACKBONE|DICT|INTERRES
   185   94   95 1    
   186   94  215 1    
   187   95   96 1    
   188   95   97 1    
   189   95  216 1    
   190   96  217 1    
   191   96  218 1    
   192   96  219 1    
   193   97   98 2    
   194   97   99 am   BACKBONE|DICT|INTERRES
   195   99  100 1    
   196   99  220 1    
   197  100  101 1    
   198  100  102 1    
   199  100  221 1    
   200  101  222 1    
   201  101  223 1    
   202  101  224 1    
   203  102  103 2    
   204  102  104 am   BACKBONE|DICT|INTERRES
   205  104  105 1    
   206  104  225 1    
   207  105  106 1    
   208  105  107 1    
   209  105  226 1    
   210  106  227 1    
   211  106  228 1    
   212  106  229 1    
   213  107  108 2    
   214  107  109 am   BACKBONE|DICT|INTERRES
   215  109  110 1    
   216  109  230 1    
   217  110  111 1    
   218  110  112 1    
   219  110  231 1    
   220  111  232 1    
   221  111  233 1    
   222  111  234 1    
   223  112  113 2    
   224  112  114 am   BACKBONE|DICT|INTERRES
   225  114  115 1    
   226  114  235 1    
   227  115  116 1    
   228  115  117 1    
   229  115  236 1    
   230  116  237 1    
   231  116  238 1    
   232  116  239 1    
   233  117  118 2    
   234  117  119 am   BACKBONE|DICT|INTERRES
   235  119  120 1    
   236  119  240 1    
   237  120  121 1    
   238  120  124 1    
   239  120  241 1    
   240  121  122 am   BACKBONE|DICT|INTERRES
   241  121  123 2    
   242  122  242 1    
   243  122  243 1    
   244  124  125 1    
   245  124  244 1    
   246  124  245 1    
   247  125  126 1    
   248  126  246 1    
   249  126  247 1    
@<TRIPOS>SUBSTRUCTURE
     1 UNK         1 GROUP             0       ****    0 ROOT    
