@<TRIPOS>MOLECULE
3R540
247   249    1
SMALL
USER_CHARGES


@<TRIPOS>ATOM
      1 CA          3.7812  -10.1875  -45.3185 C.3       0 UNK        -0.1800 
      2 C           2.8263  -11.3675  -45.4208 C.2       0 UNK         0.5000 
      3 O           2.5532  -12.0161  -44.4094 O.2       0 UNK        -0.5000 
      4 N           2.3245  -11.6337  -46.6368 N.am      1 UNK        -0.5000 
      5 CA          1.4169  -12.7274  -47.0127 C.3       1 UNK         0.1400 
      6 C6          1.0352  -12.6401  -48.5146 C.3       23 UNK        -0.0398 
      7 S7          0.2372  -14.1470  -49.1704 S.3       23 UNK        -0.2404 
      8 C8          1.5348  -14.7850  -50.2724 C.3       23 UNK        -0.0205 
      9 C9          1.0583  -15.9974  -51.0584 C.ar      23 UNK        -0.0193 
     10 C10         0.4071  -15.8281  -52.2842 C.ar      23 UNK        -0.1150 
     11 C11         0.0157  -16.9369  -53.0397 C.ar      23 UNK        -0.0193 
     12 C12         0.2748  -18.2216  -52.5517 C.ar      23 UNK        -0.1150 
     13 C13         0.9036  -18.4116  -51.3188 C.ar      23 UNK        -0.0193 
     14 C14         1.3010  -17.2885  -50.5801 C.ar      23 UNK        -0.1150 
     15 C15         1.1764  -19.8428  -50.8557 C.3       23 UNK        -0.0205 
     16 S16         1.3527  -20.0612  -49.0540 S.3       23 UNK        -0.2404 
     17 C17        -0.3540  -19.7854  -48.4703 C.3       23 UNK        -0.0398 
     18 CA         -1.1150  -21.1027  -48.1971 C.3       11 UNK         0.1400 
     19 N          -0.3527  -22.0066  -47.3301 N.am      11 UNK        -0.5000 
     20 C          -0.7344  -23.1863  -46.8222 C.2       10 UNK         0.5000 
     21 O          -1.8722  -23.6476  -46.9295 O.2       10 UNK        -0.5000 
     22 CA          0.3478  -24.0112  -46.0923 C.3       10 UNK         0.1400 
     23 CB          0.7513  -25.2216  -46.9484 C.3       10 UNK        -0.1800 
     24 N           1.5590  -23.2472  -45.7689 N.am      10 UNK        -0.5000 
     25 C           1.6399  -22.3154  -44.8101 C.2       9 UNK         0.5000 
     26 O           0.7023  -22.0422  -44.0609 O.2       9 UNK        -0.5000 
     27 CA          2.9785  -21.5534  -44.7126 C.3       9 UNK         0.1400 
     28 CB          3.2555  -20.7655  -46.0039 C.3       9 UNK        -0.1800 
     29 N           2.9836  -20.6073  -43.6001 N.am      9 UNK        -0.5000 
     30 C           3.1933  -20.9183  -42.3151 C.2       8 UNK         0.5000 
     31 O           3.5480  -22.0315  -41.9242 O.2       8 UNK        -0.5000 
     32 CA          2.9354  -19.7925  -41.2951 C.3       8 UNK         0.1400 
     33 CB          4.1228  -18.8192  -41.2312 C.3       8 UNK        -0.1800 
     34 N           1.7156  -19.0521  -41.6177 N.am      8 UNK        -0.5000 
     35 C           0.4749  -19.5389  -41.4702 C.2       7 UNK         0.5000 
     36 O           0.2235  -20.5972  -40.8940 O.2       7 UNK        -0.5000 
     37 CA         -0.6797  -18.7115  -42.0627 C.3       7 UNK         0.1400 
     38 CB         -1.3118  -17.8095  -40.9919 C.3       7 UNK        -0.1800 
     39 N          -0.2389  -17.8858  -43.1872 N.am      7 UNK        -0.5000 
     40 C          -0.1870  -18.3037  -44.4592 C.2       6 UNK         0.5000 
     41 O          -0.5734  -19.4093  -44.8363 O.2       6 UNK        -0.5000 
     42 CA          0.3730  -17.3206  -45.5019 C.3       6 UNK         0.1400 
     43 CB         -0.7817  -16.6027  -46.2147 C.3       6 UNK        -0.1800 
     44 N           1.3059  -16.3423  -44.9416 N.am      6 UNK        -0.5000 
     45 C           2.5329  -16.6647  -44.5087 C.2       5 UNK         0.5000 
     46 O           2.9859  -17.8083  -44.5506 O.2       5 UNK        -0.5000 
     47 CA          3.3772  -15.5542  -43.8602 C.3       5 UNK         0.1400 
     48 CB          4.2666  -14.8527  -44.8956 C.3       5 UNK        -0.1800 
     49 N           2.6028  -14.5663  -43.1022 N.am      5 UNK        -0.5000 
     50 C           1.8913  -14.8731  -42.0072 C.2       4 UNK         0.5000 
     51 O           1.6654  -16.0318  -41.6550 O.2       4 UNK        -0.5000 
     52 CA          1.3817  -13.7256  -41.1253 C.3       4 UNK         0.1400 
     53 CB          2.4443  -13.3963  -40.0565 C.3       4 UNK        -0.1800 
     54 N           1.0135  -12.5246  -41.8779 N.am      4 UNK        -0.5000 
     55 C           0.2928  -11.5188  -41.3602 C.2       3 UNK         0.5000 
     56 O          -0.1441  -11.5082  -40.2082 O.2       3 UNK        -0.5000 
     57 CA         -0.0099  -10.3244  -42.2800 C.3       3 UNK         0.1400 
     58 CB          1.2063   -9.3913  -42.3855 C.3       3 UNK        -0.1800 
     59 N          -0.4347  -10.7432  -43.6138 N.am      3 UNK        -0.5000 
     60 C          -1.6216  -11.3038  -43.8885 C.2       2 UNK         0.5000 
     61 O          -2.4927  -11.5075  -43.0419 O.2       2 UNK        -0.5000 
     62 CA         -1.8985  -11.6862  -45.3556 C.3       2 UNK         0.1400 
     63 CB         -2.8414  -10.6643  -46.0097 C.3       2 UNK        -0.1800 
     64 N          -0.6862  -11.7943  -46.1682 N.am      2 UNK        -0.5000 
     65 C           0.1873  -12.8058  -46.0844 C.2       1 UNK         0.5000 
     66 O           0.0884  -13.7327  -45.2793 O.2       1 UNK        -0.5000 
     67 C          -2.5412  -20.8237  -47.6874 C.2       11 UNK         0.5000 
     68 O          -3.4974  -21.0736  -48.4214 O.2       11 UNK        -0.5000 
     69 N          -2.6563  -20.3639  -46.4363 N.am      12 UNK        -0.5000 
     70 CA         -3.9312  -20.1663  -45.7502 C.3       12 UNK         0.1400 
     71 CB         -3.9123  -18.8204  -45.0085 C.3       12 UNK        -0.1800 
     72 C          -4.2261  -21.3113  -44.7677 C.2       12 UNK         0.5000 
     73 O          -5.3967  -21.6341  -44.5695 O.2       12 UNK        -0.5000 
     74 N          -3.1817  -21.9106  -44.1729 N.am      13 UNK        -0.5000 
     75 CA         -3.3066  -22.9259  -43.1204 C.3       13 UNK         0.1400 
     76 CB         -1.9356  -23.1809  -42.4819 C.3       13 UNK        -0.1800 
     77 C          -3.9275  -24.2509  -43.5987 C.2       13 UNK         0.5000 
     78 O          -4.7287  -24.8389  -42.8714 O.2       13 UNK        -0.5000 
     79 N          -3.5635  -24.6819  -44.8125 N.am      14 UNK        -0.5000 
     80 CA         -4.1208  -25.8560  -45.4892 C.3       14 UNK         0.1400 
     81 CB         -2.9618  -26.7501  -45.9612 C.3       14 UNK        -0.1800 
     82 C          -5.0133  -25.4450  -46.6768 C.2       14 UNK         0.5000 
     83 O          -5.4925  -26.3181  -47.4010 O.2       14 UNK        -0.5000 
     84 N          -5.2013  -24.1289  -46.8648 N.am      15 UNK        -0.5000 
     85 CA         -5.9207  -23.4686  -47.9573 C.3       15 UNK         0.1400 
     86 CB         -7.4263  -23.7980  -47.9016 C.3       15 UNK        -0.1800 
     87 C          -5.2975  -23.7372  -49.3435 C.2       15 UNK         0.5000 
     88 O          -6.0083  -23.7272  -50.3506 O.2       15 UNK        -0.5000 
     89 N          -3.9729  -23.9476  -49.3890 N.am      16 UNK        -0.5000 
     90 CA         -3.2261  -24.2431  -50.6127 C.3       16 UNK         0.1400 
     91 CB         -1.7738  -24.5997  -50.2633 C.3       16 UNK        -0.1800 
     92 C          -3.2881  -23.1188  -51.6659 C.2       16 UNK         0.5000 
     93 O          -3.2832  -23.4233  -52.8567 O.2       16 UNK        -0.5000 
     94 N          -3.4023  -21.8588  -51.2189 N.am      17 UNK        -0.5000 
     95 CA         -3.5694  -20.6836  -52.0798 C.3       17 UNK         0.1400 
     96 CB         -3.1396  -19.4263  -51.3108 C.3       17 UNK        -0.1800 
     97 C          -4.9991  -20.5221  -52.6317 C.2       17 UNK         0.5000 
     98 O          -5.1890  -19.7911  -53.6039 O.2       17 UNK        -0.5000 
     99 N          -5.9824  -21.1911  -52.0139 N.am      18 UNK        -0.5000 
    100 CA        -7.3458  -21.2846  -52.5348 C.3       18 UNK         0.1400 
    101 CB        -8.3395  -21.4372  -51.3728 C.3       18 UNK        -0.1800 
    102 C         -7.4645  -22.4596  -53.5200 C.2       18 UNK         0.5000 
    103 O         -8.1542  -22.3353  -54.5326 O.2       18 UNK        -0.5000 
    104 N         -6.7861  -23.5733  -53.2072 N.am      19 UNK        -0.5000 
    105 CA        -6.7459  -24.7858  -54.0211 C.3       19 UNK         0.1400 
    106 CB        -6.1306  -25.9285  -53.1982 C.3       19 UNK        -0.1800 
    107 C         -5.9879  -24.5964  -55.3482 C.2       19 UNK         0.5000 
    108 O         -6.5033  -24.9861  -56.3973 O.2       19 UNK        -0.5000 
    109 N         -4.7877  -24.0077  -55.2823 N.am      20 UNK        -0.5000 
    110 CA        -3.8993  -23.7665  -56.4164 C.3       20 UNK         0.1400 
    111 CB        -3.2705  -25.0951  -56.9006 C.3       20 UNK        -0.1800 
    112 C         -2.8719  -22.6909  -56.0168 C.2       20 UNK         0.5000 
    113 O         -3.2701  -21.6516  -55.4898 O.2       20 UNK        -0.5000 
    114 N         -1.5813  -22.9556  -56.2698 N.am      21 UNK        -0.5000 
    115 CA        -0.3823  -22.1679  -55.9512 C.3       21 UNK         0.1400 
    116 CB        -0.2132  -21.9910  -54.4289 C.3       21 UNK        -0.1800 
    117 C         -0.2794  -20.8167  -56.6854 C.2       21 UNK         0.5000 
    118 O          0.7308  -20.5625  -57.3430 O.2       21 UNK        -0.5000 
    119 N         -1.3057  -19.9743  -56.5502 N.am      22 UNK        -0.5000 
    120 CA        -1.3961  -18.6383  -57.1508 C.3       22 UNK         0.1400 
    121 C         -1.7288  -18.6889  -58.6673 C.2       22 UNK         0.5000 
    122 N         -1.2770  -17.7092  -59.4388 N.am      22 UNK        -0.7600 
    123 O         -2.4223  -19.5830  -59.1483 O.2       22 UNK        -0.5000 
    124 C124       -2.4013  -17.7269  -56.3951 C.3       23 UNK        -0.0398 
    125 S125       -2.1722  -17.7038  -54.5823 S.3       23 UNK        -0.2404 
    126 C126       -0.6287  -16.7508  -54.4080 C.3       23 UNK        -0.0205 
    127 H127        3.2961   -9.3523  -44.8143 H         1 UNK         0.0600 
    128 H128        4.1116   -9.8483  -46.3004 H         1 UNK         0.0600 
    129 H129        4.6636  -10.4689  -44.7438 H         1 UNK         0.0600 
    130 H130        2.6040  -11.0336  -47.3996 H         1 UNK         0.3000 
    131 H131        1.9716  -13.6558  -46.8783 H         1 UNK         0.0600 
    132 H132        0.3778  -11.7912  -48.7077 H         1 UNK         0.0800 
    133 H133        1.9321  -12.4452  -49.1040 H         1 UNK         0.0800 
    134 H134        2.4167  -15.0399  -49.6824 H         1 UNK         0.0800 
    135 H135        1.8430  -14.0005  -50.9655 H         1 UNK         0.0800 
    136 H136        0.2260  -14.8301  -52.6584 H         1 UNK         0.1150 
    137 H137       -0.0121  -19.0801  -53.1429 H         1 UNK         0.1150 
    138 H138        1.8142  -17.4096  -49.6372 H         1 UNK         0.1150 
    139 H139        0.3857  -20.5080  -51.2072 H         1 UNK         0.0800 
    140 H140        2.0971  -20.1821  -51.3317 H         1 UNK         0.0800 
    141 H141       -0.8885  -19.1554  -49.1809 H         1 UNK         0.0800 
    142 H142       -0.2889  -19.2044  -47.5554 H         1 UNK         0.0800 
    143 H143       -1.2201  -21.6106  -49.1556 H         1 UNK         0.0600 
    144 H144        0.6043  -21.7296  -47.1715 H         1 UNK         0.3000 
    145 H145       -0.0920  -24.3810  -45.1645 H         1 UNK         0.0600 
    146 H146       -0.1130  -25.8377  -47.1961 H         1 UNK         0.0600 
    147 H147        1.4600  -25.8597  -46.4202 H         1 UNK         0.0600 
    148 H148        1.2110  -24.9139  -47.8886 H         1 UNK         0.0600 
    149 H149        2.3691  -23.4309  -46.3434 H         1 UNK         0.3000 
    150 H150        3.7776  -22.2827  -44.5659 H         1 UNK         0.0600 
    151 H151        2.4606  -20.0474  -46.2092 H         1 UNK         0.0600 
    152 H152        3.3403  -21.4234  -46.8691 H         1 UNK         0.0600 
    153 H153        4.1906  -20.2097  -45.9322 H         1 UNK         0.0600 
    154 H154        2.7245  -19.6539  -43.8301 H         1 UNK         0.3000 
    155 H155        2.8147  -20.2472  -40.3096 H         1 UNK         0.0600 
    156 H156        4.3139  -18.3495  -42.1961 H         1 UNK         0.0600 
    157 H157        5.0345  -19.3385  -40.9339 H         1 UNK         0.0600 
    158 H158        3.9453  -18.0274  -40.5031 H         1 UNK         0.0600 
    159 H159        1.8281  -18.1315  -42.0235 H         1 UNK         0.3000 
    160 H160       -1.4438  -19.4125  -42.4060 H         1 UNK         0.0600 
    161 H161       -0.5949  -17.0920  -40.5916 H         1 UNK         0.0600 
    162 H162       -1.6844  -18.4017  -40.1552 H         1 UNK         0.0600 
    163 H163       -2.1560  -17.2509  -41.3963 H         1 UNK         0.0600 
    164 H164        0.1372  -16.9751  -42.9572 H         1 UNK         0.3000 
    165 H165        0.9244  -17.9023  -46.2420 H         1 UNK         0.0600 
    166 H166       -0.4100  -15.9571  -47.0077 H         1 UNK         0.0600 
    167 H167       -1.4693  -17.3137  -46.6735 H         1 UNK         0.0600 
    168 H168       -1.3619  -15.9901  -45.5239 H         1 UNK         0.0600 
    169 H169        0.9793  -15.3812  -44.8744 H         1 UNK         0.3000 
    170 H170        4.0430  -16.0443  -43.1469 H         1 UNK         0.0600 
    171 H171        4.9238  -14.1232  -44.4219 H         1 UNK         0.0600 
    172 H172        3.6792  -14.3329  -45.6480 H         1 UNK         0.0600 
    173 H173        4.9002  -15.5721  -45.4159 H         1 UNK         0.0600 
    174 H174        2.7120  -13.5979  -43.3889 H         1 UNK         0.3000 
    175 H175        0.4867  -14.0973  -40.6216 H         1 UNK         0.0600 
    176 H176        2.7669  -14.2973  -39.5326 H         1 UNK         0.0600 
    177 H177        3.3295  -12.9412  -40.5022 H         1 UNK         0.0600 
    178 H178        2.0614  -12.7116  -39.3004 H         1 UNK         0.0600 
    179 H179        1.3247  -12.4639  -42.8420 H         1 UNK         0.3000 
    180 H180       -0.8266   -9.7547  -41.8312 H         1 UNK         0.0600 
    181 H181        2.0862   -9.9119  -42.7618 H         1 UNK         0.0600 
    182 H182        1.4661   -8.9852  -41.4072 H         1 UNK         0.0600 
    183 H183        1.0042   -8.5468  -43.0444 H         1 UNK         0.0600 
    184 H184        0.2329  -10.6396  -44.3626 H         1 UNK         0.3000 
    185 H185       -2.3983  -12.6575  -45.3510 H         1 UNK         0.0600 
    186 H186       -3.7747  -10.5794  -45.4513 H         1 UNK         0.0600 
    187 H187       -2.3925   -9.6711  -46.0513 H         1 UNK         0.0600 
    188 H188       -3.0997  -10.9602  -47.0268 H         1 UNK         0.0600 
    189 H189       -0.5160  -11.0470  -46.8251 H         1 UNK         0.3000 
    190 H190       -1.8158  -20.1643  -45.8951 H         1 UNK         0.3000 
    191 H191       -4.7491  -20.1324  -46.4733 H         1 UNK         0.0600 
    192 H192       -3.7001  -17.9968  -45.6899 H         1 UNK         0.0600 
    193 H193       -4.8798  -18.6185  -44.5473 H         1 UNK         0.0600 
    194 H194       -3.1654  -18.8027  -44.2152 H         1 UNK         0.0600 
    195 H195       -2.2460  -21.5954  -44.3887 H         1 UNK         0.3000 
    196 H196       -3.9616  -22.5164  -42.3484 H         1 UNK         0.0600 
    197 H197       -2.0218  -23.8526  -41.6271 H         1 UNK         0.0600 
    198 H198       -1.4879  -22.2546  -42.1237 H         1 UNK         0.0600 
    199 H199       -1.2419  -23.6381  -43.1867 H         1 UNK         0.0600 
    200 H200       -2.9022  -24.1393  -45.3603 H         1 UNK         0.3000 
    201 H201       -4.7417  -26.4377  -44.8053 H         1 UNK         0.0600 
    202 H202       -3.3349  -27.6955  -46.3566 H         1 UNK         0.0600 
    203 H203       -2.2825  -26.9862  -45.1420 H         1 UNK         0.0600 
    204 H204       -2.3842  -26.2734  -46.7526 H         1 UNK         0.0600 
    205 H205       -4.7785  -23.5093  -46.1893 H         1 UNK         0.3000 
    206 H206       -5.8153  -22.3972  -47.7828 H         1 UNK         0.0600 
    207 H207       -7.8321  -23.6189  -46.9060 H         1 UNK         0.0600 
    208 H208       -7.9894  -23.1737  -48.5950 H         1 UNK         0.0600 
    209 H209       -7.6244  -24.8376  -48.1640 H         1 UNK         0.0600 
    210 H210       -3.4429  -23.9041  -48.5268 H         1 UNK         0.3000 
    211 H211       -3.6832  -25.1280  -51.0591 H         1 UNK         0.0600 
    212 H212       -1.2436  -23.7618  -49.8154 H         1 UNK         0.0600 
    213 H213       -1.2210  -24.8948  -51.1561 H         1 UNK         0.0600 
    214 H214       -1.7299  -25.4341  -49.5629 H         1 UNK         0.0600 
    215 H215       -3.4552  -21.6957  -50.2168 H         1 UNK         0.3000 
    216 H216       -2.9099  -20.7853  -52.9417 H         1 UNK         0.0600 
    217 H217       -3.2810  -18.5284  -51.9129 H         1 UNK         0.0600 
    218 H218       -2.0830  -19.4748  -51.0572 H         1 UNK         0.0600 
    219 H219       -3.7121  -19.2939  -50.3929 H         1 UNK         0.0600 
    220 H220       -5.7516  -21.7985  -51.2384 H         1 UNK         0.3000 
    221 H221       -7.6006  -20.3662  -53.0681 H         1 UNK         0.0600 
    222 H222       -8.2086  -22.3815  -50.8459 H         1 UNK         0.0600 
    223 H223       -8.2304  -20.6293  -50.6493 H         1 UNK         0.0600 
    224 H224       -9.3666  -21.4109  -51.7384 H         1 UNK         0.0600 
    225 H225       -6.3019  -23.6086  -52.3165 H         1 UNK         0.3000 
    226 H226       -7.7752  -25.0610  -54.2607 H         1 UNK         0.0600 
    227 H227       -6.1388  -26.8623  -53.7616 H         1 UNK         0.0600 
    228 H228       -5.0959  -25.7182  -52.9278 H         1 UNK         0.0600 
    229 H229       -6.6891  -26.0978  -52.2772 H         1 UNK         0.0600 
    230 H230       -4.4269  -23.6904  -54.3845 H         1 UNK         0.3000 
    231 H231       -4.4876  -23.3426  -57.2325 H         1 UNK         0.0600 
    232 H232       -2.6715  -25.5650  -56.1194 H         1 UNK         0.0600 
    233 H233       -2.6331  -24.9412  -57.7721 H         1 UNK         0.0600 
    234 H234       -4.0348  -25.8114  -57.2013 H         1 UNK         0.0600 
    235 H235       -1.3877  -23.8322  -56.7331 H         1 UNK         0.3000 
    236 H236        0.4580  -22.7723  -56.2965 H         1 UNK         0.0600 
    237 H237       -0.2430  -22.9506  -53.9126 H         1 UNK         0.0600 
    238 H238        0.7438  -21.5230  -54.1957 H         1 UNK         0.0600 
    239 H239       -0.9924  -21.3605  -54.0041 H         1 UNK         0.0600 
    240 H240       -2.1210  -20.3028  -56.0384 H         1 UNK         0.3000 
    241 H241       -0.4077  -18.1850  -57.0646 H         1 UNK         0.0600 
    242 H242       -1.4970  -17.7216  -60.4230 H         1 UNK         0.3800 
    243 H243       -0.7105  -16.9602  -59.0710 H         1 UNK         0.3800 
    244 H244       -3.4233  -18.0603  -56.5846 H         1 UNK         0.0800 
    245 H245       -2.3428  -16.7021  -56.7654 H         1 UNK         0.0800 
    246 H246       -0.8419  -15.6983  -54.6007 H         1 UNK         0.0800 
    247 H247        0.0942  -17.0658  -55.1595 H         1 UNK         0.0800 
@<TRIPOS>BOND
     1    1    2 1    
     2    1  127 1    
     3    1  128 1    
     4    1  129 1    
     5    2    3 2    
     6    2    4 am   BACKBONE|DICT|INTERRES
     7    4    5 1    
     8    4  130 1    
     9    5    6 1    
    10    5   65 1    
    11    5  131 1    
    12    6    7 1    
    13    6  132 1    
    14    6  133 1    
    15    7    8 1    
    16    8    9 1    
    17    8  134 1    
    18    8  135 1    
    19    9   10 ar   
    20    9   14 ar   
    21   10   11 ar   
    22   10  136 1    
    23   11   12 ar   
    24   11  126 1    
    25   12   13 ar   
    26   12  137 1    
    27   13   14 ar   
    28   13   15 1    
    29   14  138 1    
    30   15   16 1    
    31   15  139 1    
    32   15  140 1    
    33   16   17 1    
    34   17   18 1    
    35   17  141 1    
    36   17  142 1    
    37   18   19 1    
    38   18   67 1    
    39   18  143 1    
    40   19   20 am   BACKBONE|DICT|INTERRES
    41   19  144 1    
    42   20   21 2    
    43   20   22 1    
    44   22   23 1    
    45   22   24 1    
    46   22  145 1    
    47   23  146 1    
    48   23  147 1    
    49   23  148 1    
    50   24   25 am   BACKBONE|DICT|INTERRES
    51   24  149 1    
    52   25   26 2    
    53   25   27 1    
    54   27   28 1    
    55   27   29 1    
    56   27  150 1    
    57   28  151 1    
    58   28  152 1    
    59   28  153 1    
    60   29   30 am   BACKBONE|DICT|INTERRES
    61   29  154 1    
    62   30   31 2    
    63   30   32 1    
    64   32   33 1    
    65   32   34 1    
    66   32  155 1    
    67   33  156 1    
    68   33  157 1    
    69   33  158 1    
    70   34   35 am   BACKBONE|DICT|INTERRES
    71   34  159 1    
    72   35   36 2    
    73   35   37 1    
    74   37   38 1    
    75   37   39 1    
    76   37  160 1    
    77   38  161 1    
    78   38  162 1    
    79   38  163 1    
    80   39   40 am   BACKBONE|DICT|INTERRES
    81   39  164 1    
    82   40   41 2    
    83   40   42 1    
    84   42   43 1    
    85   42   44 1    
    86   42  165 1    
    87   43  166 1    
    88   43  167 1    
    89   43  168 1    
    90   44   45 am   BACKBONE|DICT|INTERRES
    91   44  169 1    
    92   45   46 2    
    93   45   47 1    
    94   47   48 1    
    95   47   49 1    
    96   47  170 1    
    97   48  171 1    
    98   48  172 1    
    99   48  173 1    
   100   49   50 am   BACKBONE|DICT|INTERRES
   101   49  174 1    
   102   50   51 2    
   103   50   52 1    
   104   52   53 1    
   105   52   54 1    
   106   52  175 1    
   107   53  176 1    
   108   53  177 1    
   109   53  178 1    
   110   54   55 am   BACKBONE|DICT|INTERRES
   111   54  179 1    
   112   55   56 2    
   113   55   57 1    
   114   57   58 1    
   115   57   59 1    
   116   57  180 1    
   117   58  181 1    
   118   58  182 1    
   119   58  183 1    
   120   59   60 am   BACKBONE|DICT|INTERRES
   121   59  184 1    
   122   60   61 2    
   123   60   62 1    
   124   62   63 1    
   125   62   64 1    
   126   62  185 1    
   127   63  186 1    
   128   63  187 1    
   129   63  188 1    
   130   64   65 am   BACKBONE|DICT|INTERRES
   131   64  189 1    
   132   65   66 2    
   133   67   68 2    
   134   67   69 am   BACKBONE|DICT|INTERRES
   135   69   70 1    
   136   69  190 1    
   137   70   71 1    
   138   70   72 1    
   139   70  191 1    
   140   71  192 1    
   141   71  193 1    
   142   71  194 1    
   143   72   73 2    
   144   72   74 am   BACKBONE|DICT|INTERRES
   145   74   75 1    
   146   74  195 1    
   147   75   76 1    
   148   75   77 1    
   149   75  196 1    
   150   76  197 1    
   151   76  198 1    
   152   76  199 1    
   153   77   78 2    
   154   77   79 am   BACKBONE|DICT|INTERRES
   155   79   80 1    
   156   79  200 1    
   157   80   81 1    
   158   80   82 1    
   159   80  201 1    
   160   81  202 1    
   161   81  203 1    
   162   81  204 1    
   163   82   83 2    
   164   82   84 am   BACKBONE|DICT|INTERRES
   165   84   85 1    
   166   84  205 1    
   167   85   86 1    
   168   85   87 1    
   169   85  206 1    
   170   86  207 1    
   171   86  208 1    
   172   86  209 1    
   173   87   88 2    
   174   87   89 am   BACKBONE|DICT|INTERRES
   175   89   90 1    
   176   89  210 1    
   177   90   91 1    
   178   90   92 1    
   179   90  211 1    
   180   91  212 1    
   181   91  213 1    
   182   91  214 1    
   183   92   93 2    
   184   92   94 am   BACKBONE|DICT|INTERRES
   185   94   95 1    
   186   94  215 1    
   187   95   96 1    
   188   95   97 1    
   189   95  216 1    
   190   96  217 1    
   191   96  218 1    
   192   96  219 1    
   193   97   98 2    
   194   97   99 am   BACKBONE|DICT|INTERRES
   195   99  100 1    
   196   99  220 1    
   197  100  101 1    
   198  100  102 1    
   199  100  221 1    
   200  101  222 1    
   201  101  223 1    
   202  101  224 1    
   203  102  103 2    
   204  102  104 am   BACKBONE|DICT|INTERRES
   205  104  105 1    
   206  104  225 1    
   207  105  106 1    
   208  105  107 1    
   209  105  226 1    
   210  106  227 1    
   211  106  228 1    
   212  106  229 1    
   213  107  108 2    
   214  107  109 am   BACKBONE|DICT|INTERRES
   215  109  110 1    
   216  109  230 1    
   217  110  111 1    
   218  110  112 1    
   219  110  231 1    
   220  111  232 1    
   221  111  233 1    
   222  111  234 1    
   223  112  113 2    
   224  112  114 am   BACKBONE|DICT|INTERRES
   225  114  115 1    
   226  114  235 1    
   227  115  116 1    
   228  115  117 1    
   229  115  236 1    
   230  116  237 1    
   231  116  238 1    
   232  116  239 1    
   233  117  118 2    
   234  117  119 am   BACKBONE|DICT|INTERRES
   235  119  120 1    
   236  119  240 1    
   237  120  121 1    
   238  120  124 1    
   239  120  241 1    
   240  121  122 am   BACKBONE|DICT|INTERRES
   241  121  123 2    
   242  122  242 1    
   243  122  243 1    
   244  124  125 1    
   245  124  244 1    
   246  124  245 1    
   247  125  126 1    
   248  126  246 1    
   249  126  247 1    
@<TRIPOS>SUBSTRUCTURE
     1 UNK         1 GROUP             0       ****    0 ROOT    
