@<TRIPOS>MOLECULE
3R540
247   249    1
SMALL
USER_CHARGES


@<TRIPOS>ATOM
      1 CA         -1.3924  -16.3067  -50.2381 C.3       0 UNK        -0.1800 
      2 C          -0.3636  -15.4819  -49.4845 C.2       0 UNK         0.5000 
      3 O          -0.6976  -14.4255  -48.9492 O.2       0 UNK        -0.5000 
      4 N           0.8806  -15.9688  -49.4366 N.am      1 UNK        -0.5000 
      5 CA          1.9610  -15.4088  -48.6204 C.3       1 UNK         0.1400 
      6 C6          3.3602  -15.7300  -49.2063 C.3       23 UNK        -0.0398 
      7 S7          3.5649  -15.0527  -50.8932 S.3       23 UNK        -0.2404 
      8 C8          4.0999  -16.5027  -51.8614 C.3       23 UNK        -0.0205 
      9 C9          3.1075  -17.6538  -51.7927 C.ar      23 UNK        -0.0193 
     10 C10         1.8527  -17.5481  -52.4006 C.ar      23 UNK        -0.1150 
     11 C11         0.9300  -18.5937  -52.3029 C.ar      23 UNK        -0.0193 
     12 C12         1.2703  -19.7499  -51.5966 C.ar      23 UNK        -0.1150 
     13 C13         2.5268  -19.8718  -50.9988 C.ar      23 UNK        -0.0193 
     14 C14         3.4444  -18.8249  -51.1086 C.ar      23 UNK        -0.1150 
     15 C15         2.8808  -21.1256  -50.2143 C.3       23 UNK        -0.0205 
     16 S16         3.1830  -20.8031  -48.4429 S.3       23 UNK        -0.2404 
     17 C17         1.8008  -19.7168  -47.9434 C.3       23 UNK        -0.0398 
     18 CA          0.5709  -20.4802  -47.4030 C.3       11 UNK         0.1400 
     19 N          -0.1337  -19.7246  -46.3639 N.am      11 UNK        -0.5000 
     20 C          -1.0612  -20.2697  -45.5642 C.2       10 UNK         0.5000 
     21 O          -1.3562  -21.4641  -45.6039 O.2       10 UNK        -0.5000 
     22 CA         -1.8184  -19.3532  -44.5879 C.3       10 UNK         0.1400 
     23 CB         -1.4394  -19.6724  -43.1393 C.3       10 UNK        -0.1800 
     24 N          -1.6343  -17.9210  -44.8242 N.am      10 UNK        -0.5000 
     25 C          -2.1478  -17.2511  -45.8663 C.2       9 UNK         0.5000 
     26 O          -2.7091  -17.8081  -46.8117 O.2       9 UNK        -0.5000 
     27 CA         -2.0298  -15.7165  -45.8424 C.3       9 UNK         0.1400 
     28 CB         -3.3396  -15.0313  -46.2702 C.3       9 UNK        -0.1800 
     29 N          -1.6301  -15.2206  -44.5215 N.am      9 UNK        -0.5000 
     30 C          -0.7133  -14.2688  -44.3200 C.2       8 UNK         0.5000 
     31 O          -0.1582  -13.6541  -45.2304 O.2       8 UNK        -0.5000 
     32 CA         -0.3287  -13.9310  -42.8668 C.3       8 UNK         0.1400 
     33 CB         -0.9154  -12.5688  -42.4643 C.3       8 UNK        -0.1800 
     34 N          -0.6909  -14.9100  -41.8379 N.am      8 UNK        -0.5000 
     35 C          -0.2471  -16.1695  -41.7107 C.2       7 UNK         0.5000 
     36 O           0.3544  -16.7887  -42.5920 O.2       7 UNK        -0.5000 
     37 CA         -0.4872  -16.7990  -40.3251 C.3       7 UNK         0.1400 
     38 CB          0.2452  -18.1369  -40.1177 C.3       7 UNK        -0.1800 
     39 N          -0.0248  -15.8488  -39.3142 N.am      7 UNK        -0.5000 
     40 C          -0.7308  -15.3956  -38.2701 C.2       6 UNK         0.5000 
     41 O          -1.8734  -15.7765  -38.0116 O.2       6 UNK        -0.5000 
     42 CA         -0.0767  -14.2993  -37.3947 C.3       6 UNK         0.1400 
     43 CB         -0.4185  -14.4522  -35.8972 C.3       6 UNK        -0.1800 
     44 N           1.3709  -14.1461  -37.6037 N.am      6 UNK        -0.5000 
     45 C           2.3307  -15.0314  -37.3027 C.2       5 UNK         0.5000 
     46 O           2.1365  -16.0987  -36.7166 O.2       5 UNK        -0.5000 
     47 CA          3.7528  -14.6783  -37.7803 C.3       5 UNK         0.1400 
     48 CB          4.6485  -14.2891  -36.5944 C.3       5 UNK        -0.1800 
     49 N           4.3563  -15.8035  -38.4959 N.am      5 UNK        -0.5000 
     50 C           3.8689  -16.3273  -39.6277 C.2       4 UNK         0.5000 
     51 O           2.9334  -15.8280  -40.2641 O.2       4 UNK        -0.5000 
     52 CA          4.5089  -17.6414  -40.1048 C.3       4 UNK         0.1400 
     53 CB          4.2724  -18.7699  -39.0781 C.3       4 UNK        -0.1800 
     54 N           3.9115  -17.9912  -41.3877 N.am      4 UNK        -0.5000 
     55 C           4.2907  -18.9621  -42.2262 C.2       3 UNK         0.5000 
     56 O           5.2654  -19.6912  -42.0403 O.2       3 UNK        -0.5000 
     57 CA          3.4290  -19.1498  -43.4886 C.3       3 UNK         0.1400 
     58 CB          2.3522  -20.2158  -43.2423 C.3       3 UNK        -0.1800 
     59 N           2.7902  -17.8956  -43.8947 N.am      3 UNK        -0.5000 
     60 C           3.3961  -16.9772  -44.6550 C.2       2 UNK         0.5000 
     61 O           4.5047  -17.1292  -45.1734 O.2       2 UNK        -0.5000 
     62 CA          2.6504  -15.6492  -44.8484 C.3       2 UNK         0.1400 
     63 CB          3.3203  -14.5251  -44.0433 C.3       2 UNK        -0.1800 
     64 N           2.5895  -15.2722  -46.2569 N.am      2 UNK        -0.5000 
     65 C           1.8353  -15.9050  -47.1633 C.2       1 UNK         0.5000 
     66 O           1.0795  -16.8423  -46.8814 O.2       1 UNK        -0.5000 
     67 C          -0.3852  -20.9492  -48.5269 C.2       11 UNK         0.5000 
     68 O          -0.1701  -22.0222  -49.0866 O.2       11 UNK        -0.5000 
     69 N          -1.4686  -20.1972  -48.7912 N.am      12 UNK        -0.5000 
     70 CA         -2.5401  -20.6174  -49.7030 C.3       12 UNK         0.1400 
     71 CB         -3.4887  -19.4441  -49.9883 C.3       12 UNK        -0.1800 
     72 C          -3.3372  -21.8230  -49.1699 C.2       12 UNK         0.5000 
     73 O          -3.7424  -22.6771  -49.9590 O.2       12 UNK        -0.5000 
     74 N          -3.5257  -21.8876  -47.8435 N.am      13 UNK        -0.5000 
     75 CA         -4.1440  -23.0214  -47.1564 C.3       13 UNK         0.1400 
     76 CB         -4.5476  -22.6276  -45.7274 C.3       13 UNK        -0.1800 
     77 C          -3.2214  -24.2513  -47.1670 C.2       13 UNK         0.5000 
     78 O          -3.6841  -25.3477  -47.4842 O.2       13 UNK        -0.5000 
     79 N          -1.9260  -24.0315  -46.8922 N.am      14 UNK        -0.5000 
     80 CA         -0.8619  -25.0400  -46.9522 C.3       14 UNK         0.1400 
     81 CB          0.4529  -24.4291  -46.4460 C.3       14 UNK        -0.1800 
     82 C          -0.6705  -25.6468  -48.3575 C.2       14 UNK         0.5000 
     83 O          -0.3287  -26.8238  -48.4688 O.2       14 UNK        -0.5000 
     84 N          -0.9610  -24.8575  -49.4006 N.am      15 UNK        -0.5000 
     85 CA         -1.0202  -25.2590  -50.8088 C.3       15 UNK         0.1400 
     86 CB         -0.8216  -24.0084  -51.6847 C.3       15 UNK        -0.1800 
     87 C          -2.3100  -26.0302  -51.1864 C.2       15 UNK         0.5000 
     88 O          -2.6463  -26.0980  -52.3689 O.2       15 UNK        -0.5000 
     89 N          -3.0000  -26.6045  -50.1896 N.am      16 UNK        -0.5000 
     90 CA         -4.2357  -27.3873  -50.2726 C.3       16 UNK         0.1400 
     91 CB         -4.0499  -28.6511  -51.1397 C.3       16 UNK        -0.1800 
     92 C          -5.4456  -26.5266  -50.6814 C.2       16 UNK         0.5000 
     93 O          -6.2151  -26.9151  -51.5622 O.2       16 UNK        -0.5000 
     94 N          -5.5873  -25.3760  -50.0057 N.am      17 UNK        -0.5000 
     95 CA         -6.6570  -24.3827  -50.1577 C.3       17 UNK         0.1400 
     96 CB         -8.0016  -24.9502  -49.6579 C.3       17 UNK        -0.1800 
     97 C          -6.7317  -23.8108  -51.5864 C.2       17 UNK         0.5000 
     98 O          -7.7885  -23.8339  -52.2207 O.2       17 UNK        -0.5000 
     99 N          -5.5961  -23.2899  -52.0647 N.am      18 UNK        -0.5000 
    100 CA        -5.4019  -22.7224  -53.4013 C.3       18 UNK         0.1400 
    101 CB        -3.9044  -22.7920  -53.7458 C.3       18 UNK        -0.1800 
    102 C         -5.9798  -21.2953  -53.5453 C.2       18 UNK         0.5000 
    103 O         -5.3314  -20.4169  -54.1188 O.2       18 UNK        -0.5000 
    104 N         -7.1929  -21.0822  -53.0194 N.am      19 UNK        -0.5000 
    105 CA        -7.9433  -19.8296  -53.0811 C.3       19 UNK         0.1400 
    106 CB        -9.2375  -19.9784  -52.2678 C.3       19 UNK        -0.1800 
    107 C         -8.2513  -19.4338  -54.5353 C.2       19 UNK         0.5000 
    108 O         -8.6697  -20.2871  -55.3219 O.2       19 UNK        -0.5000 
    109 N         -7.9962  -18.1618  -54.8684 N.am      20 UNK        -0.5000 
    110 CA        -8.0601  -17.5275  -56.1937 C.3       20 UNK         0.1400 
    111 CB        -9.4750  -17.6019  -56.7990 C.3       20 UNK        -0.1800 
    112 C         -6.9956  -18.0365  -57.1884 C.2       20 UNK         0.5000 
    113 O         -6.3588  -17.2198  -57.8546 O.2       20 UNK        -0.5000 
    114 N         -6.7897  -19.3587  -57.2489 N.am      21 UNK        -0.5000 
    115 CA        -5.8202  -20.0523  -58.1008 C.3       21 UNK         0.1400 
    116 CB        -5.9586  -21.5670  -57.8821 C.3       21 UNK        -0.1800 
    117 C         -4.3639  -19.6060  -57.8706 C.2       21 UNK         0.5000 
    118 O         -3.6079  -19.4764  -58.8341 O.2       21 UNK        -0.5000 
    119 N         -4.0134  -19.3517  -56.6047 N.am      22 UNK        -0.5000 
    120 CA        -2.7209  -18.7951  -56.1785 C.3       22 UNK         0.1400 
    121 C         -2.6256  -17.2406  -56.2937 C.2       22 UNK         0.5000 
    122 N         -3.6406  -16.5342  -56.7793 N.am      22 UNK        -0.7600 
    123 O         -1.6044  -16.6530  -55.9503 O.2       22 UNK        -0.5000 
    124 C124       -2.3629  -19.3160  -54.7634 C.3       23 UNK        -0.0398 
    125 S125       -0.5727  -19.4581  -54.4520 S.3       23 UNK        -0.2404 
    126 C126       -0.4459  -18.4737  -52.9327 C.3       23 UNK        -0.0205 
    127 H127       -1.0549  -17.3362  -50.3476 H         1 UNK         0.0600 
    128 H128       -2.3369  -16.3195  -49.6936 H         1 UNK         0.0600 
    129 H129       -1.5680  -15.8859  -51.2279 H         1 UNK         0.0600 
    130 H130        1.0995  -16.8299  -49.9149 H         1 UNK         0.3000 
    131 H131        1.8522  -14.3221  -48.5986 H         1 UNK         0.0600 
    132 H132        4.1459  -15.2917  -48.5889 H         1 UNK         0.0800 
    133 H133        3.5431  -16.8046  -49.1981 H         1 UNK         0.0800 
    134 H134        5.0844  -16.8176  -51.5118 H         1 UNK         0.0800 
    135 H135        4.2280  -16.2039  -52.9027 H         1 UNK         0.0800 
    136 H136        1.5915  -16.6450  -52.9346 H         1 UNK         0.1150 
    137 H137        0.5533  -20.5553  -51.5141 H         1 UNK         0.1150 
    138 H138        4.4129  -18.9161  -50.6367 H         1 UNK         0.1150 
    139 H139        2.0994  -21.8795  -50.3129 H         1 UNK         0.0800 
    140 H140        3.7785  -21.5699  -50.6458 H         1 UNK         0.0800 
    141 H141        1.5296  -19.0064  -48.7240 H         1 UNK         0.0800 
    142 H142        2.2220  -19.1107  -47.1409 H         1 UNK         0.0800 
    143 H143        0.9420  -21.3806  -46.9105 H         1 UNK         0.0600 
    144 H144        0.0641  -18.7322  -46.3020 H         1 UNK         0.3000 
    145 H145       -2.8801  -19.5780  -44.7103 H         1 UNK         0.0600 
    146 H146       -2.0536  -19.1095  -42.4364 H         1 UNK         0.0600 
    147 H147       -1.5751  -20.7315  -42.9157 H         1 UNK         0.0600 
    148 H148       -0.3974  -19.4255  -42.9521 H         1 UNK         0.0600 
    149 H149       -1.0899  -17.4159  -44.1366 H         1 UNK         0.3000 
    150 H150       -1.2618  -15.4731  -46.5763 H         1 UNK         0.0600 
    151 H151       -3.6377  -15.3424  -47.2722 H         1 UNK         0.0600 
    152 H152       -3.2257  -13.9474  -46.2921 H         1 UNK         0.0600 
    153 H153       -4.1581  -15.2707  -45.5907 H         1 UNK         0.0600 
    154 H154       -2.0652  -15.6542  -43.7200 H         1 UNK         0.3000 
    155 H155        0.7583  -13.8431  -42.8446 H         1 UNK         0.0600 
    156 H156       -2.0050  -12.5982  -42.4240 H         1 UNK         0.0600 
    157 H157       -0.6345  -11.7923  -43.1773 H         1 UNK         0.0600 
    158 H158       -0.5502  -12.2535  -41.4867 H         1 UNK         0.0600 
    159 H159       -1.1972  -14.5302  -41.0515 H         1 UNK         0.3000 
    160 H160       -1.5607  -16.9733  -40.2313 H         1 UNK         0.0600 
    161 H161        0.1502  -18.4802  -39.0875 H         1 UNK         0.0600 
    162 H162        1.3073  -18.0571  -40.3419 H         1 UNK         0.0600 
    163 H163       -0.1688  -18.9179  -40.7509 H         1 UNK         0.0600 
    164 H164        0.9101  -15.4873  -39.4659 H         1 UNK         0.3000 
    165 H165       -0.5199  -13.3602  -37.7288 H         1 UNK         0.0600 
    166 H166        0.0555  -13.6717  -35.3021 H         1 UNK         0.0600 
    167 H167       -1.4937  -14.3749  -35.7324 H         1 UNK         0.0600 
    168 H168       -0.1002  -15.4170  -35.5022 H         1 UNK         0.0600 
    169 H169        1.6420  -13.3030  -38.0914 H         1 UNK         0.3000 
    170 H170        3.7024  -13.8308  -38.4672 H         1 UNK         0.0600 
    171 H171        4.2309  -13.4390  -36.0535 H         1 UNK         0.0600 
    172 H172        4.7555  -15.1097  -35.8837 H         1 UNK         0.0600 
    173 H173        5.6455  -14.0024  -36.9296 H         1 UNK         0.0600 
    174 H174        5.1049  -16.2839  -38.0188 H         1 UNK         0.3000 
    175 H175        5.5791  -17.4773  -40.2431 H         1 UNK         0.0600 
    176 H176        3.2084  -18.9499  -38.9199 H         1 UNK         0.0600 
    177 H177        4.7244  -19.7083  -39.3979 H         1 UNK         0.0600 
    178 H178        4.7094  -18.5255  -38.1095 H         1 UNK         0.0600 
    179 H179        3.1283  -17.3983  -41.6343 H         1 UNK         0.3000 
    180 H180        4.0760  -19.5072  -44.2929 H         1 UNK         0.0600 
    181 H181        1.7319  -19.9658  -42.3817 H         1 UNK         0.0600 
    182 H182        2.8079  -21.1861  -43.0414 H         1 UNK         0.0600 
    183 H183        1.7056  -20.3358  -44.1112 H         1 UNK         0.0600 
    184 H184        1.8834  -17.6806  -43.4897 H         1 UNK         0.3000 
    185 H185        1.6298  -15.7672  -44.4928 H         1 UNK         0.0600 
    186 H186        3.3153  -14.7559  -42.9769 H         1 UNK         0.0600 
    187 H187        4.3585  -14.3772  -44.3431 H         1 UNK         0.0600 
    188 H188        2.7966  -13.5781  -44.1746 H         1 UNK         0.0600 
    189 H189        3.1992  -14.5222  -46.5470 H         1 UNK         0.3000 
    190 H190       -1.6217  -19.3462  -48.2647 H         1 UNK         0.3000 
    191 H191       -2.0845  -20.9193  -50.6486 H         1 UNK         0.0600 
    192 H192       -3.9042  -19.0269  -49.0702 H         1 UNK         0.0600 
    193 H193       -4.3249  -19.7606  -50.6139 H         1 UNK         0.0600 
    194 H194       -2.9813  -18.6446  -50.5231 H         1 UNK         0.0600 
    195 H195       -3.1292  -21.1650  -47.2613 H         1 UNK         0.3000 
    196 H196       -5.0577  -23.2853  -47.6891 H         1 UNK         0.0600 
    197 H197       -5.0888  -23.4412  -45.2428 H         1 UNK         0.0600 
    198 H198       -5.2043  -21.7575  -45.7286 H         1 UNK         0.0600 
    199 H199       -3.6865  -22.3968  -45.1019 H         1 UNK         0.0600 
    200 H200       -1.6507  -23.0989  -46.5974 H         1 UNK         0.3000 
    201 H201       -1.1443  -25.8502  -46.2770 H         1 UNK         0.0600 
    202 H202        0.3265  -23.9606  -45.4697 H         1 UNK         0.0600 
    203 H203        0.8365  -23.6778  -47.1352 H         1 UNK         0.0600 
    204 H204        1.2215  -25.1960  -46.3435 H         1 UNK         0.0600 
    205 H205       -1.1578  -23.8815  -49.2120 H         1 UNK         0.3000 
    206 H206       -0.1859  -25.9351  -51.0045 H         1 UNK         0.0600 
    207 H207       -0.7799  -24.2658  -52.7436 H         1 UNK         0.0600 
    208 H208       -1.6339  -23.2944  -51.5523 H         1 UNK         0.0600 
    209 H209        0.1118  -23.5005  -51.4417 H         1 UNK         0.0600 
    210 H210       -2.6597  -26.4522  -49.2494 H         1 UNK         0.3000 
    211 H211       -4.4409  -27.7252  -49.2557 H         1 UNK         0.0600 
    212 H212       -3.9067  -28.4087  -52.1928 H         1 UNK         0.0600 
    213 H213       -4.9247  -29.2988  -51.0729 H         1 UNK         0.0600 
    214 H214       -3.1900  -29.2334  -50.8087 H         1 UNK         0.0600 
    215 H215       -4.8766  -25.1566  -49.3184 H         1 UNK         0.3000 
    216 H216       -6.4024  -23.5416  -49.5137 H         1 UNK         0.0600 
    217 H217       -8.7787  -24.1853  -49.6775 H         1 UNK         0.0600 
    218 H218       -7.9214  -25.3043  -48.6302 H         1 UNK         0.0600 
    219 H219       -8.3468  -25.7817  -50.2730 H         1 UNK         0.0600 
    220 H220       -4.7985  -23.2412  -51.4353 H         1 UNK         0.3000 
    221 H221       -5.9332  -23.3491  -54.1203 H         1 UNK         0.0600 
    222 H222       -3.3119  -22.1548  -53.0881 H         1 UNK         0.0600 
    223 H223       -3.5261  -23.8100  -53.6536 H         1 UNK         0.0600 
    224 H224       -3.7237  -22.4768  -54.7740 H         1 UNK         0.0600 
    225 H225       -7.6753  -21.8855  -52.6320 H         1 UNK         0.3000 
    226 H226       -7.3302  -19.0525  -52.6200 H         1 UNK         0.0600 
    227 H227       -9.8137  -19.0523  -52.2773 H         1 UNK         0.0600 
    228 H228       -9.8755  -20.7670  -52.6692 H         1 UNK         0.0600 
    229 H229       -9.0237  -20.2180  -51.2260 H         1 UNK         0.0600 
    230 H230       -7.6326  -17.5604  -54.1420 H         1 UNK         0.3000 
    231 H231       -7.8403  -16.4728  -56.0203 H         1 UNK         0.0600 
    232 H232      -10.2193  -17.1995  -56.1119 H         1 UNK         0.0600 
    233 H233       -9.7640  -18.6233  -57.0469 H         1 UNK         0.0600 
    234 H234       -9.5326  -17.0184  -57.7186 H         1 UNK         0.0600 
    235 H235       -7.3729  -19.9389  -56.6521 H         1 UNK         0.3000 
    236 H236       -6.0750  -19.8287  -59.1385 H         1 UNK         0.0600 
    237 H237       -5.2641  -22.1194  -58.5165 H         1 UNK         0.0600 
    238 H238       -5.7511  -21.8439  -56.8475 H         1 UNK         0.0600 
    239 H239       -6.9642  -21.9104  -58.1252 H         1 UNK         0.0600 
    240 H240       -4.6884  -19.5187  -55.8656 H         1 UNK         0.3000 
    241 H241       -1.9664  -19.1816  -56.8660 H         1 UNK         0.0600 
    242 H242       -4.4869  -16.9778  -57.1162 H         1 UNK         0.3800 
    243 H243       -3.5476  -15.5334  -56.8494 H         1 UNK         0.3800 
    244 H244       -2.8552  -18.7192  -53.9936 H         1 UNK         0.0800 
    245 H245       -2.7484  -20.3257  -54.6364 H         1 UNK         0.0800 
    246 H246       -1.1949  -18.8203  -52.2201 H         1 UNK         0.0800 
    247 H247       -0.6813  -17.4322  -53.1577 H         1 UNK         0.0800 
@<TRIPOS>BOND
     1    1    2 1    
     2    1  127 1    
     3    1  128 1    
     4    1  129 1    
     5    2    3 2    
     6    2    4 am   BACKBONE|DICT|INTERRES
     7    4    5 1    
     8    4  130 1    
     9    5    6 1    
    10    5   65 1    
    11    5  131 1    
    12    6    7 1    
    13    6  132 1    
    14    6  133 1    
    15    7    8 1    
    16    8    9 1    
    17    8  134 1    
    18    8  135 1    
    19    9   10 ar   
    20    9   14 ar   
    21   10   11 ar   
    22   10  136 1    
    23   11   12 ar   
    24   11  126 1    
    25   12   13 ar   
    26   12  137 1    
    27   13   14 ar   
    28   13   15 1    
    29   14  138 1    
    30   15   16 1    
    31   15  139 1    
    32   15  140 1    
    33   16   17 1    
    34   17   18 1    
    35   17  141 1    
    36   17  142 1    
    37   18   19 1    
    38   18   67 1    
    39   18  143 1    
    40   19   20 am   BACKBONE|DICT|INTERRES
    41   19  144 1    
    42   20   21 2    
    43   20   22 1    
    44   22   23 1    
    45   22   24 1    
    46   22  145 1    
    47   23  146 1    
    48   23  147 1    
    49   23  148 1    
    50   24   25 am   BACKBONE|DICT|INTERRES
    51   24  149 1    
    52   25   26 2    
    53   25   27 1    
    54   27   28 1    
    55   27   29 1    
    56   27  150 1    
    57   28  151 1    
    58   28  152 1    
    59   28  153 1    
    60   29   30 am   BACKBONE|DICT|INTERRES
    61   29  154 1    
    62   30   31 2    
    63   30   32 1    
    64   32   33 1    
    65   32   34 1    
    66   32  155 1    
    67   33  156 1    
    68   33  157 1    
    69   33  158 1    
    70   34   35 am   BACKBONE|DICT|INTERRES
    71   34  159 1    
    72   35   36 2    
    73   35   37 1    
    74   37   38 1    
    75   37   39 1    
    76   37  160 1    
    77   38  161 1    
    78   38  162 1    
    79   38  163 1    
    80   39   40 am   BACKBONE|DICT|INTERRES
    81   39  164 1    
    82   40   41 2    
    83   40   42 1    
    84   42   43 1    
    85   42   44 1    
    86   42  165 1    
    87   43  166 1    
    88   43  167 1    
    89   43  168 1    
    90   44   45 am   BACKBONE|DICT|INTERRES
    91   44  169 1    
    92   45   46 2    
    93   45   47 1    
    94   47   48 1    
    95   47   49 1    
    96   47  170 1    
    97   48  171 1    
    98   48  172 1    
    99   48  173 1    
   100   49   50 am   BACKBONE|DICT|INTERRES
   101   49  174 1    
   102   50   51 2    
   103   50   52 1    
   104   52   53 1    
   105   52   54 1    
   106   52  175 1    
   107   53  176 1    
   108   53  177 1    
   109   53  178 1    
   110   54   55 am   BACKBONE|DICT|INTERRES
   111   54  179 1    
   112   55   56 2    
   113   55   57 1    
   114   57   58 1    
   115   57   59 1    
   116   57  180 1    
   117   58  181 1    
   118   58  182 1    
   119   58  183 1    
   120   59   60 am   BACKBONE|DICT|INTERRES
   121   59  184 1    
   122   60   61 2    
   123   60   62 1    
   124   62   63 1    
   125   62   64 1    
   126   62  185 1    
   127   63  186 1    
   128   63  187 1    
   129   63  188 1    
   130   64   65 am   BACKBONE|DICT|INTERRES
   131   64  189 1    
   132   65   66 2    
   133   67   68 2    
   134   67   69 am   BACKBONE|DICT|INTERRES
   135   69   70 1    
   136   69  190 1    
   137   70   71 1    
   138   70   72 1    
   139   70  191 1    
   140   71  192 1    
   141   71  193 1    
   142   71  194 1    
   143   72   73 2    
   144   72   74 am   BACKBONE|DICT|INTERRES
   145   74   75 1    
   146   74  195 1    
   147   75   76 1    
   148   75   77 1    
   149   75  196 1    
   150   76  197 1    
   151   76  198 1    
   152   76  199 1    
   153   77   78 2    
   154   77   79 am   BACKBONE|DICT|INTERRES
   155   79   80 1    
   156   79  200 1    
   157   80   81 1    
   158   80   82 1    
   159   80  201 1    
   160   81  202 1    
   161   81  203 1    
   162   81  204 1    
   163   82   83 2    
   164   82   84 am   BACKBONE|DICT|INTERRES
   165   84   85 1    
   166   84  205 1    
   167   85   86 1    
   168   85   87 1    
   169   85  206 1    
   170   86  207 1    
   171   86  208 1    
   172   86  209 1    
   173   87   88 2    
   174   87   89 am   BACKBONE|DICT|INTERRES
   175   89   90 1    
   176   89  210 1    
   177   90   91 1    
   178   90   92 1    
   179   90  211 1    
   180   91  212 1    
   181   91  213 1    
   182   91  214 1    
   183   92   93 2    
   184   92   94 am   BACKBONE|DICT|INTERRES
   185   94   95 1    
   186   94  215 1    
   187   95   96 1    
   188   95   97 1    
   189   95  216 1    
   190   96  217 1    
   191   96  218 1    
   192   96  219 1    
   193   97   98 2    
   194   97   99 am   BACKBONE|DICT|INTERRES
   195   99  100 1    
   196   99  220 1    
   197  100  101 1    
   198  100  102 1    
   199  100  221 1    
   200  101  222 1    
   201  101  223 1    
   202  101  224 1    
   203  102  103 2    
   204  102  104 am   BACKBONE|DICT|INTERRES
   205  104  105 1    
   206  104  225 1    
   207  105  106 1    
   208  105  107 1    
   209  105  226 1    
   210  106  227 1    
   211  106  228 1    
   212  106  229 1    
   213  107  108 2    
   214  107  109 am   BACKBONE|DICT|INTERRES
   215  109  110 1    
   216  109  230 1    
   217  110  111 1    
   218  110  112 1    
   219  110  231 1    
   220  111  232 1    
   221  111  233 1    
   222  111  234 1    
   223  112  113 2    
   224  112  114 am   BACKBONE|DICT|INTERRES
   225  114  115 1    
   226  114  235 1    
   227  115  116 1    
   228  115  117 1    
   229  115  236 1    
   230  116  237 1    
   231  116  238 1    
   232  116  239 1    
   233  117  118 2    
   234  117  119 am   BACKBONE|DICT|INTERRES
   235  119  120 1    
   236  119  240 1    
   237  120  121 1    
   238  120  124 1    
   239  120  241 1    
   240  121  122 am   BACKBONE|DICT|INTERRES
   241  121  123 2    
   242  122  242 1    
   243  122  243 1    
   244  124  125 1    
   245  124  244 1    
   246  124  245 1    
   247  125  126 1    
   248  126  246 1    
   249  126  247 1    
@<TRIPOS>SUBSTRUCTURE
     1 UNK         1 GROUP             0       ****    0 ROOT    
