@<TRIPOS>MOLECULE
3R540
247   249    1
SMALL
USER_CHARGES


@<TRIPOS>ATOM
      1 CA         -0.1332  -16.7000  -48.8122 C.3       0 UNK        -0.1800 
      2 C          -0.4607  -15.2356  -48.5622 C.2       0 UNK         0.5000 
      3 O          -0.9520  -14.5653  -49.4685 O.2       0 UNK        -0.5000 
      4 N          -0.1928  -14.7509  -47.3393 N.am      1 UNK        -0.5000 
      5 CA         -0.4807  -13.3956  -46.8375 C.3       1 UNK         0.1400 
      6 C6         -1.9993  -13.0565  -46.8925 C.3       23 UNK        -0.0398 
      7 S7         -2.9634  -14.1394  -45.7849 S.3       23 UNK        -0.2404 
      8 C8         -4.5068  -14.3556  -46.7228 C.3       23 UNK        -0.0205 
      9 C9         -4.3686  -15.3544  -47.8632 C.ar      23 UNK        -0.0193 
     10 C10        -4.3229  -14.9135  -49.1909 C.ar      23 UNK        -0.1150 
     11 C11        -4.2678  -15.8316  -50.2451 C.ar      23 UNK        -0.0193 
     12 C12        -4.2735  -17.1969  -49.9560 C.ar      23 UNK        -0.1150 
     13 C13        -4.2817  -17.6526  -48.6356 C.ar      23 UNK        -0.0193 
     14 C14        -4.3329  -16.7263  -47.5909 C.ar      23 UNK        -0.1150 
     15 C15        -4.2597  -19.1477  -48.3591 C.3       23 UNK        -0.0205 
     16 S16        -2.8157  -19.9403  -49.1352 S.3       23 UNK        -0.2404 
     17 C17        -1.6166  -20.0164  -47.7647 C.3       23 UNK        -0.0398 
     18 CA         -1.2731  -21.4730  -47.3752 C.3       11 UNK         0.1400 
     19 N          -0.1183  -21.5410  -46.4793 N.am      11 UNK        -0.5000 
     20 C           0.5043  -22.6720  -46.1193 C.2       10 UNK         0.5000 
     21 O           0.2092  -23.7836  -46.5554 O.2       10 UNK        -0.5000 
     22 CA          1.6008  -22.5500  -45.0471 C.3       10 UNK         0.1400 
     23 CB          2.9310  -22.1069  -45.6730 C.3       10 UNK        -0.1800 
     24 N           1.2238  -21.6374  -43.9658 N.am      10 UNK        -0.5000 
     25 C           0.1850  -21.8364  -43.1409 C.2       9 UNK         0.5000 
     26 O          -0.5245  -22.8413  -43.1710 O.2       9 UNK        -0.5000 
     27 CA         -0.1502  -20.7113  -42.1469 C.3       9 UNK         0.1400 
     28 CB          0.7693  -20.7799  -40.9189 C.3       9 UNK        -0.1800 
     29 N          -0.0764  -19.3799  -42.7502 N.am      9 UNK        -0.5000 
     30 C          -0.8670  -18.9435  -43.7417 C.2       8 UNK         0.5000 
     31 O          -1.7766  -19.6111  -44.2340 O.2       8 UNK        -0.5000 
     32 CA         -0.5475  -17.5517  -44.3233 C.3       8 UNK         0.1400 
     33 CB         -1.0828  -16.4329  -43.4184 C.3       8 UNK        -0.1800 
     34 N           0.8865  -17.3582  -44.5459 N.am      8 UNK        -0.5000 
     35 C           1.6242  -18.0960  -45.3880 C.2       7 UNK         0.5000 
     36 O           1.1594  -18.9705  -46.1183 O.2       7 UNK        -0.5000 
     37 CA          3.1394  -17.8439  -45.3780 C.3       7 UNK         0.1400 
     38 CB          3.4967  -16.6249  -46.2425 C.3       7 UNK        -0.1800 
     39 N           3.6450  -17.6640  -44.0162 N.am      7 UNK        -0.5000 
     40 C           3.7430  -18.6551  -43.1172 C.2       6 UNK         0.5000 
     41 O           3.4458  -19.8242  -43.3578 O.2       6 UNK        -0.5000 
     42 CA          4.2124  -18.2737  -41.7009 C.3       6 UNK         0.1400 
     43 CB          5.7459  -18.2255  -41.6342 C.3       6 UNK        -0.1800 
     44 N           3.6671  -16.9944  -41.2477 N.am      6 UNK        -0.5000 
     45 C           2.3658  -16.7544  -41.0328 C.2       5 UNK         0.5000 
     46 O           1.4866  -17.6061  -41.1463 O.2       5 UNK        -0.5000 
     47 CA          1.9740  -15.3059  -40.6887 C.3       5 UNK         0.1400 
     48 CB          1.9938  -15.0871  -39.1691 C.3       5 UNK        -0.1800 
     49 N           2.8259  -14.3038  -41.3337 N.am      5 UNK        -0.5000 
     50 C           2.9801  -14.1591  -42.6556 C.2       4 UNK         0.5000 
     51 O           2.4042  -14.8622  -43.4898 O.2       4 UNK        -0.5000 
     52 CA          3.9221  -13.0273  -43.1067 C.3       4 UNK         0.1400 
     53 CB          4.5177  -13.2946  -44.5000 C.3       4 UNK        -0.1800 
     54 N           3.2074  -11.7568  -43.1397 N.am      4 UNK        -0.5000 
     55 C           2.7847  -11.0490  -42.0859 C.2       3 UNK         0.5000 
     56 O           3.0819  -11.3225  -40.9221 O.2       3 UNK        -0.5000 
     57 CA          1.8346   -9.8652  -42.3679 C.3       3 UNK         0.1400 
     58 CB          2.6153   -8.5487  -42.5451 C.3       3 UNK        -0.1800 
     59 N           0.8910  -10.0987  -43.4763 N.am      3 UNK        -0.5000 
     60 C           1.1501  -10.2120  -44.7864 C.2       2 UNK         0.5000 
     61 O           2.2740  -10.0818  -45.2780 O.2       2 UNK        -0.5000 
     62 CA         -0.0406  -10.5777  -45.6862 C.3       2 UNK         0.1400 
     63 CB         -0.9171   -9.3422  -45.9469 C.3       2 UNK        -0.1800 
     64 N           0.4671  -11.0698  -46.9687 N.am      2 UNK        -0.5000 
     65 C           0.3984  -12.2977  -47.5022 C.2       1 UNK         0.5000 
     66 O           1.0596  -12.5553  -48.5086 O.2       1 UNK        -0.5000 
     67 C          -2.4900  -22.2291  -46.8018 C.2       11 UNK         0.5000 
     68 O          -3.1066  -23.0116  -47.5244 O.2       11 UNK        -0.5000 
     69 N          -2.7891  -22.0205  -45.5121 N.am      12 UNK        -0.5000 
     70 CA         -3.8605  -22.7129  -44.7937 C.3       12 UNK         0.1400 
     71 CB         -4.0315  -22.0901  -43.4003 C.3       12 UNK        -0.1800 
     72 C          -3.6370  -24.2350  -44.6956 C.2       12 UNK         0.5000 
     73 O          -4.5947  -24.9955  -44.8388 O.2       12 UNK        -0.5000 
     74 N          -2.3806  -24.6495  -44.4800 N.am      13 UNK        -0.5000 
     75 CA         -1.9589  -26.0499  -44.4503 C.3       13 UNK         0.1400 
     76 CB         -0.5392  -26.1471  -43.8710 C.3       13 UNK        -0.1800 
     77 C          -2.0352  -26.7251  -45.8327 C.2       13 UNK         0.5000 
     78 O          -2.4990  -27.8626  -45.9234 O.2       13 UNK        -0.5000 
     79 N          -1.5884  -26.0168  -46.8800 N.am      14 UNK        -0.5000 
     80 CA         -1.6459  -26.4641  -48.2739 C.3       14 UNK         0.1400 
     81 CB         -0.7895  -25.5313  -49.1446 C.3       14 UNK        -0.1800 
     82 C          -3.0847  -26.5412  -48.8176 C.2       14 UNK         0.5000 
     83 O          -3.4064  -27.4856  -49.5404 O.2       14 UNK        -0.5000 
     84 N          -3.9086  -25.5552  -48.4341 N.am      15 UNK        -0.5000 
     85 CA         -5.3077  -25.3329  -48.8034 C.3       15 UNK         0.1400 
     86 CB         -6.1850  -26.5372  -48.4015 C.3       15 UNK        -0.1800 
     87 C          -5.4946  -24.9426  -50.2843 C.2       15 UNK         0.5000 
     88 O          -4.5388  -24.9331  -51.0655 O.2       15 UNK        -0.5000 
     89 N          -6.7402  -24.5852  -50.6325 N.am      16 UNK        -0.5000 
     90 CA         -7.2122  -24.2190  -51.9746 C.3       16 UNK         0.1400 
     91 CB         -7.2496  -25.4681  -52.8806 C.3       16 UNK        -0.1800 
     92 C          -6.4190  -23.0532  -52.6020 C.2       16 UNK         0.5000 
     93 O          -6.0389  -23.1283  -53.7702 O.2       16 UNK        -0.5000 
     94 N          -6.1454  -22.0151  -51.7958 N.am      17 UNK        -0.5000 
     95 CA         -5.3303  -20.8396  -52.1354 C.3       17 UNK         0.1400 
     96 CB         -6.0341  -19.9829  -53.2105 C.3       17 UNK        -0.1800 
     97 C          -3.8803  -21.2184  -52.5126 C.2       17 UNK         0.5000 
     98 O          -3.3335  -20.6882  -53.4814 O.2       17 UNK        -0.5000 
     99 N          -3.3102  -22.1595  -51.7436 N.am      18 UNK        -0.5000 
    100 CA        -2.0060  -22.8024  -51.9291 C.3       18 UNK         0.1400 
    101 CB        -0.8487  -21.7984  -51.7392 C.3       18 UNK        -0.1800 
    102 C         -1.9402  -23.5648  -53.2649 C.2       18 UNK         0.5000 
    103 O         -1.0281  -23.3447  -54.0615 O.2       18 UNK        -0.5000 
    104 N         -2.9489  -24.4172  -53.4995 N.am      19 UNK        -0.5000 
    105 CA        -3.1953  -25.1608  -54.7413 C.3       19 UNK         0.1400 
    106 CB        -2.1460  -26.2767  -54.9223 C.3       19 UNK        -0.1800 
    107 C         -3.3092  -24.2248  -55.9662 C.2       19 UNK         0.5000 
    108 O         -2.6603  -24.4448  -56.9903 O.2       19 UNK        -0.5000 
    109 N         -4.1206  -23.1724  -55.8008 N.am      20 UNK        -0.5000 
    110 CA        -4.4259  -22.0863  -56.7339 C.3       20 UNK         0.1400 
    111 CB        -5.0656  -22.6307  -58.0277 C.3       20 UNK        -0.1800 
    112 C         -3.2634  -21.1132  -57.0246 C.2       20 UNK         0.5000 
    113 O         -3.4406  -20.2196  -57.8547 O.2       20 UNK        -0.5000 
    114 N         -2.1183  -21.2418  -56.3364 N.am      21 UNK        -0.5000 
    115 CA        -0.9511  -20.3678  -56.5081 C.3       21 UNK         0.1400 
    116 CB         0.2446  -20.9316  -55.7286 C.3       21 UNK        -0.1800 
    117 C         -1.2123  -18.9016  -56.1096 C.2       21 UNK         0.5000 
    118 O         -0.6517  -17.9990  -56.7327 O.2       21 UNK        -0.5000 
    119 N         -2.0775  -18.6922  -55.1100 N.am      22 UNK        -0.5000 
    120 CA        -2.5940  -17.3775  -54.6985 C.3       22 UNK         0.1400 
    121 C         -3.8771  -16.9454  -55.4785 C.2       22 UNK         0.5000 
    122 N         -4.3385  -17.6821  -56.4835 N.am      22 UNK        -0.7600 
    123 O         -4.4681  -15.9109  -55.1842 O.2       22 UNK        -0.5000 
    124 C124       -2.7725  -17.3201  -53.1568 C.3       23 UNK        -0.0398 
    125 S125       -2.5914  -15.6376  -52.4627 S.3       23 UNK        -0.2404 
    126 C126       -4.2214  -15.3536  -51.6919 C.3       23 UNK        -0.0205 
    127 H127        0.1923  -17.2016  -47.9026 H         1 UNK         0.0600 
    128 H128        0.6582  -16.7888  -49.5560 H         1 UNK         0.0600 
    129 H129       -1.0164  -17.2174  -49.1882 H         1 UNK         0.0600 
    130 H130        0.2384  -15.3633  -46.6636 H         1 UNK         0.3000 
    131 H131       -0.1746  -13.4296  -45.7912 H         1 UNK         0.0600 
    132 H132       -2.2049  -12.0307  -46.5921 H         1 UNK         0.0800 
    133 H133       -2.3785  -13.1322  -47.9110 H         1 UNK         0.0800 
    134 H134       -5.2811  -14.7062  -46.0390 H         1 UNK         0.0800 
    135 H135       -4.8482  -13.3871  -47.0917 H         1 UNK         0.0800 
    136 H136       -4.3384  -13.8542  -49.4044 H         1 UNK         0.1150 
    137 H137       -4.2497  -17.9176  -50.7577 H         1 UNK         0.1150 
    138 H138       -4.3600  -17.0686  -46.5658 H         1 UNK         0.1150 
    139 H139       -4.2813  -19.3582  -47.2887 H         1 UNK         0.0800 
    140 H140       -5.1662  -19.5901  -48.7733 H         1 UNK         0.0800 
    141 H141       -0.7118  -19.5122  -48.1040 H         1 UNK         0.0800 
    142 H142       -1.9735  -19.4458  -46.9067 H         1 UNK         0.0800 
    143 H143       -0.9793  -21.9952  -48.2884 H         1 UNK         0.0600 
    144 H144        0.2259  -20.6576  -46.1133 H         1 UNK         0.3000 
    145 H145        1.7473  -23.5397  -44.6099 H         1 UNK         0.0600 
    146 H146        3.7316  -22.1016  -44.9333 H         1 UNK         0.0600 
    147 H147        3.2316  -22.7860  -46.4717 H         1 UNK         0.0600 
    148 H148        2.8634  -21.1068  -46.1007 H         1 UNK         0.0600 
    149 H149        1.8039  -20.8133  -43.8427 H         1 UNK         0.3000 
    150 H150       -1.1768  -20.8644  -41.8084 H         1 UNK         0.0600 
    151 H151        0.4790  -20.0446  -40.1683 H         1 UNK         0.0600 
    152 H152        0.7199  -21.7623  -40.4477 H         1 UNK         0.0600 
    153 H153        1.8103  -20.5939  -41.1842 H         1 UNK         0.0600 
    154 H154        0.6147  -18.7457  -42.3576 H         1 UNK         0.3000 
    155 H155       -1.0477  -17.4714  -45.2911 H         1 UNK         0.0600 
    156 H156       -0.6529  -16.4794  -42.4182 H         1 UNK         0.0600 
    157 H157       -2.1661  -16.5043  -43.3138 H         1 UNK         0.0600 
    158 H158       -0.8601  -15.4493  -43.8324 H         1 UNK         0.0600 
    159 H159        1.3503  -16.6464  -43.9923 H         1 UNK         0.3000 
    160 H160        3.6287  -18.7185  -45.8118 H         1 UNK         0.0600 
    161 H161        3.0070  -15.7165  -45.8928 H         1 UNK         0.0600 
    162 H162        3.1881  -16.7810  -47.2770 H         1 UNK         0.0600 
    163 H163        4.5719  -16.4459  -46.2479 H         1 UNK         0.0600 
    164 H164        3.8369  -16.7165  -43.7246 H         1 UNK         0.3000 
    165 H165        3.8650  -19.0497  -41.0155 H         1 UNK         0.0600 
    166 H166        6.0906  -18.0348  -40.6177 H         1 UNK         0.0600 
    167 H167        6.1797  -19.1753  -41.9502 H         1 UNK         0.0600 
    168 H168        6.1545  -17.4470  -42.2796 H         1 UNK         0.0600 
    169 H169        4.3207  -16.2350  -41.1270 H         1 UNK         0.3000 
    170 H170        0.9537  -15.1483  -41.0435 H         1 UNK         0.0600 
    171 H171        1.3473  -15.8051  -38.6626 H         1 UNK         0.0600 
    172 H172        2.9978  -15.2017  -38.7585 H         1 UNK         0.0600 
    173 H173        1.6365  -14.0902  -38.9097 H         1 UNK         0.0600 
    174 H174        3.2750  -13.6310  -40.7257 H         1 UNK         0.3000 
    175 H175        4.7451  -12.9552  -42.3929 H         1 UNK         0.0600 
    176 H176        3.7474  -13.3205  -45.2722 H         1 UNK         0.0600 
    177 H177        5.2363  -12.5221  -44.7742 H         1 UNK         0.0600 
    178 H178        5.0425  -14.2503  -44.5252 H         1 UNK         0.0600 
    179 H179        2.9415  -11.4109  -44.0559 H         1 UNK         0.3000 
    180 H180        1.2136   -9.7537  -41.4775 H         1 UNK         0.0600 
    181 H181        3.3100   -8.5918  -43.3842 H         1 UNK         0.0600 
    182 H182        3.2016   -8.3248  -41.6531 H         1 UNK         0.0600 
    183 H183        1.9404   -7.7088  -42.7096 H         1 UNK         0.0600 
    184 H184       -0.0643  -10.2421  -43.1782 H         1 UNK         0.3000 
    185 H185       -0.6289  -11.3277  -45.1594 H         1 UNK         0.0600 
    186 H186       -1.3341   -8.9507  -45.0182 H         1 UNK         0.0600 
    187 H187       -0.3495   -8.5375  -46.4163 H         1 UNK         0.0600 
    188 H188       -1.7552   -9.5819  -46.6012 H         1 UNK         0.0600 
    189 H189        1.1069  -10.4241  -47.4094 H         1 UNK         0.3000 
    190 H190       -2.2627  -21.3257  -44.9893 H         1 UNK         0.3000 
    191 H191       -4.7860  -22.5521  -45.3504 H         1 UNK         0.0600 
    192 H192       -4.2525  -21.0247  -43.4691 H         1 UNK         0.0600 
    193 H193       -4.8550  -22.5601  -42.8614 H         1 UNK         0.0600 
    194 H194       -3.1338  -22.2062  -42.7932 H         1 UNK         0.0600 
    195 H195       -1.6633  -23.9530  -44.2990 H         1 UNK         0.3000 
    196 H196       -2.6323  -26.5885  -43.7803 H         1 UNK         0.0600 
    197 H197       -0.2107  -27.1855  -43.8142 H         1 UNK         0.0600 
    198 H198       -0.4968  -25.7362  -42.8622 H         1 UNK         0.0600 
    199 H199        0.1841  -25.6065  -44.4817 H         1 UNK         0.0600 
    200 H200       -1.1579  -25.1113  -46.7121 H         1 UNK         0.3000 
    201 H201       -1.2163  -27.4666  -48.3263 H         1 UNK         0.0600 
    202 H202        0.2572  -25.5623  -48.8416 H         1 UNK         0.0600 
    203 H203       -1.1258  -24.4967  -49.0717 H         1 UNK         0.0600 
    204 H204       -0.8344  -25.8219  -50.1951 H         1 UNK         0.0600 
    205 H205       -3.4981  -24.7884  -47.9064 H         1 UNK         0.3000 
    206 H206       -5.6270  -24.4740  -48.2113 H         1 UNK         0.0600 
    207 H207       -5.9972  -26.8315  -47.3686 H         1 UNK         0.0600 
    208 H208       -7.2460  -26.2986  -48.4782 H         1 UNK         0.0600 
    209 H209       -6.0022  -27.4049  -49.0359 H         1 UNK         0.0600 
    210 H210       -7.4533  -24.5934  -49.9166 H         1 UNK         0.3000 
    211 H211       -8.2369  -23.8626  -51.8606 H         1 UNK         0.0600 
    212 H212       -6.2507  -25.8651  -53.0642 H         1 UNK         0.0600 
    213 H213       -7.6940  -25.2376  -53.8496 H         1 UNK         0.0600 
    214 H214       -7.8470  -26.2617  -52.4321 H         1 UNK         0.0600 
    215 H215       -6.4913  -22.0531  -50.8475 H         1 UNK         0.3000 
    216 H216       -5.2607  -20.2367  -51.2296 H         1 UNK         0.0600 
    217 H217       -6.0957  -20.4990  -54.1682 H         1 UNK         0.0600 
    218 H218       -5.5047  -19.0477  -53.3843 H         1 UNK         0.0600 
    219 H219       -7.0479  -19.7250  -52.9049 H         1 UNK         0.0600 
    220 H220       -3.8733  -22.5578  -51.0058 H         1 UNK         0.3000 
    221 H221       -1.9197  -23.5555  -51.1459 H         1 UNK         0.0600 
    222 H222       -0.9000  -20.9739  -52.4497 H         1 UNK         0.0600 
    223 H223       -0.8543  -21.3748  -50.7368 H         1 UNK         0.0600 
    224 H224        0.1177  -22.2858  -51.8722 H         1 UNK         0.0600 
    225 H225       -3.6418  -24.5381  -52.7647 H         1 UNK         0.3000 
    226 H226       -4.1697  -25.6376  -54.6267 H         1 UNK         0.0600 
    227 H227       -2.1132  -26.9304  -54.0506 H         1 UNK         0.0600 
    228 H228       -2.3837  -26.8987  -55.7859 H         1 UNK         0.0600 
    229 H229       -1.1450  -25.8725  -55.0760 H         1 UNK         0.0600 
    230 H230       -4.6371  -23.1182  -54.9239 H         1 UNK         0.3000 
    231 H231       -5.1837  -21.4858  -56.2297 H         1 UNK         0.0600 
    232 H232       -4.3492  -23.1870  -58.6325 H         1 UNK         0.0600 
    233 H233       -5.4505  -21.8191  -58.6462 H         1 UNK         0.0600 
    234 H234       -5.9038  -23.2910  -57.8055 H         1 UNK         0.0600 
    235 H235       -2.0428  -21.9726  -55.6398 H         1 UNK         0.3000 
    236 H236       -0.6916  -20.3759  -57.5687 H         1 UNK         0.0600 
    237 H237        0.4691  -21.9541  -56.0329 H         1 UNK         0.0600 
    238 H238        1.1409  -20.3353  -55.9036 H         1 UNK         0.0600 
    239 H239        0.0578  -20.9329  -54.6549 H         1 UNK         0.0600 
    240 H240       -2.4972  -19.4967  -54.6471 H         1 UNK         0.3000 
    241 H241       -1.8387  -16.6344  -54.9601 H         1 UNK         0.0600 
    242 H242       -5.1627  -17.3739  -56.9740 H         1 UNK         0.3800 
    243 H243       -3.8573  -18.5161  -56.7972 H         1 UNK         0.3800 
    244 H244       -3.7274  -17.7556  -52.8731 H         1 UNK         0.0800 
    245 H245       -2.0148  -17.9346  -52.6678 H         1 UNK         0.0800 
    246 H246       -5.0054  -15.8412  -52.2731 H         1 UNK         0.0800 
    247 H247       -4.4360  -14.2850  -51.7384 H         1 UNK         0.0800 
@<TRIPOS>BOND
     1    1    2 1    
     2    1  127 1    
     3    1  128 1    
     4    1  129 1    
     5    2    3 2    
     6    2    4 am   BACKBONE|DICT|INTERRES
     7    4    5 1    
     8    4  130 1    
     9    5    6 1    
    10    5   65 1    
    11    5  131 1    
    12    6    7 1    
    13    6  132 1    
    14    6  133 1    
    15    7    8 1    
    16    8    9 1    
    17    8  134 1    
    18    8  135 1    
    19    9   10 ar   
    20    9   14 ar   
    21   10   11 ar   
    22   10  136 1    
    23   11   12 ar   
    24   11  126 1    
    25   12   13 ar   
    26   12  137 1    
    27   13   14 ar   
    28   13   15 1    
    29   14  138 1    
    30   15   16 1    
    31   15  139 1    
    32   15  140 1    
    33   16   17 1    
    34   17   18 1    
    35   17  141 1    
    36   17  142 1    
    37   18   19 1    
    38   18   67 1    
    39   18  143 1    
    40   19   20 am   BACKBONE|DICT|INTERRES
    41   19  144 1    
    42   20   21 2    
    43   20   22 1    
    44   22   23 1    
    45   22   24 1    
    46   22  145 1    
    47   23  146 1    
    48   23  147 1    
    49   23  148 1    
    50   24   25 am   BACKBONE|DICT|INTERRES
    51   24  149 1    
    52   25   26 2    
    53   25   27 1    
    54   27   28 1    
    55   27   29 1    
    56   27  150 1    
    57   28  151 1    
    58   28  152 1    
    59   28  153 1    
    60   29   30 am   BACKBONE|DICT|INTERRES
    61   29  154 1    
    62   30   31 2    
    63   30   32 1    
    64   32   33 1    
    65   32   34 1    
    66   32  155 1    
    67   33  156 1    
    68   33  157 1    
    69   33  158 1    
    70   34   35 am   BACKBONE|DICT|INTERRES
    71   34  159 1    
    72   35   36 2    
    73   35   37 1    
    74   37   38 1    
    75   37   39 1    
    76   37  160 1    
    77   38  161 1    
    78   38  162 1    
    79   38  163 1    
    80   39   40 am   BACKBONE|DICT|INTERRES
    81   39  164 1    
    82   40   41 2    
    83   40   42 1    
    84   42   43 1    
    85   42   44 1    
    86   42  165 1    
    87   43  166 1    
    88   43  167 1    
    89   43  168 1    
    90   44   45 am   BACKBONE|DICT|INTERRES
    91   44  169 1    
    92   45   46 2    
    93   45   47 1    
    94   47   48 1    
    95   47   49 1    
    96   47  170 1    
    97   48  171 1    
    98   48  172 1    
    99   48  173 1    
   100   49   50 am   BACKBONE|DICT|INTERRES
   101   49  174 1    
   102   50   51 2    
   103   50   52 1    
   104   52   53 1    
   105   52   54 1    
   106   52  175 1    
   107   53  176 1    
   108   53  177 1    
   109   53  178 1    
   110   54   55 am   BACKBONE|DICT|INTERRES
   111   54  179 1    
   112   55   56 2    
   113   55   57 1    
   114   57   58 1    
   115   57   59 1    
   116   57  180 1    
   117   58  181 1    
   118   58  182 1    
   119   58  183 1    
   120   59   60 am   BACKBONE|DICT|INTERRES
   121   59  184 1    
   122   60   61 2    
   123   60   62 1    
   124   62   63 1    
   125   62   64 1    
   126   62  185 1    
   127   63  186 1    
   128   63  187 1    
   129   63  188 1    
   130   64   65 am   BACKBONE|DICT|INTERRES
   131   64  189 1    
   132   65   66 2    
   133   67   68 2    
   134   67   69 am   BACKBONE|DICT|INTERRES
   135   69   70 1    
   136   69  190 1    
   137   70   71 1    
   138   70   72 1    
   139   70  191 1    
   140   71  192 1    
   141   71  193 1    
   142   71  194 1    
   143   72   73 2    
   144   72   74 am   BACKBONE|DICT|INTERRES
   145   74   75 1    
   146   74  195 1    
   147   75   76 1    
   148   75   77 1    
   149   75  196 1    
   150   76  197 1    
   151   76  198 1    
   152   76  199 1    
   153   77   78 2    
   154   77   79 am   BACKBONE|DICT|INTERRES
   155   79   80 1    
   156   79  200 1    
   157   80   81 1    
   158   80   82 1    
   159   80  201 1    
   160   81  202 1    
   161   81  203 1    
   162   81  204 1    
   163   82   83 2    
   164   82   84 am   BACKBONE|DICT|INTERRES
   165   84   85 1    
   166   84  205 1    
   167   85   86 1    
   168   85   87 1    
   169   85  206 1    
   170   86  207 1    
   171   86  208 1    
   172   86  209 1    
   173   87   88 2    
   174   87   89 am   BACKBONE|DICT|INTERRES
   175   89   90 1    
   176   89  210 1    
   177   90   91 1    
   178   90   92 1    
   179   90  211 1    
   180   91  212 1    
   181   91  213 1    
   182   91  214 1    
   183   92   93 2    
   184   92   94 am   BACKBONE|DICT|INTERRES
   185   94   95 1    
   186   94  215 1    
   187   95   96 1    
   188   95   97 1    
   189   95  216 1    
   190   96  217 1    
   191   96  218 1    
   192   96  219 1    
   193   97   98 2    
   194   97   99 am   BACKBONE|DICT|INTERRES
   195   99  100 1    
   196   99  220 1    
   197  100  101 1    
   198  100  102 1    
   199  100  221 1    
   200  101  222 1    
   201  101  223 1    
   202  101  224 1    
   203  102  103 2    
   204  102  104 am   BACKBONE|DICT|INTERRES
   205  104  105 1    
   206  104  225 1    
   207  105  106 1    
   208  105  107 1    
   209  105  226 1    
   210  106  227 1    
   211  106  228 1    
   212  106  229 1    
   213  107  108 2    
   214  107  109 am   BACKBONE|DICT|INTERRES
   215  109  110 1    
   216  109  230 1    
   217  110  111 1    
   218  110  112 1    
   219  110  231 1    
   220  111  232 1    
   221  111  233 1    
   222  111  234 1    
   223  112  113 2    
   224  112  114 am   BACKBONE|DICT|INTERRES
   225  114  115 1    
   226  114  235 1    
   227  115  116 1    
   228  115  117 1    
   229  115  236 1    
   230  116  237 1    
   231  116  238 1    
   232  116  239 1    
   233  117  118 2    
   234  117  119 am   BACKBONE|DICT|INTERRES
   235  119  120 1    
   236  119  240 1    
   237  120  121 1    
   238  120  124 1    
   239  120  241 1    
   240  121  122 am   BACKBONE|DICT|INTERRES
   241  121  123 2    
   242  122  242 1    
   243  122  243 1    
   244  124  125 1    
   245  124  244 1    
   246  124  245 1    
   247  125  126 1    
   248  126  246 1    
   249  126  247 1    
@<TRIPOS>SUBSTRUCTURE
     1 UNK         1 GROUP             0       ****    0 ROOT    
