@<TRIPOS>MOLECULE
3R540
247   249    1
SMALL
USER_CHARGES


@<TRIPOS>ATOM
      1 CA         -4.0548  -14.9400  -47.3156 C.3       0 UNK        -0.1800 
      2 C          -3.1548  -15.8749  -48.1201 C.2       0 UNK         0.5000 
      3 O          -3.4383  -17.0693  -48.1850 O.2       0 UNK        -0.5000 
      4 N          -2.0971  -15.3933  -48.7879 N.am      1 UNK        -0.5000 
      5 CA         -1.6224  -14.0061  -48.8677 C.3       1 UNK         0.1400 
      6 C6         -0.4485  -13.8594  -49.8689 C.3       23 UNK        -0.0398 
      7 S7         -0.8764  -14.3355  -51.5777 S.3       23 UNK        -0.2404 
      8 C8          0.3473  -15.6398  -51.9245 C.3       23 UNK        -0.0205 
      9 C9         -0.1705  -17.0145  -51.5340 C.ar      23 UNK        -0.0193 
     10 C10        -0.7475  -17.8399  -52.5029 C.ar      23 UNK        -0.1150 
     11 C11        -1.2153  -19.1121  -52.1661 C.ar      23 UNK        -0.0193 
     12 C12        -1.1438  -19.5373  -50.8362 C.ar      23 UNK        -0.1150 
     13 C13        -0.5908  -18.7126  -49.8523 C.ar      23 UNK        -0.0193 
     14 C14        -0.0791  -17.4632  -50.2130 C.ar      23 UNK        -0.1150 
     15 C15        -0.5881  -19.1493  -48.3956 C.3       23 UNK        -0.0205 
     16 S16         0.9324  -20.0344  -47.9505 S.3       23 UNK        -0.2404 
     17 C17         0.5647  -20.4639  -46.2145 C.3       23 UNK        -0.0398 
     18 CA          0.1980  -21.9575  -46.0335 C.3       11 UNK         0.1400 
     19 N           0.4878  -22.4248  -44.6750 N.am      11 UNK        -0.5000 
     20 C           0.4721  -23.7080  -44.2893 C.2       10 UNK         0.5000 
     21 O           0.1966  -24.6430  -45.0385 O.2       10 UNK        -0.5000 
     22 CA          0.7596  -23.9919  -42.8079 C.3       10 UNK         0.1400 
     23 CB          2.2587  -23.8674  -42.4990 C.3       10 UNK        -0.1800 
     24 N          -0.0058  -23.1007  -41.9402 N.am      10 UNK        -0.5000 
     25 C          -1.3281  -23.1982  -41.7454 C.2       9 UNK         0.5000 
     26 O          -2.0301  -24.0814  -42.2372 O.2       9 UNK        -0.5000 
     27 CA         -1.9809  -22.1112  -40.8735 C.3       9 UNK         0.1400 
     28 CB         -1.9490  -22.5156  -39.3921 C.3       9 UNK        -0.1800 
     29 N          -1.3589  -20.7949  -41.0283 N.am      9 UNK        -0.5000 
     30 C          -1.3907  -20.0710  -42.1553 C.2       8 UNK         0.5000 
     31 O          -1.9031  -20.4526  -43.2059 O.2       8 UNK        -0.5000 
     32 CA         -0.6999  -18.6996  -42.1051 C.3       8 UNK         0.1400 
     33 CB         -1.5426  -17.7260  -41.2644 C.3       8 UNK        -0.1800 
     34 N           0.6735  -18.7366  -41.5922 N.am      8 UNK        -0.5000 
     35 C           1.6613  -19.5317  -42.0361 C.2       7 UNK         0.5000 
     36 O           1.4996  -20.4283  -42.8663 O.2       7 UNK        -0.5000 
     37 CA          3.0650  -19.2525  -41.4702 C.3       7 UNK         0.1400 
     38 CB          4.1887  -19.9228  -42.2821 C.3       7 UNK        -0.1800 
     39 N           3.2919  -17.8108  -41.4344 N.am      7 UNK        -0.5000 
     40 C           3.8741  -17.1344  -40.4360 C.2       6 UNK         0.5000 
     41 O           4.3368  -17.6711  -39.4286 O.2       6 UNK        -0.5000 
     42 CA          3.9478  -15.5969  -40.5707 C.3       6 UNK         0.1400 
     43 CB          5.3575  -15.1638  -41.0016 C.3       6 UNK        -0.1800 
     44 N           2.9760  -15.0387  -41.5144 N.am      6 UNK        -0.5000 
     45 C           1.6447  -15.0799  -41.3670 C.2       5 UNK         0.5000 
     46 O           1.0870  -15.5171  -40.3603 O.2       5 UNK        -0.5000 
     47 CA          0.7888  -14.6009  -42.5576 C.3       5 UNK         0.1400 
     48 CB          0.2257  -13.2001  -42.2818 C.3       5 UNK        -0.1800 
     49 N           1.4700  -14.6132  -43.8585 N.am      5 UNK        -0.5000 
     50 C           1.9764  -15.7035  -44.4593 C.2       4 UNK         0.5000 
     51 O           2.0076  -16.8110  -43.9226 O.2       4 UNK        -0.5000 
     52 CA          2.5549  -15.5487  -45.8792 C.3       4 UNK         0.1400 
     53 CB          1.9120  -16.5586  -46.8444 C.3       4 UNK        -0.1800 
     54 N           2.3621  -14.2014  -46.4150 N.am      4 UNK        -0.5000 
     55 C           3.2928  -13.2368  -46.4368 C.2       3 UNK         0.5000 
     56 O           4.4366  -13.3840  -46.0059 O.2       3 UNK        -0.5000 
     57 CA          2.8829  -11.8727  -47.0332 C.3       3 UNK         0.1400 
     58 CB          3.3916  -11.7487  -48.4778 C.3       3 UNK        -0.1800 
     59 N           1.4371  -11.6382  -47.0235 N.am      3 UNK        -0.5000 
     60 C           0.6917  -11.4784  -45.9212 C.2       2 UNK         0.5000 
     61 O           1.1632  -11.4358  -44.7863 O.2       2 UNK        -0.5000 
     62 CA         -0.8377  -11.4183  -46.1161 C.3       2 UNK         0.1400 
     63 CB         -1.3137   -9.9602  -46.1914 C.3       2 UNK        -0.1800 
     64 N          -1.3059  -12.1420  -47.3052 N.am      2 UNK        -0.5000 
     65 C          -1.1681  -13.4613  -47.4989 C.2       1 UNK         0.5000 
     66 O          -0.6388  -14.2167  -46.6820 O.2       1 UNK        -0.5000 
     67 C          -1.2583  -22.2608  -46.4509 C.2       11 UNK         0.5000 
     68 O          -1.4904  -22.7202  -47.5696 O.2       11 UNK        -0.5000 
     69 N          -2.2121  -22.0630  -45.5305 N.am      12 UNK        -0.5000 
     70 CA         -3.6266  -22.3872  -45.7239 C.3       12 UNK         0.1400 
     71 CB         -4.4487  -21.8123  -44.5616 C.3       12 UNK        -0.1800 
     72 C          -3.9049  -23.8940  -45.8855 C.2       12 UNK         0.5000 
     73 O          -4.9067  -24.2507  -46.5038 O.2       12 UNK        -0.5000 
     74 N          -3.0273  -24.7462  -45.3414 N.am      13 UNK        -0.5000 
     75 CA         -3.1023  -26.1977  -45.4740 C.3       13 UNK         0.1400 
     76 CB         -2.5246  -26.8584  -44.2117 C.3       13 UNK        -0.1800 
     77 C          -2.3708  -26.6837  -46.7361 C.2       13 UNK         0.5000 
     78 O          -2.9644  -27.3959  -47.5461 O.2       13 UNK        -0.5000 
     79 N          -1.0917  -26.3095  -46.8714 N.am      14 UNK        -0.5000 
     80 CA         -0.1815  -26.8299  -47.8913 C.3       14 UNK         0.1400 
     81 CB          1.2694  -26.5887  -47.4459 C.3       14 UNK        -0.1800 
     82 C          -0.4172  -26.2341  -49.2874 C.2       14 UNK         0.5000 
     83 O          -0.3638  -26.9716  -50.2725 O.2       14 UNK        -0.5000 
     84 N          -0.6599  -24.9193  -49.3504 N.am      15 UNK        -0.5000 
     85 CA         -0.8517  -24.1718  -50.5955 C.3       15 UNK         0.1400 
     86 CB          0.0415  -22.9214  -50.5619 C.3       15 UNK        -0.1800 
     87 C          -2.3305  -23.8151  -50.8406 C.2       15 UNK         0.5000 
     88 O          -2.6414  -23.2432  -51.8829 O.2       15 UNK        -0.5000 
     89 N          -3.2132  -24.1736  -49.8950 N.am      16 UNK        -0.5000 
     90 CA         -4.6739  -24.0228  -49.9290 C.3       16 UNK         0.1400 
     91 CB         -5.2847  -24.8355  -51.0905 C.3       16 UNK        -0.1800 
     92 C          -5.1738  -22.5604  -49.8863 C.2       16 UNK         0.5000 
     93 O          -6.3325  -22.3126  -50.2258 O.2       16 UNK        -0.5000 
     94 N          -4.3094  -21.6358  -49.4351 N.am      17 UNK        -0.5000 
     95 CA         -4.5073  -20.1813  -49.3346 C.3       17 UNK         0.1400 
     96 CB         -5.6864  -19.8447  -48.3969 C.3       17 UNK        -0.1800 
     97 C          -4.6553  -19.4762  -50.7008 C.2       17 UNK         0.5000 
     98 O          -4.7942  -20.1268  -51.7372 O.2       17 UNK        -0.5000 
     99 N          -4.6267  -18.1352  -50.6813 N.am      18 UNK        -0.5000 
    100 CA        -4.6700  -17.2504  -51.8572 C.3       18 UNK         0.1400 
    101 CB        -4.6312  -15.7848  -51.4012 C.3       18 UNK        -0.1800 
    102 C         -5.8481  -17.4697  -52.8292 C.2       18 UNK         0.5000 
    103 O         -5.7389  -17.0926  -53.9957 O.2       18 UNK        -0.5000 
    104 N         -6.9258  -18.1160  -52.3638 N.am      19 UNK        -0.5000 
    105 CA        -8.0479  -18.5920  -53.1767 C.3       19 UNK         0.1400 
    106 CB        -9.1008  -19.2151  -52.2478 C.3       19 UNK        -0.1800 
    107 C         -7.6404  -19.5960  -54.2787 C.2       19 UNK         0.5000 
    108 O         -8.3191  -19.6706  -55.3034 O.2       19 UNK        -0.5000 
    109 N         -6.5325  -20.3232  -54.0707 N.am      20 UNK        -0.5000 
    110 CA        -5.9293  -21.2322  -55.0480 C.3       20 UNK         0.1400 
    111 CB        -5.1791  -22.3386  -54.2917 C.3       20 UNK        -0.1800 
    112 C         -4.9970  -20.5186  -56.0518 C.2       20 UNK         0.5000 
    113 O         -4.4604  -21.1810  -56.9414 O.2       20 UNK        -0.5000 
    114 N         -4.8099  -19.1982  -55.8984 N.am      21 UNK        -0.5000 
    115 CA        -4.0119  -18.2663  -56.7064 C.3       21 UNK         0.1400 
    116 CB        -4.4809  -18.2380  -58.1738 C.3       21 UNK        -0.1800 
    117 C         -2.4876  -18.4653  -56.6059 C.2       21 UNK         0.5000 
    118 O         -1.7744  -17.4881  -56.3740 O.2       21 UNK        -0.5000 
    119 N         -2.0221  -19.7120  -56.7528 N.am      22 UNK        -0.5000 
    120 CA        -0.6092  -20.1322  -56.7498 C.3       22 UNK         0.1400 
    121 C          0.2235  -19.5375  -57.9320 C.2       22 UNK         0.5000 
    122 N          1.5381  -19.7192  -57.9470 N.am      22 UNK        -0.7600 
    123 O         -0.3072  -18.9571  -58.8773 O.2       22 UNK        -0.5000 
    124 C124        0.0633  -19.9431  -55.3563 C.3       23 UNK        -0.0398 
    125 S125       -0.6382  -21.0544  -54.0902 S.3       23 UNK        -0.2404 
    126 C126       -1.8475  -20.0067  -53.2222 C.3       23 UNK        -0.0205 
    127 H127       -4.2312  -13.9988  -47.8347 H         1 UNK         0.0600 
    128 H128       -3.6113  -14.7305  -46.3424 H         1 UNK         0.0600 
    129 H129       -5.0258  -15.4060  -47.1469 H         1 UNK         0.0600 
    130 H130       -1.5549  -16.0498  -49.3298 H         1 UNK         0.3000 
    131 H131       -2.4521  -13.3934  -49.2251 H         1 UNK         0.0600 
    132 H132       -0.1145  -12.8212  -49.9153 H         1 UNK         0.0800 
    133 H133        0.4157  -14.4322  -49.5284 H         1 UNK         0.0800 
    134 H134        0.5731  -15.6214  -52.9919 H         1 UNK         0.0800 
    135 H135        1.2916  -15.4303  -51.4202 H         1 UNK         0.0800 
    136 H136       -0.8357  -17.4867  -53.5203 H         1 UNK         0.1150 
    137 H137       -1.5408  -20.5048  -50.5661 H         1 UNK         0.1150 
    138 H138        0.3703  -16.8333  -49.4593 H         1 UNK         0.1150 
    139 H139       -0.7085  -18.2800  -47.7473 H         1 UNK         0.0800 
    140 H140       -1.4421  -19.7963  -48.1996 H         1 UNK         0.0800 
    141 H141        1.4707  -20.2372  -45.6503 H         1 UNK         0.0800 
    142 H142       -0.2040  -19.8077  -45.8014 H         1 UNK         0.0800 
    143 H143        0.8428  -22.5420  -46.6939 H         1 UNK         0.0600 
    144 H144        0.7365  -21.7126  -43.9916 H         1 UNK         0.3000 
    145 H145        0.4582  -25.0208  -42.5986 H         1 UNK         0.0600 
    146 H146        2.4674  -24.1013  -41.4550 H         1 UNK         0.0600 
    147 H147        2.8391  -24.5600  -43.1099 H         1 UNK         0.0600 
    148 H148        2.6326  -22.8641  -42.6995 H         1 UNK         0.0600 
    149 H149        0.4848  -22.3096  -41.5495 H         1 UNK         0.3000 
    150 H150       -3.0253  -22.0268  -41.1813 H         1 UNK         0.0600 
    151 H151       -2.4256  -23.4853  -39.2420 H         1 UNK         0.0600 
    152 H152       -2.4833  -21.7935  -38.7743 H         1 UNK         0.0600 
    153 H153       -0.9278  -22.5900  -39.0162 H         1 UNK         0.0600 
    154 H154       -0.8978  -20.4081  -40.2179 H         1 UNK         0.3000 
    155 H155       -0.6506  -18.3169  -43.1268 H         1 UNK         0.0600 
    156 H156       -1.1454  -16.7146  -41.2972 H         1 UNK         0.0600 
    157 H157       -1.5845  -18.0273  -40.2171 H         1 UNK         0.0600 
    158 H158       -2.5683  -17.6783  -41.6329 H         1 UNK         0.0600 
    159 H159        0.9117  -18.0254  -40.9147 H         1 UNK         0.3000 
    160 H160        3.0768  -19.6611  -40.4579 H         1 UNK         0.0600 
    161 H161        4.1833  -19.5902  -43.3210 H         1 UNK         0.0600 
    162 H162        4.0826  -21.0075  -42.2807 H         1 UNK         0.0600 
    163 H163        5.1683  -19.6945  -41.8622 H         1 UNK         0.0600 
    164 H164        2.9147  -17.2995  -42.2283 H         1 UNK         0.3000 
    165 H165        3.7429  -15.1723  -39.5858 H         1 UNK         0.0600 
    166 H166        5.6100  -15.5457  -41.9917 H         1 UNK         0.0600 
    167 H167        5.4469  -14.0776  -41.0267 H         1 UNK         0.0600 
    168 H168        6.1108  -15.5341  -40.3049 H         1 UNK         0.0600 
    169 H169        3.3452  -14.6634  -42.3755 H         1 UNK         0.3000 
    170 H170       -0.0542  -15.2864  -42.6447 H         1 UNK         0.0600 
    171 H171       -0.3122  -13.1727  -41.3332 H         1 UNK         0.0600 
    172 H172        1.0178  -12.4522  -42.2315 H         1 UNK         0.0600 
    173 H173       -0.4771  -12.8982  -43.0580 H         1 UNK         0.0600 
    174 H174        1.4993  -13.7331  -44.3553 H         1 UNK         0.3000 
    175 H175        3.6201  -15.7797  -45.8166 H         1 UNK         0.0600 
    176 H176        2.0987  -17.5821  -46.5179 H         1 UNK         0.0600 
    177 H177        0.8315  -16.4285  -46.9070 H         1 UNK         0.0600 
    178 H178        2.3221  -16.4619  -47.8496 H         1 UNK         0.0600 
    179 H179        1.4218  -13.9920  -46.7294 H         1 UNK         0.3000 
    180 H180        3.3581  -11.0946  -46.4322 H         1 UNK         0.0600 
    181 H181        2.9366  -12.4948  -49.1306 H         1 UNK         0.0600 
    182 H182        4.4726  -11.8872  -48.5249 H         1 UNK         0.0600 
    183 H183        3.1744  -10.7631  -48.8900 H         1 UNK         0.0600 
    184 H184        0.9737  -11.6350  -47.9190 H         1 UNK         0.3000 
    185 H185       -1.2968  -11.8830  -45.2412 H         1 UNK         0.0600 
    186 H186       -2.4010   -9.9019  -46.2437 H         1 UNK         0.0600 
    187 H187       -1.0024   -9.4018  -45.3074 H         1 UNK         0.0600 
    188 H188       -0.9063   -9.4475  -47.0637 H         1 UNK         0.0600 
    189 H189       -1.7441  -11.5797  -48.0212 H         1 UNK         0.3000 
    190 H190       -1.9658  -21.6383  -44.6387 H         1 UNK         0.3000 
    191 H191       -3.9534  -21.8991  -46.6425 H         1 UNK         0.0600 
    192 H192       -5.5106  -22.0272  -44.6874 H         1 UNK         0.0600 
    193 H193       -4.3429  -20.7290  -44.5027 H         1 UNK         0.0600 
    194 H194       -4.1374  -22.2338  -43.6050 H         1 UNK         0.0600 
    195 H195       -2.2323  -24.3744  -44.8399 H         1 UNK         0.3000 
    196 H196       -4.1476  -26.5043  -45.5537 H         1 UNK         0.0600 
    197 H197       -2.5584  -27.9457  -44.2890 H         1 UNK         0.0600 
    198 H198       -3.0966  -26.5772  -43.3273 H         1 UNK         0.0600 
    199 H199       -1.4868  -26.5728  -44.0378 H         1 UNK         0.0600 
    200 H200       -0.6735  -25.7049  -46.1654 H         1 UNK         0.3000 
    201 H201       -0.3323  -27.9094  -47.9623 H         1 UNK         0.0600 
    202 H202        1.4694  -27.0588  -46.4829 H         1 UNK         0.0600 
    203 H203        1.4900  -25.5247  -47.3501 H         1 UNK         0.0600 
    204 H204        1.9743  -27.0070  -48.1655 H         1 UNK         0.0600 
    205 H205       -0.7260  -24.3762  -48.4960 H         1 UNK         0.3000 
    206 H206       -0.5347  -24.7715  -51.4509 H         1 UNK         0.0600 
    207 H207        1.0912  -23.1914  -50.4483 H         1 UNK         0.0600 
    208 H208       -0.0454  -22.3521  -51.4868 H         1 UNK         0.0600 
    209 H209       -0.2188  -22.2551  -49.7418 H         1 UNK         0.0600 
    210 H210       -2.8411  -24.6220  -49.0703 H         1 UNK         0.3000 
    211 H211       -5.0392  -24.4822  -49.0125 H         1 UNK         0.0600 
    212 H212       -4.9981  -24.4349  -52.0619 H         1 UNK         0.0600 
    213 H213       -6.3742  -24.8322  -51.0449 H         1 UNK         0.0600 
    214 H214       -4.9646  -25.8766  -51.0513 H         1 UNK         0.0600 
    215 H215       -3.3827  -21.9659  -49.2027 H         1 UNK         0.3000 
    216 H216       -3.6009  -19.7884  -48.8774 H         1 UNK         0.0600 
    217 H217       -5.6029  -20.3702  -47.4463 H         1 UNK         0.0600 
    218 H218       -5.7151  -18.7787  -48.1693 H         1 UNK         0.0600 
    219 H219       -6.6481  -20.1051  -48.8394 H         1 UNK         0.0600 
    220 H220       -4.4437  -17.6829  -49.7905 H         1 UNK         0.3000 
    221 H221       -3.7627  -17.4444  -52.4321 H         1 UNK         0.0600 
    222 H222       -5.3998  -15.5704  -50.6581 H         1 UNK         0.0600 
    223 H223       -3.6619  -15.5393  -50.9742 H         1 UNK         0.0600 
    224 H224       -4.7819  -15.1020  -52.2387 H         1 UNK         0.0600 
    225 H225       -6.9174  -18.4042  -51.3969 H         1 UNK         0.3000 
    226 H226       -8.4917  -17.7252  -53.6703 H         1 UNK         0.0600 
    227 H227       -8.6990  -20.0718  -51.7045 H         1 UNK         0.0600 
    228 H228       -9.4611  -18.4913  -51.5165 H         1 UNK         0.0600 
    229 H229       -9.9663  -19.5616  -52.8142 H         1 UNK         0.0600 
    230 H230       -6.0227  -20.2117  -53.1962 H         1 UNK         0.3000 
    231 H231       -6.7229  -21.7064  -55.6288 H         1 UNK         0.0600 
    232 H232       -4.7799  -23.0869  -54.9772 H         1 UNK         0.0600 
    233 H233       -5.8425  -22.8534  -53.5974 H         1 UNK         0.0600 
    234 H234       -4.3417  -21.9400  -53.7193 H         1 UNK         0.0600 
    235 H235       -5.2895  -18.7525  -55.1244 H         1 UNK         0.3000 
    236 H236       -4.2193  -17.2797  -56.2892 H         1 UNK         0.0600 
    237 H237       -5.5479  -18.0256  -58.2423 H         1 UNK         0.0600 
    238 H238       -3.9575  -17.4606  -58.7315 H         1 UNK         0.0600 
    239 H239       -4.2924  -19.1829  -58.6838 H         1 UNK         0.0600 
    240 H240       -2.7062  -20.4391  -56.9406 H         1 UNK         0.3000 
    241 H241       -0.6372  -21.2018  -56.9601 H         1 UNK         0.0600 
    242 H242        2.0174  -20.2279  -57.2209 H         1 UNK         0.3800 
    243 H243        2.0688  -19.3527  -58.7223 H         1 UNK         0.3800 
    244 H244        1.1254  -20.1836  -55.3973 H         1 UNK         0.0800 
    245 H245        0.0138  -18.9059  -55.0318 H         1 UNK         0.0800 
    246 H246       -2.5587  -20.6777  -52.7441 H         1 UNK         0.0800 
    247 H247       -2.4259  -19.4135  -53.9284 H         1 UNK         0.0800 
@<TRIPOS>BOND
     1    1    2 1    
     2    1  127 1    
     3    1  128 1    
     4    1  129 1    
     5    2    3 2    
     6    2    4 am   BACKBONE|DICT|INTERRES
     7    4    5 1    
     8    4  130 1    
     9    5    6 1    
    10    5   65 1    
    11    5  131 1    
    12    6    7 1    
    13    6  132 1    
    14    6  133 1    
    15    7    8 1    
    16    8    9 1    
    17    8  134 1    
    18    8  135 1    
    19    9   10 ar   
    20    9   14 ar   
    21   10   11 ar   
    22   10  136 1    
    23   11   12 ar   
    24   11  126 1    
    25   12   13 ar   
    26   12  137 1    
    27   13   14 ar   
    28   13   15 1    
    29   14  138 1    
    30   15   16 1    
    31   15  139 1    
    32   15  140 1    
    33   16   17 1    
    34   17   18 1    
    35   17  141 1    
    36   17  142 1    
    37   18   19 1    
    38   18   67 1    
    39   18  143 1    
    40   19   20 am   BACKBONE|DICT|INTERRES
    41   19  144 1    
    42   20   21 2    
    43   20   22 1    
    44   22   23 1    
    45   22   24 1    
    46   22  145 1    
    47   23  146 1    
    48   23  147 1    
    49   23  148 1    
    50   24   25 am   BACKBONE|DICT|INTERRES
    51   24  149 1    
    52   25   26 2    
    53   25   27 1    
    54   27   28 1    
    55   27   29 1    
    56   27  150 1    
    57   28  151 1    
    58   28  152 1    
    59   28  153 1    
    60   29   30 am   BACKBONE|DICT|INTERRES
    61   29  154 1    
    62   30   31 2    
    63   30   32 1    
    64   32   33 1    
    65   32   34 1    
    66   32  155 1    
    67   33  156 1    
    68   33  157 1    
    69   33  158 1    
    70   34   35 am   BACKBONE|DICT|INTERRES
    71   34  159 1    
    72   35   36 2    
    73   35   37 1    
    74   37   38 1    
    75   37   39 1    
    76   37  160 1    
    77   38  161 1    
    78   38  162 1    
    79   38  163 1    
    80   39   40 am   BACKBONE|DICT|INTERRES
    81   39  164 1    
    82   40   41 2    
    83   40   42 1    
    84   42   43 1    
    85   42   44 1    
    86   42  165 1    
    87   43  166 1    
    88   43  167 1    
    89   43  168 1    
    90   44   45 am   BACKBONE|DICT|INTERRES
    91   44  169 1    
    92   45   46 2    
    93   45   47 1    
    94   47   48 1    
    95   47   49 1    
    96   47  170 1    
    97   48  171 1    
    98   48  172 1    
    99   48  173 1    
   100   49   50 am   BACKBONE|DICT|INTERRES
   101   49  174 1    
   102   50   51 2    
   103   50   52 1    
   104   52   53 1    
   105   52   54 1    
   106   52  175 1    
   107   53  176 1    
   108   53  177 1    
   109   53  178 1    
   110   54   55 am   BACKBONE|DICT|INTERRES
   111   54  179 1    
   112   55   56 2    
   113   55   57 1    
   114   57   58 1    
   115   57   59 1    
   116   57  180 1    
   117   58  181 1    
   118   58  182 1    
   119   58  183 1    
   120   59   60 am   BACKBONE|DICT|INTERRES
   121   59  184 1    
   122   60   61 2    
   123   60   62 1    
   124   62   63 1    
   125   62   64 1    
   126   62  185 1    
   127   63  186 1    
   128   63  187 1    
   129   63  188 1    
   130   64   65 am   BACKBONE|DICT|INTERRES
   131   64  189 1    
   132   65   66 2    
   133   67   68 2    
   134   67   69 am   BACKBONE|DICT|INTERRES
   135   69   70 1    
   136   69  190 1    
   137   70   71 1    
   138   70   72 1    
   139   70  191 1    
   140   71  192 1    
   141   71  193 1    
   142   71  194 1    
   143   72   73 2    
   144   72   74 am   BACKBONE|DICT|INTERRES
   145   74   75 1    
   146   74  195 1    
   147   75   76 1    
   148   75   77 1    
   149   75  196 1    
   150   76  197 1    
   151   76  198 1    
   152   76  199 1    
   153   77   78 2    
   154   77   79 am   BACKBONE|DICT|INTERRES
   155   79   80 1    
   156   79  200 1    
   157   80   81 1    
   158   80   82 1    
   159   80  201 1    
   160   81  202 1    
   161   81  203 1    
   162   81  204 1    
   163   82   83 2    
   164   82   84 am   BACKBONE|DICT|INTERRES
   165   84   85 1    
   166   84  205 1    
   167   85   86 1    
   168   85   87 1    
   169   85  206 1    
   170   86  207 1    
   171   86  208 1    
   172   86  209 1    
   173   87   88 2    
   174   87   89 am   BACKBONE|DICT|INTERRES
   175   89   90 1    
   176   89  210 1    
   177   90   91 1    
   178   90   92 1    
   179   90  211 1    
   180   91  212 1    
   181   91  213 1    
   182   91  214 1    
   183   92   93 2    
   184   92   94 am   BACKBONE|DICT|INTERRES
   185   94   95 1    
   186   94  215 1    
   187   95   96 1    
   188   95   97 1    
   189   95  216 1    
   190   96  217 1    
   191   96  218 1    
   192   96  219 1    
   193   97   98 2    
   194   97   99 am   BACKBONE|DICT|INTERRES
   195   99  100 1    
   196   99  220 1    
   197  100  101 1    
   198  100  102 1    
   199  100  221 1    
   200  101  222 1    
   201  101  223 1    
   202  101  224 1    
   203  102  103 2    
   204  102  104 am   BACKBONE|DICT|INTERRES
   205  104  105 1    
   206  104  225 1    
   207  105  106 1    
   208  105  107 1    
   209  105  226 1    
   210  106  227 1    
   211  106  228 1    
   212  106  229 1    
   213  107  108 2    
   214  107  109 am   BACKBONE|DICT|INTERRES
   215  109  110 1    
   216  109  230 1    
   217  110  111 1    
   218  110  112 1    
   219  110  231 1    
   220  111  232 1    
   221  111  233 1    
   222  111  234 1    
   223  112  113 2    
   224  112  114 am   BACKBONE|DICT|INTERRES
   225  114  115 1    
   226  114  235 1    
   227  115  116 1    
   228  115  117 1    
   229  115  236 1    
   230  116  237 1    
   231  116  238 1    
   232  116  239 1    
   233  117  118 2    
   234  117  119 am   BACKBONE|DICT|INTERRES
   235  119  120 1    
   236  119  240 1    
   237  120  121 1    
   238  120  124 1    
   239  120  241 1    
   240  121  122 am   BACKBONE|DICT|INTERRES
   241  121  123 2    
   242  122  242 1    
   243  122  243 1    
   244  124  125 1    
   245  124  244 1    
   246  124  245 1    
   247  125  126 1    
   248  126  246 1    
   249  126  247 1    
@<TRIPOS>SUBSTRUCTURE
     1 UNK         1 GROUP             0       ****    0 ROOT    
