@<TRIPOS>MOLECULE
3R540
247   249    1
SMALL
USER_CHARGES


@<TRIPOS>ATOM
      1 CA          0.9694  -15.3574  -46.6917 C.3       0 UNK        -0.1800 
      2 C           1.6790  -14.9067  -47.9582 C.2       0 UNK         0.5000 
      3 O           1.1444  -14.0807  -48.6980 O.2       0 UNK        -0.5000 
      4 N           2.8876  -15.4318  -48.2038 N.am      1 UNK        -0.5000 
      5 CA          3.7491  -15.1044  -49.3484 C.3       1 UNK         0.1400 
      6 C6          4.7610  -16.2539  -49.6416 C.3       23 UNK        -0.0398 
      7 S7          4.9731  -16.5584  -51.4301 S.3       23 UNK        -0.2404 
      8 C8          4.0893  -18.1395  -51.6565 C.3       23 UNK        -0.0205 
      9 C9          2.5888  -17.9826  -51.4596 C.ar      23 UNK        -0.0193 
     10 C10         1.7784  -17.5674  -52.5202 C.ar      23 UNK        -0.1150 
     11 C11         0.4057  -17.3776  -52.3342 C.ar      23 UNK        -0.0193 
     12 C12        -0.1534  -17.5984  -51.0710 C.ar      23 UNK        -0.1150 
     13 C13         0.6501  -18.0118  -50.0030 C.ar      23 UNK        -0.0193 
     14 C14         2.0132  -18.2271  -50.2100 C.ar      23 UNK        -0.1150 
     15 C15         0.0642  -18.1499  -48.6086 C.3       23 UNK        -0.0205 
     16 S16        -0.8466  -19.6971  -48.3796 S.3       23 UNK        -0.2404 
     17 C17         0.4711  -20.9209  -48.0694 C.3       23 UNK        -0.0398 
     18 CA          0.0349  -22.1545  -47.2318 C.3       11 UNK         0.1400 
     19 N           0.0502  -21.9086  -45.7846 N.am      11 UNK        -0.5000 
     20 C           0.0454  -22.8897  -44.8683 C.2       10 UNK         0.5000 
     21 O           0.0072  -24.0848  -45.1576 O.2       10 UNK        -0.5000 
     22 CA          0.0450  -22.4868  -43.3838 C.3       10 UNK         0.1400 
     23 CB          1.4365  -22.0133  -42.9400 C.3       10 UNK        -0.1800 
     24 N          -0.9586  -21.4703  -43.0758 N.am      10 UNK        -0.5000 
     25 C          -2.2818  -21.6591  -43.1873 C.2       9 UNK         0.5000 
     26 O          -2.7951  -22.7256  -43.5283 O.2       9 UNK        -0.5000 
     27 CA         -3.1793  -20.4369  -42.9155 C.3       9 UNK         0.1400 
     28 CB         -3.4046  -20.2432  -41.4087 C.3       9 UNK        -0.1800 
     29 N          -2.6354  -19.2066  -43.4908 N.am      9 UNK        -0.5000 
     30 C          -2.4432  -19.0085  -44.8021 C.2       8 UNK         0.5000 
     31 O          -2.7736  -19.8184  -45.6661 O.2       8 UNK        -0.5000 
     32 CA         -1.7010  -17.7222  -45.2052 C.3       8 UNK         0.1400 
     33 CB         -2.6452  -16.5113  -45.2225 C.3       8 UNK        -0.1800 
     34 N          -0.5477  -17.4625  -44.3403 N.am      8 UNK        -0.5000 
     35 C           0.5435  -18.2423  -44.2922 C.2       7 UNK         0.5000 
     36 O           0.7244  -19.2071  -45.0340 O.2       7 UNK        -0.5000 
     37 CA          1.5907  -17.9199  -43.2119 C.3       7 UNK         0.1400 
     38 CB          2.6614  -16.9552  -43.7415 C.3       7 UNK        -0.1800 
     39 N           0.9756  -17.3636  -42.0083 N.am      7 UNK        -0.5000 
     40 C           0.2958  -18.0924  -41.1113 C.2       6 UNK         0.5000 
     41 O           0.1626  -19.3138  -41.1880 O.2       6 UNK        -0.5000 
     42 CA         -0.3907  -17.3217  -39.9664 C.3       6 UNK         0.1400 
     43 CB          0.5923  -17.0791  -38.8118 C.3       6 UNK        -0.1800 
     44 N          -0.9492  -16.0404  -40.4037 N.am      6 UNK        -0.5000 
     45 C          -1.9414  -15.9137  -41.2957 C.2       5 UNK         0.5000 
     46 O          -2.5425  -16.8735  -41.7768 O.2       5 UNK        -0.5000 
     47 CA         -2.2928  -14.4886  -41.7704 C.3       5 UNK         0.1400 
     48 CB         -3.4993  -13.9488  -40.9888 C.3       5 UNK        -0.1800 
     49 N          -1.1919  -13.5222  -41.6821 N.am      5 UNK        -0.5000 
     50 C          -0.0042  -13.6299  -42.2943 C.2       4 UNK         0.5000 
     51 O           0.3246  -14.6049  -42.9740 O.2       4 UNK        -0.5000 
     52 CA          0.9894  -12.4794  -42.0327 C.3       4 UNK         0.1400 
     53 CB          1.5056  -12.5439  -40.5850 C.3       4 UNK        -0.1800 
     54 N           2.1483  -12.4828  -42.9276 N.am      4 UNK        -0.5000 
     55 C           2.1252  -12.2473  -44.2451 C.2       3 UNK         0.5000 
     56 O           1.1009  -11.9859  -44.8819 O.2       3 UNK        -0.5000 
     57 CA          3.4890  -12.2904  -44.9576 C.3       3 UNK         0.1400 
     58 CB          4.1670  -13.6685  -44.8293 C.3       3 UNK        -0.1800 
     59 N           3.3276  -11.9810  -46.3746 N.am      3 UNK        -0.5000 
     60 C           4.2096  -11.3304  -47.1424 C.2       2 UNK         0.5000 
     61 O           5.2470  -10.8195  -46.7156 O.2       2 UNK        -0.5000 
     62 CA          3.8815  -11.3100  -48.6516 C.3       2 UNK         0.1400 
     63 CB          4.9600  -10.6180  -49.5117 C.3       2 UNK        -0.1800 
     64 N           3.5948  -12.6665  -49.1366 N.am      2 UNK        -0.5000 
     65 C           4.4189  -13.7265  -49.1220 C.2       1 UNK         0.5000 
     66 O           5.6210  -13.6534  -48.8618 O.2       1 UNK        -0.5000 
     67 C          -1.2934  -22.7895  -47.7052 C.2       11 UNK         0.5000 
     68 O          -1.2703  -23.6269  -48.6085 O.2       11 UNK        -0.5000 
     69 N          -2.4181  -22.4133  -47.0749 N.am      12 UNK        -0.5000 
     70 CA         -3.7365  -23.0048  -47.3059 C.3       12 UNK         0.1400 
     71 CB         -4.8144  -22.2158  -46.5477 C.3       12 UNK        -0.1800 
     72 C          -3.7881  -24.4913  -46.9119 C.2       12 UNK         0.5000 
     73 O          -4.3750  -25.2909  -47.6398 O.2       12 UNK        -0.5000 
     74 N          -3.1547  -24.8374  -45.7843 N.am      13 UNK        -0.5000 
     75 CA         -3.0363  -26.2114  -45.3039 C.3       13 UNK         0.1400 
     76 CB         -2.6277  -26.1993  -43.8225 C.3       13 UNK        -0.1800 
     77 C          -2.0466  -27.0441  -46.1395 C.2       13 UNK         0.5000 
     78 O          -2.3581  -28.1827  -46.4908 O.2       13 UNK        -0.5000 
     79 N          -0.8677  -26.4736  -46.4203 N.am      14 UNK        -0.5000 
     80 CA          0.2477  -27.1686  -47.0596 C.3       14 UNK         0.1400 
     81 CB          1.5564  -26.4251  -46.7483 C.3       14 UNK        -0.1800 
     82 C           0.0846  -27.3445  -48.5781 C.2       14 UNK         0.5000 
     83 O           0.3560  -28.4339  -49.0856 O.2       14 UNK        -0.5000 
     84 N          -0.3067  -26.2713  -49.2770 N.am      15 UNK        -0.5000 
     85 CA         -0.2686  -26.1889  -50.7402 C.3       15 UNK         0.1400 
     86 CB          0.7751  -25.1282  -51.1325 C.3       15 UNK        -0.1800 
     87 C          -1.6268  -25.8462  -51.3733 C.2       15 UNK         0.5000 
     88 O          -1.7645  -25.9983  -52.5877 O.2       15 UNK        -0.5000 
     89 N          -2.5846  -25.3633  -50.5670 N.am      16 UNK        -0.5000 
     90 CA         -3.8652  -24.7757  -50.9834 C.3       16 UNK         0.1400 
     91 CB         -4.7770  -25.8266  -51.6516 C.3       16 UNK        -0.1800 
     92 C          -3.6676  -23.5012  -51.8327 C.2       16 UNK         0.5000 
     93 O          -4.4088  -23.2715  -52.7880 O.2       16 UNK        -0.5000 
     94 N          -2.6418  -22.7105  -51.4849 N.am      17 UNK        -0.5000 
     95 CA         -2.2616  -21.5007  -52.2103 C.3       17 UNK         0.1400 
     96 CB         -0.8005  -21.1534  -51.8989 C.3       17 UNK        -0.1800 
     97 C          -3.2220  -20.3320  -51.9263 C.2       17 UNK         0.5000 
     98 O          -3.8044  -19.7793  -52.8606 O.2       17 UNK        -0.5000 
     99 N          -3.4082  -19.9898  -50.6444 N.am      18 UNK        -0.5000 
    100 CA        -4.3719  -18.9774  -50.2111 C.3       18 UNK         0.1400 
    101 CB        -4.1245  -18.5963  -48.7445 C.3       18 UNK        -0.1800 
    102 C         -5.8211  -19.4514  -50.4171 C.2       18 UNK         0.5000 
    103 O         -6.1252  -20.6200  -50.1646 O.2       18 UNK        -0.5000 
    104 N         -6.6768  -18.5238  -50.8683 N.am      19 UNK        -0.5000 
    105 CA        -8.1142  -18.6400  -51.1514 C.3       19 UNK         0.1400 
    106 CB        -8.9062  -19.0022  -49.8802 C.3       19 UNK        -0.1800 
    107 C         -8.4798  -19.5805  -52.3176 C.2       19 UNK         0.5000 
    108 O         -9.2742  -19.1953  -53.1761 O.2       19 UNK        -0.5000 
    109 N         -7.9147  -20.7915  -52.3265 N.am      20 UNK        -0.5000 
    110 CA        -8.2047  -21.8481  -53.2950 C.3       20 UNK         0.1400 
    111 CB        -7.9328  -23.2084  -52.6346 C.3       20 UNK        -0.1800 
    112 C         -7.4417  -21.7045  -54.6273 C.2       20 UNK         0.5000 
    113 O         -7.8344  -22.3449  -55.6045 O.2       20 UNK        -0.5000 
    114 N         -6.3903  -20.8765  -54.6634 N.am      21 UNK        -0.5000 
    115 CA        -5.5903  -20.5987  -55.8531 C.3       21 UNK         0.1400 
    116 CB        -4.3754  -21.5469  -55.9047 C.3       21 UNK        -0.1800 
    117 C         -5.2439  -19.1011  -55.8911 C.2       21 UNK         0.5000 
    118 O         -6.1472  -18.2873  -56.0922 O.2       21 UNK        -0.5000 
    119 N         -3.9609  -18.7575  -55.7234 N.am      22 UNK        -0.5000 
    120 CA        -3.4421  -17.3804  -55.7281 C.3       22 UNK         0.1400 
    121 C         -3.9271  -16.4797  -54.5559 C.2       22 UNK         0.5000 
    122 N         -4.3184  -17.0354  -53.4175 N.am      22 UNK        -0.7600 
    123 O         -3.9490  -15.2589  -54.6859 O.2       22 UNK        -0.5000 
    124 C124       -1.8972  -17.3480  -55.8660 C.3       23 UNK        -0.0398 
    125 S125       -0.9978  -18.2599  -54.5580 S.3       23 UNK        -0.2404 
    126 C126       -0.4580  -16.8899  -53.4878 C.3       23 UNK        -0.0205 
    127 H127        1.4067  -16.2738  -46.3003 H         1 UNK         0.0600 
    128 H128        1.0333  -14.5888  -45.9226 H         1 UNK         0.0600 
    129 H129       -0.0843  -15.5433  -46.8944 H         1 UNK         0.0600 
    130 H130        3.2873  -16.0736  -47.5352 H         1 UNK         0.3000 
    131 H131        3.0943  -15.0022  -50.2172 H         1 UNK         0.0600 
    132 H132        5.7432  -16.0802  -49.2004 H         1 UNK         0.0800 
    133 H133        4.4321  -17.1828  -49.1784 H         1 UNK         0.0800 
    134 H134        4.2882  -18.5128  -52.6622 H         1 UNK         0.0800 
    135 H135        4.4906  -18.8882  -50.9717 H         1 UNK         0.0800 
    136 H136        2.2190  -17.3769  -53.4888 H         1 UNK         0.1150 
    137 H137       -1.2101  -17.4332  -50.9130 H         1 UNK         0.1150 
    138 H138        2.6310  -18.5488  -49.3845 H         1 UNK         0.1150 
    139 H139        0.8389  -18.0692  -47.8456 H         1 UNK         0.0800 
    140 H140       -0.6228  -17.3207  -48.4390 H         1 UNK         0.0800 
    141 H141        1.3148  -20.4273  -47.5854 H         1 UNK         0.0800 
    142 H142        0.8468  -21.2536  -49.0375 H         1 UNK         0.0800 
    143 H143        0.8002  -22.9136  -47.4088 H         1 UNK         0.0600 
    144 H144        0.1034  -20.9376  -45.4853 H         1 UNK         0.3000 
    145 H145       -0.2035  -23.3767  -42.8016 H         1 UNK         0.0600 
    146 H146        1.4474  -21.7529  -41.8815 H         1 UNK         0.0600 
    147 H147        2.1782  -22.7988  -43.0894 H         1 UNK         0.0600 
    148 H148        1.7680  -21.1429  -43.5042 H         1 UNK         0.0600 
    149 H149       -0.6185  -20.5760  -42.7432 H         1 UNK         0.3000 
    150 H150       -4.1476  -20.6247  -43.3839 H         1 UNK         0.0600 
    151 H151       -3.8367  -21.1387  -40.9605 H         1 UNK         0.0600 
    152 H152       -4.0908  -19.4182  -41.2164 H         1 UNK         0.0600 
    153 H153       -2.4725  -20.0299  -40.8849 H         1 UNK         0.0600 
    154 H154       -2.3954  -18.4615  -42.8428 H         1 UNK         0.3000 
    155 H155       -1.3258  -17.8579  -46.2172 H         1 UNK         0.0600 
    156 H156       -3.4075  -16.6335  -45.9930 H         1 UNK         0.0600 
    157 H157       -2.1080  -15.5880  -45.4390 H         1 UNK         0.0600 
    158 H158       -3.1652  -16.3850  -44.2742 H         1 UNK         0.0600 
    159 H159       -0.6048  -16.6728  -43.7119 H         1 UNK         0.3000 
    160 H160        2.0909  -18.8526  -42.9449 H         1 UNK         0.0600 
    161 H161        3.4392  -16.7838  -42.9975 H         1 UNK         0.0600 
    162 H162        2.2380  -15.9882  -44.0079 H         1 UNK         0.0600 
    163 H163        3.1458  -17.3595  -44.6311 H         1 UNK         0.0600 
    164 H164        0.9716  -16.3539  -41.9321 H         1 UNK         0.3000 
    165 H165       -1.2110  -17.9397  -39.5951 H         1 UNK         0.0600 
    166 H166        0.0967  -16.6034  -37.9653 H         1 UNK         0.0600 
    167 H167        1.0131  -18.0198  -38.4539 H         1 UNK         0.0600 
    168 H168        1.4237  -16.4420  -39.1163 H         1 UNK         0.0600 
    169 H169       -0.5106  -15.2036  -40.0498 H         1 UNK         0.3000 
    170 H170       -2.5745  -14.5591  -42.8222 H         1 UNK         0.0600 
    171 H171       -4.3476  -14.6314  -41.0582 H         1 UNK         0.0600 
    172 H172       -3.2679  -13.8193  -39.9308 H         1 UNK         0.0600 
    173 H173       -3.8270  -12.9864  -41.3824 H         1 UNK         0.0600 
    174 H174       -1.3734  -12.6994  -41.1253 H         1 UNK         0.3000 
    175 H175        0.4574  -11.5366  -42.1757 H         1 UNK         0.0600 
    176 H176        2.1839  -11.7176  -40.3712 H         1 UNK         0.0600 
    177 H177        0.6885  -12.4786  -39.8655 H         1 UNK         0.0600 
    178 H178        2.0403  -13.4747  -40.3902 H         1 UNK         0.0600 
    179 H179        3.0320  -12.7094  -42.4964 H         1 UNK         0.3000 
    180 H180        4.1199  -11.5343  -44.4857 H         1 UNK         0.0600 
    181 H181        3.5726  -14.4507  -45.3004 H         1 UNK         0.0600 
    182 H182        4.3193  -13.9506  -43.7873 H         1 UNK         0.0600 
    183 H183        5.1471  -13.6681  -45.3068 H         1 UNK         0.0600 
    184 H184        2.4546  -12.2933  -46.7780 H         1 UNK         0.3000 
    185 H185        2.9583  -10.7391  -48.7610 H         1 UNK         0.0600 
    186 H186        4.6882  -10.6288  -50.5672 H         1 UNK         0.0600 
    187 H187        5.0785   -9.5747  -49.2174 H         1 UNK         0.0600 
    188 H188        5.9351  -11.0953  -49.4119 H         1 UNK         0.0600 
    189 H189        2.6118  -12.8727  -49.2897 H         1 UNK         0.3000 
    190 H190       -2.3708  -21.6581  -46.3970 H         1 UNK         0.3000 
    191 H191       -3.9525  -22.9255  -48.3722 H         1 UNK         0.0600 
    192 H192       -4.8657  -21.1834  -46.8876 H         1 UNK         0.0600 
    193 H193       -4.6268  -22.2039  -45.4742 H         1 UNK         0.0600 
    194 H194       -5.8010  -22.6534  -46.7045 H         1 UNK         0.0600 
    195 H195       -2.7239  -24.1143  -45.2195 H         1 UNK         0.3000 
    196 H196       -4.0169  -26.6868  -45.3762 H         1 UNK         0.0600 
    197 H197       -1.6655  -25.7088  -43.6713 H         1 UNK         0.0600 
    198 H198       -2.5453  -27.2140  -43.4312 H         1 UNK         0.0600 
    199 H199       -3.3662  -25.6748  -43.2159 H         1 UNK         0.0600 
    200 H200       -0.6706  -25.5461  -46.0498 H         1 UNK         0.3000 
    201 H201        0.3243  -28.1653  -46.6192 H         1 UNK         0.0600 
    202 H202        1.5451  -25.4070  -47.1390 H         1 UNK         0.0600 
    203 H203        2.4126  -26.9370  -47.1895 H         1 UNK         0.0600 
    204 H204        1.7305  -26.3679  -45.6736 H         1 UNK         0.0600 
    205 H205       -0.5309  -25.4103  -48.7879 H         1 UNK         0.3000 
    206 H206        0.0410  -27.1412  -51.1752 H         1 UNK         0.0600 
    207 H207        1.7634  -25.3903  -50.7547 H         1 UNK         0.0600 
    208 H208        0.8565  -25.0367  -52.2164 H         1 UNK         0.0600 
    209 H209        0.5165  -24.1443  -50.7388 H         1 UNK         0.0600 
    210 H210       -2.3540  -25.2467  -49.5891 H         1 UNK         0.3000 
    211 H211       -4.3714  -24.4483  -50.0778 H         1 UNK         0.0600 
    212 H212       -4.3964  -26.1411  -52.6234 H         1 UNK         0.0600 
    213 H213       -5.7791  -25.4278  -51.8103 H         1 UNK         0.0600 
    214 H214       -4.8782  -26.7133  -51.0259 H         1 UNK         0.0600 
    215 H215       -2.0755  -22.9732  -50.6891 H         1 UNK         0.3000 
    216 H216       -2.3120  -21.7125  -53.2790 H         1 UNK         0.0600 
    217 H217       -0.1277  -21.9325  -52.2572 H         1 UNK         0.0600 
    218 H218       -0.5034  -20.2228  -52.3808 H         1 UNK         0.0600 
    219 H219       -0.6331  -21.0388  -50.8324 H         1 UNK         0.0600 
    220 H220       -2.9097  -20.4838  -49.9197 H         1 UNK         0.3000 
    221 H221       -4.2110  -18.0810  -50.8119 H         1 UNK         0.0600 
    222 H222       -4.0420  -19.4757  -48.1085 H         1 UNK         0.0600 
    223 H223       -3.2062  -18.0199  -48.6400 H         1 UNK         0.0600 
    224 H224       -4.9323  -17.9783  -48.3504 H         1 UNK         0.0600 
    225 H225       -6.3028  -17.6041  -51.0517 H         1 UNK         0.3000 
    226 H226       -8.4310  -17.6402  -51.4529 H         1 UNK         0.0600 
    227 H227       -8.6569  -19.9976  -49.5116 H         1 UNK         0.0600 
    228 H228       -8.7118  -18.2898  -49.0786 H         1 UNK         0.0600 
    229 H229       -9.9794  -18.9880  -50.0742 H         1 UNK         0.0600 
    230 H230       -7.2591  -21.0091  -51.5793 H         1 UNK         0.3000 
    231 H231       -9.2683  -21.8117  -53.5403 H         1 UNK         0.0600 
    232 H232       -8.6167  -23.3831  -51.8040 H         1 UNK         0.0600 
    233 H233       -6.9186  -23.2667  -52.2440 H         1 UNK         0.0600 
    234 H234       -8.0641  -24.0284  -53.3418 H         1 UNK         0.0600 
    235 H235       -6.1258  -20.3794  -53.8240 H         1 UNK         0.3000 
    236 H236       -6.1881  -20.7804  -56.7487 H         1 UNK         0.0600 
    237 H237       -4.6971  -22.5869  -55.9633 H         1 UNK         0.0600 
    238 H238       -3.7560  -21.3517  -56.7809 H         1 UNK         0.0600 
    239 H239       -3.7492  -21.4511  -55.0201 H         1 UNK         0.0600 
    240 H240       -3.2917  -19.4768  -55.4910 H         1 UNK         0.3000 
    241 H241       -3.8414  -16.9126  -56.6302 H         1 UNK         0.0600 
    242 H242       -4.2222  -18.0407  -53.2883 H         1 UNK         0.3800 
    243 H243       -4.6241  -16.4394  -52.6682 H         1 UNK         0.3800 
    244 H244       -1.6177  -17.7947  -56.8209 H         1 UNK         0.0800 
    245 H245       -1.5365  -16.3192  -55.9168 H         1 UNK         0.0800 
    246 H246        0.1022  -16.1648  -54.0800 H         1 UNK         0.0800 
    247 H247       -1.3319  -16.3631  -53.1025 H         1 UNK         0.0800 
@<TRIPOS>BOND
     1    1    2 1    
     2    1  127 1    
     3    1  128 1    
     4    1  129 1    
     5    2    3 2    
     6    2    4 am   BACKBONE|DICT|INTERRES
     7    4    5 1    
     8    4  130 1    
     9    5    6 1    
    10    5   65 1    
    11    5  131 1    
    12    6    7 1    
    13    6  132 1    
    14    6  133 1    
    15    7    8 1    
    16    8    9 1    
    17    8  134 1    
    18    8  135 1    
    19    9   10 ar   
    20    9   14 ar   
    21   10   11 ar   
    22   10  136 1    
    23   11   12 ar   
    24   11  126 1    
    25   12   13 ar   
    26   12  137 1    
    27   13   14 ar   
    28   13   15 1    
    29   14  138 1    
    30   15   16 1    
    31   15  139 1    
    32   15  140 1    
    33   16   17 1    
    34   17   18 1    
    35   17  141 1    
    36   17  142 1    
    37   18   19 1    
    38   18   67 1    
    39   18  143 1    
    40   19   20 am   BACKBONE|DICT|INTERRES
    41   19  144 1    
    42   20   21 2    
    43   20   22 1    
    44   22   23 1    
    45   22   24 1    
    46   22  145 1    
    47   23  146 1    
    48   23  147 1    
    49   23  148 1    
    50   24   25 am   BACKBONE|DICT|INTERRES
    51   24  149 1    
    52   25   26 2    
    53   25   27 1    
    54   27   28 1    
    55   27   29 1    
    56   27  150 1    
    57   28  151 1    
    58   28  152 1    
    59   28  153 1    
    60   29   30 am   BACKBONE|DICT|INTERRES
    61   29  154 1    
    62   30   31 2    
    63   30   32 1    
    64   32   33 1    
    65   32   34 1    
    66   32  155 1    
    67   33  156 1    
    68   33  157 1    
    69   33  158 1    
    70   34   35 am   BACKBONE|DICT|INTERRES
    71   34  159 1    
    72   35   36 2    
    73   35   37 1    
    74   37   38 1    
    75   37   39 1    
    76   37  160 1    
    77   38  161 1    
    78   38  162 1    
    79   38  163 1    
    80   39   40 am   BACKBONE|DICT|INTERRES
    81   39  164 1    
    82   40   41 2    
    83   40   42 1    
    84   42   43 1    
    85   42   44 1    
    86   42  165 1    
    87   43  166 1    
    88   43  167 1    
    89   43  168 1    
    90   44   45 am   BACKBONE|DICT|INTERRES
    91   44  169 1    
    92   45   46 2    
    93   45   47 1    
    94   47   48 1    
    95   47   49 1    
    96   47  170 1    
    97   48  171 1    
    98   48  172 1    
    99   48  173 1    
   100   49   50 am   BACKBONE|DICT|INTERRES
   101   49  174 1    
   102   50   51 2    
   103   50   52 1    
   104   52   53 1    
   105   52   54 1    
   106   52  175 1    
   107   53  176 1    
   108   53  177 1    
   109   53  178 1    
   110   54   55 am   BACKBONE|DICT|INTERRES
   111   54  179 1    
   112   55   56 2    
   113   55   57 1    
   114   57   58 1    
   115   57   59 1    
   116   57  180 1    
   117   58  181 1    
   118   58  182 1    
   119   58  183 1    
   120   59   60 am   BACKBONE|DICT|INTERRES
   121   59  184 1    
   122   60   61 2    
   123   60   62 1    
   124   62   63 1    
   125   62   64 1    
   126   62  185 1    
   127   63  186 1    
   128   63  187 1    
   129   63  188 1    
   130   64   65 am   BACKBONE|DICT|INTERRES
   131   64  189 1    
   132   65   66 2    
   133   67   68 2    
   134   67   69 am   BACKBONE|DICT|INTERRES
   135   69   70 1    
   136   69  190 1    
   137   70   71 1    
   138   70   72 1    
   139   70  191 1    
   140   71  192 1    
   141   71  193 1    
   142   71  194 1    
   143   72   73 2    
   144   72   74 am   BACKBONE|DICT|INTERRES
   145   74   75 1    
   146   74  195 1    
   147   75   76 1    
   148   75   77 1    
   149   75  196 1    
   150   76  197 1    
   151   76  198 1    
   152   76  199 1    
   153   77   78 2    
   154   77   79 am   BACKBONE|DICT|INTERRES
   155   79   80 1    
   156   79  200 1    
   157   80   81 1    
   158   80   82 1    
   159   80  201 1    
   160   81  202 1    
   161   81  203 1    
   162   81  204 1    
   163   82   83 2    
   164   82   84 am   BACKBONE|DICT|INTERRES
   165   84   85 1    
   166   84  205 1    
   167   85   86 1    
   168   85   87 1    
   169   85  206 1    
   170   86  207 1    
   171   86  208 1    
   172   86  209 1    
   173   87   88 2    
   174   87   89 am   BACKBONE|DICT|INTERRES
   175   89   90 1    
   176   89  210 1    
   177   90   91 1    
   178   90   92 1    
   179   90  211 1    
   180   91  212 1    
   181   91  213 1    
   182   91  214 1    
   183   92   93 2    
   184   92   94 am   BACKBONE|DICT|INTERRES
   185   94   95 1    
   186   94  215 1    
   187   95   96 1    
   188   95   97 1    
   189   95  216 1    
   190   96  217 1    
   191   96  218 1    
   192   96  219 1    
   193   97   98 2    
   194   97   99 am   BACKBONE|DICT|INTERRES
   195   99  100 1    
   196   99  220 1    
   197  100  101 1    
   198  100  102 1    
   199  100  221 1    
   200  101  222 1    
   201  101  223 1    
   202  101  224 1    
   203  102  103 2    
   204  102  104 am   BACKBONE|DICT|INTERRES
   205  104  105 1    
   206  104  225 1    
   207  105  106 1    
   208  105  107 1    
   209  105  226 1    
   210  106  227 1    
   211  106  228 1    
   212  106  229 1    
   213  107  108 2    
   214  107  109 am   BACKBONE|DICT|INTERRES
   215  109  110 1    
   216  109  230 1    
   217  110  111 1    
   218  110  112 1    
   219  110  231 1    
   220  111  232 1    
   221  111  233 1    
   222  111  234 1    
   223  112  113 2    
   224  112  114 am   BACKBONE|DICT|INTERRES
   225  114  115 1    
   226  114  235 1    
   227  115  116 1    
   228  115  117 1    
   229  115  236 1    
   230  116  237 1    
   231  116  238 1    
   232  116  239 1    
   233  117  118 2    
   234  117  119 am   BACKBONE|DICT|INTERRES
   235  119  120 1    
   236  119  240 1    
   237  120  121 1    
   238  120  124 1    
   239  120  241 1    
   240  121  122 am   BACKBONE|DICT|INTERRES
   241  121  123 2    
   242  122  242 1    
   243  122  243 1    
   244  124  125 1    
   245  124  244 1    
   246  124  245 1    
   247  125  126 1    
   248  126  246 1    
   249  126  247 1    
@<TRIPOS>SUBSTRUCTURE
     1 UNK         1 GROUP             0       ****    0 ROOT    
