@<TRIPOS>MOLECULE
3R540
247   249    1
SMALL
USER_CHARGES


@<TRIPOS>ATOM
      1 CA          1.1293  -12.6666  -49.2855 C.3       0 UNK        -0.1800 
      2 C           0.0756  -13.6940  -48.8976 C.2       0 UNK         0.5000 
      3 O           0.3334  -14.8941  -48.9838 O.2       0 UNK        -0.5000 
      4 N          -1.1060  -13.2239  -48.4801 N.am      1 UNK        -0.5000 
      5 CA         -2.2211  -14.0519  -48.0050 C.3       1 UNK         0.1400 
      6 C6         -3.5763  -13.2943  -48.0441 C.3       23 UNK        -0.0398 
      7 S7         -3.9219  -12.4699  -49.6393 S.3       23 UNK        -0.2404 
      8 C8         -4.7431  -13.7866  -50.6000 C.3       23 UNK        -0.0205 
      9 C9         -3.8165  -14.9557  -50.9109 C.ar      23 UNK        -0.0193 
     10 C10        -2.5872  -14.7390  -51.5415 C.ar      23 UNK        -0.1150 
     11 C11        -1.7150  -15.8017  -51.7918 C.ar      23 UNK        -0.0193 
     12 C12        -2.0910  -17.0961  -51.4181 C.ar      23 UNK        -0.1150 
     13 C13        -3.3317  -17.3352  -50.8215 C.ar      23 UNK        -0.0193 
     14 C14        -4.1880  -16.2586  -50.5680 C.ar      23 UNK        -0.1150 
     15 C15        -3.7749  -18.7570  -50.5037 C.3       23 UNK        -0.0205 
     16 S16        -4.1678  -18.9897  -48.7413 S.3       23 UNK        -0.2404 
     17 C17        -2.5681  -19.5057  -48.0142 C.3       23 UNK        -0.0398 
     18 CA         -2.4968  -20.9830  -47.5257 C.3       11 UNK         0.1400 
     19 N          -1.2783  -21.2344  -46.7497 N.am      11 UNK        -0.5000 
     20 C          -0.8911  -22.4306  -46.2733 C.2       10 UNK         0.5000 
     21 O          -1.4750  -23.4842  -46.5212 O.2       10 UNK        -0.5000 
     22 CA          0.3078  -22.4531  -45.3014 C.3       10 UNK         0.1400 
     23 CB          1.6162  -22.6651  -46.0755 C.3       10 UNK        -0.1800 
     24 N           0.4188  -21.2382  -44.4932 N.am      10 UNK        -0.5000 
     25 C          -0.5507  -20.7246  -43.7214 C.2       9 UNK         0.5000 
     26 O          -1.5919  -21.3266  -43.4541 O.2       9 UNK        -0.5000 
     27 CA         -0.3801  -19.2682  -43.2406 C.3       9 UNK         0.1400 
     28 CB         -0.1745  -19.2171  -41.7204 C.3       9 UNK        -0.1800 
     29 N           0.6889  -18.5112  -43.9057 N.am      9 UNK        -0.5000 
     30 C           0.8087  -18.2751  -45.2221 C.2       8 UNK         0.5000 
     31 O           0.0090  -18.6869  -46.0631 O.2       8 UNK        -0.5000 
     32 CA          2.0551  -17.4983  -45.6807 C.3       8 UNK         0.1400 
     33 CB          1.7609  -15.9945  -45.7639 C.3       8 UNK        -0.1800 
     34 N           3.2036  -17.7237  -44.8021 N.am      8 UNK        -0.5000 
     35 C           3.9278  -18.8519  -44.7712 C.2       7 UNK         0.5000 
     36 O           3.7162  -19.8195  -45.5022 O.2       7 UNK        -0.5000 
     37 CA          5.0633  -18.9143  -43.7317 C.3       7 UNK         0.1400 
     38 CB          6.3400  -18.2642  -44.2863 C.3       7 UNK        -0.1800 
     39 N           4.6961  -18.2603  -42.4749 N.am      7 UNK        -0.5000 
     40 C           3.8227  -18.7620  -41.5900 C.2       6 UNK         0.5000 
     41 O           3.3196  -19.8803  -41.6911 O.2       6 UNK        -0.5000 
     42 CA          3.4196  -17.8509  -40.4116 C.3       6 UNK         0.1400 
     43 CB          4.2819  -18.1544  -39.1773 C.3       6 UNK        -0.1800 
     44 N           3.5087  -16.4193  -40.7215 N.am      6 UNK        -0.5000 
     45 C           2.7621  -15.7913  -41.6390 C.2       5 UNK         0.5000 
     46 O           1.8977  -16.3513  -42.3159 O.2       5 UNK        -0.5000 
     47 CA          3.0974  -14.3185  -41.8996 C.3       5 UNK         0.1400 
     48 CB          4.3898  -14.2192  -42.7379 C.3       5 UNK        -0.1800 
     49 N           1.9874  -13.6844  -42.6074 N.am      5 UNK        -0.5000 
     50 C           1.8509  -12.3682  -42.8056 C.2       4 UNK         0.5000 
     51 O           2.6272  -11.5257  -42.3520 O.2       4 UNK        -0.5000 
     52 CA          0.6610  -11.9018  -43.6634 C.3       4 UNK         0.1400 
     53 CB          1.0545  -11.8836  -45.1497 C.3       4 UNK        -0.1800 
     54 N          -0.5587  -12.6949  -43.4866 N.am      4 UNK        -0.5000 
     55 C          -1.3187  -12.6702  -42.3804 C.2       3 UNK         0.5000 
     56 O          -1.0002  -12.0598  -41.3588 O.2       3 UNK        -0.5000 
     57 CA         -2.6821  -13.3950  -42.4113 C.3       3 UNK         0.1400 
     58 CB         -3.8290  -12.3716  -42.4445 C.3       3 UNK        -0.1800 
     59 N          -2.8481  -14.3063  -43.5431 N.am      3 UNK        -0.5000 
     60 C          -2.3367  -15.5410  -43.6034 C.2       2 UNK         0.5000 
     61 O          -1.6996  -16.0567  -42.6862 O.2       2 UNK        -0.5000 
     62 CA         -2.5692  -16.3413  -44.9036 C.3       2 UNK         0.1400 
     63 CB         -3.7631  -17.2898  -44.7267 C.3       2 UNK        -0.1800 
     64 N          -2.7533  -15.5666  -46.1389 N.am      2 UNK        -0.5000 
     65 C          -1.9348  -14.6061  -46.5921 C.2       1 UNK         0.5000 
     66 O          -1.0060  -14.1455  -45.9269 O.2       1 UNK        -0.5000 
     67 C          -3.7568  -21.4346  -46.7477 C.2       11 UNK         0.5000 
     68 O          -4.5744  -22.1668  -47.3028 O.2       11 UNK        -0.5000 
     69 N          -3.8794  -21.0375  -45.4734 N.am      12 UNK        -0.5000 
     70 CA         -5.0045  -21.4255  -44.6196 C.3       12 UNK         0.1400 
     71 CB         -5.0504  -20.5391  -43.3660 C.3       12 UNK        -0.1800 
     72 C          -4.9690  -22.9147  -44.2374 C.2       12 UNK         0.5000 
     73 O          -6.0189  -23.5577  -44.2161 O.2       12 UNK        -0.5000 
     74 N          -3.7658  -23.4366  -43.9626 N.am      13 UNK        -0.5000 
     75 CA         -3.5392  -24.8293  -43.5743 C.3       13 UNK         0.1400 
     76 CB         -2.0872  -24.9974  -43.1032 C.3       13 UNK        -0.1800 
     77 C          -3.8657  -25.8365  -44.6938 C.2       13 UNK         0.5000 
     78 O          -4.4903  -26.8625  -44.4220 O.2       13 UNK        -0.5000 
     79 N          -3.4400  -25.5281  -45.9256 N.am      14 UNK        -0.5000 
     80 CA         -3.5889  -26.3981  -47.0945 C.3       14 UNK         0.1400 
     81 CB         -2.3589  -26.2133  -47.9940 C.3       14 UNK        -0.1800 
     82 C          -4.8761  -26.1395  -47.8993 C.2       14 UNK         0.5000 
     83 O          -5.1111  -26.8497  -48.8769 O.2       14 UNK        -0.5000 
     84 N          -5.6634  -25.1245  -47.5118 N.am      15 UNK        -0.5000 
     85 CA         -6.8551  -24.6205  -48.2069 C.3       15 UNK         0.1400 
     86 CB         -7.9914  -25.6644  -48.2003 C.3       15 UNK        -0.1800 
     87 C          -6.5031  -24.1033  -49.6180 C.2       15 UNK         0.5000 
     88 O          -7.0382  -24.5765  -50.6212 O.2       15 UNK        -0.5000 
     89 N          -5.5509  -23.1635  -49.6430 N.am      16 UNK        -0.5000 
     90 CA         -4.9448  -22.4559  -50.7738 C.3       16 UNK         0.1400 
     91 CB         -6.0043  -21.7374  -51.6303 C.3       16 UNK        -0.1800 
     92 C          -3.9905  -23.2941  -51.6437 C.2       16 UNK         0.5000 
     93 O          -3.1984  -22.7018  -52.3738 O.2       16 UNK        -0.5000 
     94 N          -4.0339  -24.6304  -51.5459 N.am      17 UNK        -0.5000 
     95 CA         -3.2837  -25.5654  -52.3937 C.3       17 UNK         0.1400 
     96 CB         -3.7005  -27.0021  -52.0482 C.3       17 UNK        -0.1800 
     97 C          -1.7495  -25.4200  -52.3268 C.2       17 UNK         0.5000 
     98 O          -1.0721  -25.7054  -53.3145 O.2       17 UNK        -0.5000 
     99 N          -1.2311  -24.9557  -51.1818 N.am      18 UNK        -0.5000 
    100 CA         0.1934  -24.6963  -50.9549 C.3       18 UNK         0.1400 
    101 CB         0.4496  -24.5846  -49.4437 C.3       18 UNK        -0.1800 
    102 C          0.7231  -23.4391  -51.6732 C.2       18 UNK         0.5000 
    103 O          1.9401  -23.2880  -51.7886 O.2       18 UNK        -0.5000 
    104 N         -0.1759  -22.5559  -52.1248 N.am      19 UNK        -0.5000 
    105 CA         0.1523  -21.2786  -52.7525 C.3       19 UNK         0.1400 
    106 CB         0.2278  -20.1837  -51.6736 C.3       19 UNK        -0.1800 
    107 C         -0.8454  -20.9715  -53.8812 C.2       19 UNK         0.5000 
    108 O         -1.2738  -19.8288  -54.0448 O.2       19 UNK        -0.5000 
    109 N         -1.1943  -22.0089  -54.6568 N.am      20 UNK        -0.5000 
    110 CA        -2.1672  -21.9543  -55.7531 C.3       20 UNK         0.1400 
    111 CB        -2.4265  -23.3806  -56.2598 C.3       20 UNK        -0.1800 
    112 C         -1.7470  -21.0291  -56.9136 C.2       20 UNK         0.5000 
    113 O         -2.6091  -20.5240  -57.6348 O.2       20 UNK        -0.5000 
    114 N         -0.4344  -20.7834  -57.0397 N.am      21 UNK        -0.5000 
    115 CA         0.1846  -19.8481  -57.9817 C.3       21 UNK         0.1400 
    116 CB         1.7118  -19.9599  -57.8548 C.3       21 UNK        -0.1800 
    117 C         -0.2646  -18.3813  -57.8082 C.2       21 UNK         0.5000 
    118 O         -0.1373  -17.6025  -58.7542 O.2       21 UNK        -0.5000 
    119 N         -0.7976  -18.0319  -56.6287 N.am      22 UNK        -0.5000 
    120 CA        -1.4375  -16.7355  -56.3541 C.3       22 UNK         0.1400 
    121 C         -2.8051  -16.5342  -57.0756 C.2       22 UNK         0.5000 
    122 N         -3.4329  -17.5654  -57.6322 N.am      22 UNK        -0.7600 
    123 O         -3.3047  -15.4141  -57.1372 O.2       22 UNK        -0.5000 
    124 C124       -1.5974  -16.4775  -54.8350 C.3       23 UNK        -0.0398 
    125 S125       -0.0329  -16.6031  -53.9006 S.3       23 UNK        -0.2404 
    126 C126       -0.3688  -15.5345  -52.4593 C.3       23 UNK        -0.0205 
    127 H127        2.0077  -12.7746  -48.6492 H         1 UNK         0.0600 
    128 H128        0.7585  -11.6464  -49.1828 H         1 UNK         0.0600 
    129 H129        1.4348  -12.8156  -50.3212 H         1 UNK         0.0600 
    130 H130       -1.2530  -12.2271  -48.4258 H         1 UNK         0.3000 
    131 H131       -2.2926  -14.9189  -48.6625 H         1 UNK         0.0600 
    132 H132       -4.4037  -13.9686  -47.8175 H         1 UNK         0.0800 
    133 H133       -3.5976  -12.5218  -47.2731 H         1 UNK         0.0800 
    134 H134       -5.0974  -13.3644  -51.5412 H         1 UNK         0.0800 
    135 H135       -5.6301  -14.1212  -50.0598 H         1 UNK         0.0800 
    136 H136       -2.3019  -13.7332  -51.8162 H         1 UNK         0.1150 
    137 H137       -1.4266  -17.9197  -51.6264 H         1 UNK         0.1150 
    138 H138       -5.1470  -16.4407  -50.1035 H         1 UNK         0.1150 
    139 H139       -3.0319  -19.4891  -50.8225 H         1 UNK         0.0800 
    140 H140       -4.6729  -18.9684  -51.0853 H         1 UNK         0.0800 
    141 H141       -2.3767  -18.8325  -47.1789 H         1 UNK         0.0800 
    142 H142       -1.7651  -19.3136  -48.7271 H         1 UNK         0.0800 
    143 H143       -2.4382  -21.6144  -48.4148 H         1 UNK         0.0600 
    144 H144       -0.7376  -20.4126  -46.4923 H         1 UNK         0.3000 
    145 H145        0.1726  -23.2918  -44.6180 H         1 UNK         0.0600 
    146 H146        2.4670  -22.7461  -45.3987 H         1 UNK         0.0600 
    147 H147        1.5787  -23.5841  -46.6619 H         1 UNK         0.0600 
    148 H148        1.8143  -21.8421  -46.7638 H         1 UNK         0.0600 
    149 H149        1.2394  -20.6709  -44.6524 H         1 UNK         0.3000 
    150 H150       -1.3169  -18.7580  -43.4644 H         1 UNK         0.0600 
    151 H151        0.7240  -19.7527  -41.4174 H         1 UNK         0.0600 
    152 H152       -1.0168  -19.6729  -41.1986 H         1 UNK         0.0600 
    153 H153       -0.0935  -18.1888  -41.3668 H         1 UNK         0.0600 
    154 H154        1.3499  -18.0496  -43.2905 H         1 UNK         0.3000 
    155 H155        2.3151  -17.8469  -46.6826 H         1 UNK         0.0600 
    156 H156        1.3997  -15.5931  -44.8175 H         1 UNK         0.0600 
    157 H157        0.9919  -15.8019  -46.5111 H         1 UNK         0.0600 
    158 H158        2.6446  -15.4281  -46.0577 H         1 UNK         0.0600 
    159 H159        3.4063  -16.9974  -44.1324 H         1 UNK         0.3000 
    160 H160        5.2761  -19.9663  -43.5292 H         1 UNK         0.0600 
    161 H161        6.1967  -17.2029  -44.4939 H         1 UNK         0.0600 
    162 H162        6.6479  -18.7423  -45.2172 H         1 UNK         0.0600 
    163 H163        7.1680  -18.3602  -43.5837 H         1 UNK         0.0600 
    164 H164        5.0884  -17.3475  -42.3003 H         1 UNK         0.3000 
    165 H165        2.3797  -18.0759  -40.1655 H         1 UNK         0.0600 
    166 H166        3.9525  -17.5762  -38.3138 H         1 UNK         0.0600 
    167 H167        5.3337  -17.9261  -39.3544 H         1 UNK         0.0600 
    168 H168        4.2162  -19.2086  -38.9046 H         1 UNK         0.0600 
    169 H169        4.2052  -15.8938  -40.2125 H         1 UNK         0.3000 
    170 H170        3.2370  -13.8207  -40.9380 H         1 UNK         0.0600 
    171 H171        5.2231  -14.7228  -42.2469 H         1 UNK         0.0600 
    172 H172        4.2646  -14.6722  -43.7222 H         1 UNK         0.0600 
    173 H173        4.6938  -13.1834  -42.8870 H         1 UNK         0.0600 
    174 H174        1.2877  -14.3260  -42.9600 H         1 UNK         0.3000 
    175 H175        0.4314  -10.8750  -43.3705 H         1 UNK         0.0600 
    176 H176        1.3234  -12.8783  -45.5073 H         1 UNK         0.0600 
    177 H177        0.2392  -11.5137  -45.7717 H         1 UNK         0.0600 
    178 H178        1.9137  -11.2334  -45.3185 H         1 UNK         0.0600 
    179 H179       -0.8593  -13.2408  -44.2910 H         1 UNK         0.3000 
    180 H180       -2.7667  -13.9660  -41.4842 H         1 UNK         0.0600 
    181 H181       -3.8007  -11.7653  -43.3508 H         1 UNK         0.0600 
    182 H182       -3.7736  -11.6918  -41.5931 H         1 UNK         0.0600 
    183 H183       -4.8000  -12.8652  -42.3998 H         1 UNK         0.0600 
    184 H184       -3.3495  -13.9529  -44.3440 H         1 UNK         0.3000 
    185 H185       -1.6783  -16.9462  -45.0550 H         1 UNK         0.0600 
    186 H186       -3.8750  -17.9630  -45.5756 H         1 UNK         0.0600 
    187 H187       -3.6338  -17.9064  -43.8371 H         1 UNK         0.0600 
    188 H188       -4.6977  -16.7398  -44.6109 H         1 UNK         0.0600 
    189 H189       -3.5061  -15.8775  -46.7354 H         1 UNK         0.3000 
    190 H190       -3.1304  -20.5206  -45.0371 H         1 UNK         0.3000 
    191 H191       -5.9289  -21.2567  -45.1767 H         1 UNK         0.0600 
    192 H192       -5.8195  -20.8818  -42.6725 H         1 UNK         0.0600 
    193 H193       -5.2961  -19.5106  -43.6256 H         1 UNK         0.0600 
    194 H194       -4.1018  -20.5401  -42.8287 H         1 UNK         0.0600 
    195 H195       -2.9597  -22.8211  -43.9701 H         1 UNK         0.3000 
    196 H196       -4.1948  -25.0469  -42.7286 H         1 UNK         0.0600 
    197 H197       -1.3817  -24.8508  -43.9204 H         1 UNK         0.0600 
    198 H198       -1.8403  -24.2881  -42.3128 H         1 UNK         0.0600 
    199 H199       -1.9216  -25.9997  -42.7064 H         1 UNK         0.0600 
    200 H200       -2.8950  -24.6803  -46.0647 H         1 UNK         0.3000 
    201 H201       -3.6122  -27.4413  -46.7727 H         1 UNK         0.0600 
    202 H202       -2.3202  -25.2058  -48.4081 H         1 UNK         0.0600 
    203 H203       -2.3675  -26.9151  -48.8284 H         1 UNK         0.0600 
    204 H204       -1.4382  -26.3848  -47.4363 H         1 UNK         0.0600 
    205 H205       -5.3618  -24.5832  -46.7129 H         1 UNK         0.3000 
    206 H206       -7.2011  -23.7568  -47.6368 H         1 UNK         0.0600 
    207 H207       -8.2213  -25.9882  -47.1853 H         1 UNK         0.0600 
    208 H208       -8.9048  -25.2443  -48.6226 H         1 UNK         0.0600 
    209 H209       -7.7409  -26.5493  -48.7858 H         1 UNK         0.0600 
    210 H210       -5.1862  -22.8694  -48.7351 H         1 UNK         0.3000 
    211 H211       -4.3220  -21.6853  -50.3196 H         1 UNK         0.0600 
    212 H212       -5.5318  -21.1140  -52.3905 H         1 UNK         0.0600 
    213 H213       -6.6283  -21.0855  -51.0190 H         1 UNK         0.0600 
    214 H214       -6.6559  -22.4406  -52.1492 H         1 UNK         0.0600 
    215 H215       -4.7273  -25.0366  -50.9317 H         1 UNK         0.3000 
    216 H216       -3.5790  -25.3684  -53.4260 H         1 UNK         0.0600 
    217 H217       -3.4325  -27.2629  -51.0243 H         1 UNK         0.0600 
    218 H218       -3.2123  -27.7207  -52.7078 H         1 UNK         0.0600 
    219 H219       -4.7765  -27.1396  -52.1576 H         1 UNK         0.0600 
    220 H220       -1.8625  -24.7345  -50.4274 H         1 UNK         0.3000 
    221 H221        0.7638  -25.5472  -51.3331 H         1 UNK         0.0600 
    222 H222        0.2356  -25.5251  -48.9385 H         1 UNK         0.0600 
    223 H223       -0.1612  -23.8045  -48.9885 H         1 UNK         0.0600 
    224 H224        1.4934  -24.3451  -49.2363 H         1 UNK         0.0600 
    225 H225       -1.1675  -22.7615  -52.0470 H         1 UNK         0.3000 
    226 H226        1.1292  -21.3438  -53.2360 H         1 UNK         0.0600 
    227 H227       -0.7186  -20.0839  -51.1433 H         1 UNK         0.0600 
    228 H228        0.9981  -20.4105  -50.9366 H         1 UNK         0.0600 
    229 H229        0.4773  -19.2163  -52.1106 H         1 UNK         0.0600 
    230 H230       -0.8065  -22.9168  -54.4439 H         1 UNK         0.3000 
    231 H231       -3.1009  -21.5612  -55.3454 H         1 UNK         0.0600 
    232 H232       -1.5184  -23.8394  -56.6527 H         1 UNK         0.0600 
    233 H233       -3.1695  -23.3833  -57.0584 H         1 UNK         0.0600 
    234 H234       -2.8066  -24.0179  -55.4613 H         1 UNK         0.0600 
    235 H235        0.1888  -21.2444  -56.3939 H         1 UNK         0.3000 
    236 H236       -0.1012  -20.1572  -58.9890 H         1 UNK         0.0600 
    237 H237        2.0528  -20.9749  -58.0600 H         1 UNK         0.0600 
    238 H238        2.2130  -19.3011  -58.5653 H         1 UNK         0.0600 
    239 H239        2.0525  -19.6848  -56.8557 H         1 UNK         0.0600 
    240 H240       -0.8600  -18.7189  -55.8865 H         1 UNK         0.3000 
    241 H241       -0.7752  -15.9607  -56.7450 H         1 UNK         0.0600 
    242 H242       -4.3134  -17.4127  -58.0979 H         1 UNK         0.3800 
    243 H243       -3.0443  -18.5010  -57.5964 H         1 UNK         0.3800 
    244 H244       -2.3055  -17.1878  -54.4041 H         1 UNK         0.0800 
    245 H245       -2.0178  -15.4842  -54.6669 H         1 UNK         0.0800 
    246 H246       -0.3000  -14.4941  -52.7806 H         1 UNK         0.0800 
    247 H247        0.4216  -15.6802  -51.7220 H         1 UNK         0.0800 
@<TRIPOS>BOND
     1    1    2 1    
     2    1  127 1    
     3    1  128 1    
     4    1  129 1    
     5    2    3 2    
     6    2    4 am   BACKBONE|DICT|INTERRES
     7    4    5 1    
     8    4  130 1    
     9    5    6 1    
    10    5   65 1    
    11    5  131 1    
    12    6    7 1    
    13    6  132 1    
    14    6  133 1    
    15    7    8 1    
    16    8    9 1    
    17    8  134 1    
    18    8  135 1    
    19    9   10 ar   
    20    9   14 ar   
    21   10   11 ar   
    22   10  136 1    
    23   11   12 ar   
    24   11  126 1    
    25   12   13 ar   
    26   12  137 1    
    27   13   14 ar   
    28   13   15 1    
    29   14  138 1    
    30   15   16 1    
    31   15  139 1    
    32   15  140 1    
    33   16   17 1    
    34   17   18 1    
    35   17  141 1    
    36   17  142 1    
    37   18   19 1    
    38   18   67 1    
    39   18  143 1    
    40   19   20 am   BACKBONE|DICT|INTERRES
    41   19  144 1    
    42   20   21 2    
    43   20   22 1    
    44   22   23 1    
    45   22   24 1    
    46   22  145 1    
    47   23  146 1    
    48   23  147 1    
    49   23  148 1    
    50   24   25 am   BACKBONE|DICT|INTERRES
    51   24  149 1    
    52   25   26 2    
    53   25   27 1    
    54   27   28 1    
    55   27   29 1    
    56   27  150 1    
    57   28  151 1    
    58   28  152 1    
    59   28  153 1    
    60   29   30 am   BACKBONE|DICT|INTERRES
    61   29  154 1    
    62   30   31 2    
    63   30   32 1    
    64   32   33 1    
    65   32   34 1    
    66   32  155 1    
    67   33  156 1    
    68   33  157 1    
    69   33  158 1    
    70   34   35 am   BACKBONE|DICT|INTERRES
    71   34  159 1    
    72   35   36 2    
    73   35   37 1    
    74   37   38 1    
    75   37   39 1    
    76   37  160 1    
    77   38  161 1    
    78   38  162 1    
    79   38  163 1    
    80   39   40 am   BACKBONE|DICT|INTERRES
    81   39  164 1    
    82   40   41 2    
    83   40   42 1    
    84   42   43 1    
    85   42   44 1    
    86   42  165 1    
    87   43  166 1    
    88   43  167 1    
    89   43  168 1    
    90   44   45 am   BACKBONE|DICT|INTERRES
    91   44  169 1    
    92   45   46 2    
    93   45   47 1    
    94   47   48 1    
    95   47   49 1    
    96   47  170 1    
    97   48  171 1    
    98   48  172 1    
    99   48  173 1    
   100   49   50 am   BACKBONE|DICT|INTERRES
   101   49  174 1    
   102   50   51 2    
   103   50   52 1    
   104   52   53 1    
   105   52   54 1    
   106   52  175 1    
   107   53  176 1    
   108   53  177 1    
   109   53  178 1    
   110   54   55 am   BACKBONE|DICT|INTERRES
   111   54  179 1    
   112   55   56 2    
   113   55   57 1    
   114   57   58 1    
   115   57   59 1    
   116   57  180 1    
   117   58  181 1    
   118   58  182 1    
   119   58  183 1    
   120   59   60 am   BACKBONE|DICT|INTERRES
   121   59  184 1    
   122   60   61 2    
   123   60   62 1    
   124   62   63 1    
   125   62   64 1    
   126   62  185 1    
   127   63  186 1    
   128   63  187 1    
   129   63  188 1    
   130   64   65 am   BACKBONE|DICT|INTERRES
   131   64  189 1    
   132   65   66 2    
   133   67   68 2    
   134   67   69 am   BACKBONE|DICT|INTERRES
   135   69   70 1    
   136   69  190 1    
   137   70   71 1    
   138   70   72 1    
   139   70  191 1    
   140   71  192 1    
   141   71  193 1    
   142   71  194 1    
   143   72   73 2    
   144   72   74 am   BACKBONE|DICT|INTERRES
   145   74   75 1    
   146   74  195 1    
   147   75   76 1    
   148   75   77 1    
   149   75  196 1    
   150   76  197 1    
   151   76  198 1    
   152   76  199 1    
   153   77   78 2    
   154   77   79 am   BACKBONE|DICT|INTERRES
   155   79   80 1    
   156   79  200 1    
   157   80   81 1    
   158   80   82 1    
   159   80  201 1    
   160   81  202 1    
   161   81  203 1    
   162   81  204 1    
   163   82   83 2    
   164   82   84 am   BACKBONE|DICT|INTERRES
   165   84   85 1    
   166   84  205 1    
   167   85   86 1    
   168   85   87 1    
   169   85  206 1    
   170   86  207 1    
   171   86  208 1    
   172   86  209 1    
   173   87   88 2    
   174   87   89 am   BACKBONE|DICT|INTERRES
   175   89   90 1    
   176   89  210 1    
   177   90   91 1    
   178   90   92 1    
   179   90  211 1    
   180   91  212 1    
   181   91  213 1    
   182   91  214 1    
   183   92   93 2    
   184   92   94 am   BACKBONE|DICT|INTERRES
   185   94   95 1    
   186   94  215 1    
   187   95   96 1    
   188   95   97 1    
   189   95  216 1    
   190   96  217 1    
   191   96  218 1    
   192   96  219 1    
   193   97   98 2    
   194   97   99 am   BACKBONE|DICT|INTERRES
   195   99  100 1    
   196   99  220 1    
   197  100  101 1    
   198  100  102 1    
   199  100  221 1    
   200  101  222 1    
   201  101  223 1    
   202  101  224 1    
   203  102  103 2    
   204  102  104 am   BACKBONE|DICT|INTERRES
   205  104  105 1    
   206  104  225 1    
   207  105  106 1    
   208  105  107 1    
   209  105  226 1    
   210  106  227 1    
   211  106  228 1    
   212  106  229 1    
   213  107  108 2    
   214  107  109 am   BACKBONE|DICT|INTERRES
   215  109  110 1    
   216  109  230 1    
   217  110  111 1    
   218  110  112 1    
   219  110  231 1    
   220  111  232 1    
   221  111  233 1    
   222  111  234 1    
   223  112  113 2    
   224  112  114 am   BACKBONE|DICT|INTERRES
   225  114  115 1    
   226  114  235 1    
   227  115  116 1    
   228  115  117 1    
   229  115  236 1    
   230  116  237 1    
   231  116  238 1    
   232  116  239 1    
   233  117  118 2    
   234  117  119 am   BACKBONE|DICT|INTERRES
   235  119  120 1    
   236  119  240 1    
   237  120  121 1    
   238  120  124 1    
   239  120  241 1    
   240  121  122 am   BACKBONE|DICT|INTERRES
   241  121  123 2    
   242  122  242 1    
   243  122  243 1    
   244  124  125 1    
   245  124  244 1    
   246  124  245 1    
   247  125  126 1    
   248  126  246 1    
   249  126  247 1    
@<TRIPOS>SUBSTRUCTURE
     1 UNK         1 GROUP             0       ****    0 ROOT    
