@<TRIPOS>MOLECULE
3R540
247   249    1
SMALL
USER_CHARGES


@<TRIPOS>ATOM
      1 CA          7.0113  -11.9645  -47.6236 C.3       0 UNK        -0.1800 
      2 C           6.2164  -13.2091  -47.2569 C.2       0 UNK         0.5000 
      3 O           6.3453  -13.7138  -46.1419 O.2       0 UNK        -0.5000 
      4 N           5.3831  -13.6993  -48.1839 N.am      1 UNK        -0.5000 
      5 CA          4.5321  -14.8859  -48.0143 C.3       1 UNK         0.1400 
      6 C6          3.9212  -15.3570  -49.3567 C.3       23 UNK        -0.0398 
      7 S7          2.9127  -14.0912  -50.2149 S.3       23 UNK        -0.2404 
      8 C8          2.4646  -14.9551  -51.7551 C.3       23 UNK        -0.0205 
      9 C9          1.5489  -16.1406  -51.4918 C.ar      23 UNK        -0.0193 
     10 C10         0.1629  -15.9686  -51.4202 C.ar      23 UNK        -0.1150 
     11 C11        -0.6735  -17.0564  -51.1479 C.ar      23 UNK        -0.0193 
     12 C12        -0.1118  -18.3172  -50.9277 C.ar      23 UNK        -0.1150 
     13 C13         1.2716  -18.4989  -51.0005 C.ar      23 UNK        -0.0193 
     14 C14         2.0935  -17.4130  -51.3049 C.ar      23 UNK        -0.1150 
     15 C15         1.8864  -19.8619  -50.7333 C.3       23 UNK        -0.0205 
     16 S16         2.7819  -19.9124  -49.1459 S.3       23 UNK        -0.2404 
     17 C17         1.4896  -19.5063  -47.9186 C.3       23 UNK        -0.0398 
     18 CA          0.6920  -20.7546  -47.4559 C.3       11 UNK         0.1400 
     19 N           0.5408  -20.8193  -45.9998 N.am      11 UNK        -0.5000 
     20 C           0.2623  -21.9454  -45.3275 C.2       10 UNK         0.5000 
     21 O           0.1205  -23.0467  -45.8603 O.2       10 UNK        -0.5000 
     22 CA          0.0832  -21.8236  -43.8045 C.3       10 UNK         0.1400 
     23 CB          1.4459  -21.8135  -43.0963 C.3       10 UNK        -0.1800 
     24 N          -0.6930  -20.6470  -43.4116 N.am      10 UNK        -0.5000 
     25 C          -1.9754  -20.4440  -43.7460 C.2       9 UNK         0.5000 
     26 O          -2.6403  -21.2359  -44.4127 O.2       9 UNK        -0.5000 
     27 CA         -2.6175  -19.1219  -43.2933 C.3       9 UNK         0.1400 
     28 CB         -3.0400  -19.2006  -41.8188 C.3       9 UNK        -0.1800 
     29 N          -1.7471  -17.9645  -43.4950 N.am      9 UNK        -0.5000 
     30 C          -1.2969  -17.5419  -44.6857 C.2       8 UNK         0.5000 
     31 O          -1.5722  -18.0804  -45.7571 O.2       8 UNK        -0.5000 
     32 CA         -0.3274  -16.3476  -44.6669 C.3       8 UNK         0.1400 
     33 CB         -1.0800  -15.0440  -44.3521 C.3       8 UNK        -0.1800 
     34 N           0.7580  -16.5377  -43.7056 N.am      8 UNK        -0.5000 
     35 C           1.6291  -17.5587  -43.7249 C.2       7 UNK         0.5000 
     36 O           1.6333  -18.4523  -44.5725 O.2       7 UNK        -0.5000 
     37 CA          2.6172  -17.6298  -42.5498 C.3       7 UNK         0.1400 
     38 CB          3.7813  -16.6446  -42.7441 C.3       7 UNK        -0.1800 
     39 N           1.9529  -17.3768  -41.2700 N.am      7 UNK        -0.5000 
     40 C           1.0437  -18.1932  -40.7158 C.2       6 UNK         0.5000 
     41 O           0.6972  -19.2671  -41.2060 O.2       6 UNK        -0.5000 
     42 CA          0.3774  -17.7062  -39.4169 C.3       6 UNK         0.1400 
     43 CB          1.2744  -17.9949  -38.2041 C.3       6 UNK        -0.1800 
     44 N           0.0565  -16.2796  -39.4564 N.am      6 UNK        -0.5000 
     45 C          -0.8485  -15.7281  -40.2776 C.2       5 UNK         0.5000 
     46 O          -1.5461  -16.3726  -41.0596 O.2       5 UNK        -0.5000 
     47 CA         -0.9512  -14.1919  -40.2561 C.3       5 UNK         0.1400 
     48 CB         -1.9403  -13.7307  -39.1756 C.3       5 UNK        -0.1800 
     49 N           0.3427  -13.5341  -40.0473 N.am      5 UNK        -0.5000 
     50 C           1.3751  -13.6183  -40.8952 C.2       4 UNK         0.5000 
     51 O           1.3494  -14.2703  -41.9442 O.2       4 UNK        -0.5000 
     52 CA          2.6635  -12.8950  -40.4846 C.3       4 UNK         0.1400 
     53 CB          3.5176  -13.7811  -39.5633 C.3       4 UNK        -0.1800 
     54 N           3.4076  -12.6049  -41.7004 N.am      4 UNK        -0.5000 
     55 C           4.0635  -11.4745  -41.9783 C.2       3 UNK         0.5000 
     56 O           4.2509  -10.5716  -41.1617 O.2       3 UNK        -0.5000 
     57 CA          4.5824  -11.3167  -43.4235 C.3       3 UNK         0.1400 
     58 CB          6.0868  -11.6200  -43.4884 C.3       3 UNK        -0.1800 
     59 N           3.8786  -12.1629  -44.3960 N.am      3 UNK        -0.5000 
     60 C           2.5890  -12.0238  -44.7428 C.2       2 UNK         0.5000 
     61 O           1.8692  -11.1181  -44.3201 O.2       2 UNK        -0.5000 
     62 CA          2.0194  -13.0730  -45.7142 C.3       2 UNK         0.1400 
     63 CB          0.7645  -12.5853  -46.4615 C.3       2 UNK        -0.1800 
     64 N           3.0298  -13.4649  -46.6910 N.am      2 UNK        -0.5000 
     65 C           3.4407  -14.7150  -46.9334 C.2       1 UNK         0.5000 
     66 O           3.0108  -15.7065  -46.3451 O.2       1 UNK        -0.5000 
     67 C          -0.6649  -20.8757  -48.1820 C.2       11 UNK         0.5000 
     68 O          -0.7316  -21.5191  -49.2278 O.2       11 UNK        -0.5000 
     69 N          -1.7300  -20.2843  -47.6184 N.am      12 UNK        -0.5000 
     70 CA         -3.0999  -20.4151  -48.1235 C.3       12 UNK         0.1400 
     71 CB         -4.0224  -19.4236  -47.4007 C.3       12 UNK        -0.1800 
     72 C          -3.6413  -21.8514  -48.0024 C.2       12 UNK         0.5000 
     73 O          -4.3727  -22.2975  -48.8857 O.2       12 UNK        -0.5000 
     74 N          -3.2517  -22.5594  -46.9339 N.am      13 UNK        -0.5000 
     75 CA         -3.4729  -23.9914  -46.7697 C.3       13 UNK         0.1400 
     76 CB         -3.1825  -24.4060  -45.3165 C.3       13 UNK        -0.1800 
     77 C          -2.6444  -24.7842  -47.7960 C.2       13 UNK         0.5000 
     78 O          -3.2005  -25.2059  -48.8096 O.2       13 UNK        -0.5000 
     79 N          -1.3379  -24.9432  -47.5337 N.am      14 UNK        -0.5000 
     80 CA         -0.3428  -25.6497  -48.3495 C.3       14 UNK         0.1400 
     81 CB          0.1415  -24.7297  -49.4897 C.3       14 UNK        -0.1800 
     82 C          -0.8307  -27.0385  -48.8240 C.2       14 UNK         0.5000 
     83 O          -1.0402  -27.9192  -47.9882 O.2       14 UNK        -0.5000 
     84 N          -1.0340  -27.1948  -50.1381 N.am      15 UNK        -0.5000 
     85 CA         -1.6016  -28.3764  -50.7873 C.3       15 UNK         0.1400 
     86 CB         -0.6126  -28.8779  -51.8558 C.3       15 UNK        -0.1800 
     87 C          -2.9901  -28.0375  -51.3680 C.2       15 UNK         0.5000 
     88 O          -3.2678  -28.3441  -52.5284 O.2       15 UNK        -0.5000 
     89 N          -3.8224  -27.3821  -50.5458 N.am      16 UNK        -0.5000 
     90 CA         -5.1434  -26.8217  -50.8498 C.3       16 UNK         0.1400 
     91 CB         -6.1461  -27.9169  -51.2715 C.3       16 UNK        -0.1800 
     92 C          -5.0503  -25.6527  -51.8497 C.2       16 UNK         0.5000 
     93 O          -5.7894  -25.6150  -52.8342 O.2       16 UNK        -0.5000 
     94 N          -4.1323  -24.7132  -51.5792 N.am      17 UNK        -0.5000 
     95 CA         -3.8680  -23.5481  -52.4291 C.3       17 UNK         0.1400 
     96 CB         -2.5990  -22.8268  -51.9534 C.3       17 UNK        -0.1800 
     97 C          -5.0593  -22.5774  -52.5173 C.2       17 UNK         0.5000 
     98 O          -5.3291  -22.0461  -53.5951 O.2       17 UNK        -0.5000 
     99 N          -5.7837  -22.3984  -51.4042 N.am      18 UNK        -0.5000 
    100 CA        -6.9847  -21.5654  -51.2935 C.3       18 UNK         0.1400 
    101 CB        -7.4712  -21.5600  -49.8366 C.3       18 UNK        -0.1800 
    102 C         -8.1334  -21.9719  -52.2378 C.2       18 UNK         0.5000 
    103 O         -8.9122  -21.1057  -52.6355 O.2       18 UNK        -0.5000 
    104 N         -8.1957  -23.2534  -52.6307 N.am      19 UNK        -0.5000 
    105 CA        -9.1551  -23.7714  -53.6127 C.3       19 UNK         0.1400 
    106 CB        -9.1295  -25.3071  -53.5909 C.3       19 UNK        -0.1800 
    107 C         -8.9059  -23.2428  -55.0415 C.2       19 UNK         0.5000 
    108 O         -9.8408  -23.1990  -55.8415 O.2       19 UNK        -0.5000 
    109 N         -7.6648  -22.8244  -55.3216 N.am      20 UNK        -0.5000 
    110 CA        -7.2407  -22.1576  -56.5528 C.3       20 UNK         0.1400 
    111 CB        -5.9612  -22.8483  -57.0568 C.3       20 UNK        -0.1800 
    112 C         -7.0038  -20.6496  -56.3212 C.2       20 UNK         0.5000 
    113 O         -6.3867  -19.9978  -57.1665 O.2       20 UNK        -0.5000 
    114 N         -7.4491  -20.1271  -55.1647 N.am      21 UNK        -0.5000 
    115 CA        -7.2617  -18.7573  -54.6672 C.3       21 UNK         0.1400 
    116 CB        -8.1240  -17.7726  -55.4832 C.3       21 UNK        -0.1800 
    117 C         -5.7767  -18.3344  -54.5892 C.2       21 UNK         0.5000 
    118 O         -5.4623  -17.1643  -54.8090 O.2       21 UNK        -0.5000 
    119 N         -4.9032  -19.3176  -54.3240 N.am      22 UNK        -0.5000 
    120 CA        -3.4334  -19.2786  -54.3931 C.3       22 UNK         0.1400 
    121 C         -2.8155  -18.7720  -55.7344 C.2       22 UNK         0.5000 
    122 N         -3.5372  -18.8190  -56.8494 N.am      22 UNK        -0.7600 
    123 O         -1.6534  -18.3785  -55.7841 O.2       22 UNK        -0.5000 
    124 C124       -2.7493  -18.7541  -53.0985 C.3       23 UNK        -0.0398 
    125 S125       -2.9522  -16.9779  -52.7279 S.3       23 UNK        -0.2404 
    126 C126       -2.1819  -16.8692  -51.0808 C.3       23 UNK        -0.0205 
    127 H127        8.0763  -12.1419  -47.4743 H         1 UNK         0.0600 
    128 H128        6.7116  -11.1284  -46.9920 H         1 UNK         0.0600 
    129 H129        6.8573  -11.6776  -48.6641 H         1 UNK         0.0600 
    130 H130        5.3068  -13.2377  -49.0797 H         1 UNK         0.3000 
    131 H131        5.1817  -15.6894  -47.6601 H         1 UNK         0.0600 
    132 H132        3.3115  -16.2455  -49.1860 H         1 UNK         0.0800 
    133 H133        4.7212  -15.6698  -50.0289 H         1 UNK         0.0800 
    134 H134        1.9694  -14.2501  -52.4244 H         1 UNK         0.0800 
    135 H135        3.3707  -15.2782  -52.2701 H         1 UNK         0.0800 
    136 H136       -0.2648  -14.9877  -51.5735 H         1 UNK         0.1150 
    137 H137       -0.7527  -19.1575  -50.7008 H         1 UNK         0.1150 
    138 H138        3.1639  -17.5542  -51.3590 H         1 UNK         0.1150 
    139 H139        1.1298  -20.6456  -50.7573 H         1 UNK         0.0800 
    140 H140        2.5861  -20.0995  -51.5358 H         1 UNK         0.0800 
    141 H141        0.8442  -18.7040  -48.2794 H         1 UNK         0.0800 
    142 H142        2.0240  -19.0684  -47.0755 H         1 UNK         0.0800 
    143 H143        1.2645  -21.6420  -47.7358 H         1 UNK         0.0600 
    144 H144        0.6803  -19.9563  -45.4817 H         1 UNK         0.3000 
    145 H145       -0.4636  -22.7065  -43.4672 H         1 UNK         0.0600 
    146 H146        1.3263  -21.8419  -42.0132 H         1 UNK         0.0600 
    147 H147        2.0408  -22.6827  -43.3795 H         1 UNK         0.0600 
    148 H148        2.0237  -20.9234  -43.3461 H         1 UNK         0.0600 
    149 H149       -0.2198  -19.9662  -42.8252 H         1 UNK         0.3000 
    150 H150       -3.5154  -18.9676  -43.8949 H         1 UNK         0.0600 
    151 H151       -3.6963  -20.0541  -41.6444 H         1 UNK         0.0600 
    152 H152       -3.5838  -18.3053  -41.5172 H         1 UNK         0.0600 
    153 H153       -2.1786  -19.3062  -41.1584 H         1 UNK         0.0600 
    154 H154       -1.4905  -17.4433  -42.6609 H         1 UNK         0.3000 
    155 H155        0.1250  -16.2562  -45.6568 H         1 UNK         0.0600 
    156 H156       -1.7820  -14.8012  -45.1505 H         1 UNK         0.0600 
    157 H157       -0.4006  -14.2004  -44.2457 H         1 UNK         0.0600 
    158 H158       -1.6518  -15.1167  -43.4274 H         1 UNK         0.0600 
    159 H159        0.8510  -15.8362  -42.9772 H         1 UNK         0.3000 
    160 H160        3.0311  -18.6401  -42.5213 H         1 UNK         0.0600 
    161 H161        3.4399  -15.6113  -42.7932 H         1 UNK         0.0600 
    162 H162        4.3115  -16.8528  -43.6744 H         1 UNK         0.0600 
    163 H163        4.5048  -16.7217  -41.9325 H         1 UNK         0.0600 
    164 H164        2.1394  -16.4897  -40.8287 H         1 UNK         0.3000 
    165 H165       -0.5553  -18.2607  -39.2925 H         1 UNK         0.0600 
    166 H166        0.7771  -17.7234  -37.2728 H         1 UNK         0.0600 
    167 H167        1.5180  -19.0565  -38.1437 H         1 UNK         0.0600 
    168 H168        2.2148  -17.4445  -38.2558 H         1 UNK         0.0600 
    169 H169        0.5820  -15.6744  -38.8435 H         1 UNK         0.3000 
    170 H170       -1.3350  -13.8740  -41.2278 H         1 UNK         0.0600 
    171 H171       -2.9182  -14.1921  -39.3199 H         1 UNK         0.0600 
    172 H172       -1.5971  -13.9947  -38.1745 H         1 UNK         0.0600 
    173 H173       -2.0844  -12.6507  -39.2080 H         1 UNK         0.0600 
    174 H174        0.4394  -12.9859  -39.2045 H         1 UNK         0.3000 
    175 H175        2.3973  -11.9690  -39.9704 H         1 UNK         0.0600 
    176 H176        3.7898  -14.7207  -40.0458 H         1 UNK         0.0600 
    177 H177        4.4398  -13.2744  -39.2784 H         1 UNK         0.0600 
    178 H178        2.9835  -14.0236  -38.6439 H         1 UNK         0.0600 
    179 H179        3.2412  -13.2624  -42.4503 H         1 UNK         0.3000 
    180 H180        4.4315  -10.2741  -43.7107 H         1 UNK         0.0600 
    181 H181        6.2959  -12.6668  -43.2643 H         1 UNK         0.0600 
    182 H182        6.6416  -11.0126  -42.7722 H         1 UNK         0.0600 
    183 H183        6.4907  -11.4013  -44.4765 H         1 UNK         0.0600 
    184 H184        4.4128  -12.9182  -44.8056 H         1 UNK         0.3000 
    185 H185        1.7413  -13.9291  -45.0975 H         1 UNK         0.0600 
    186 H186       -0.0277  -12.3032  -45.7673 H         1 UNK         0.0600 
    187 H187        0.9816  -11.7170  -47.0844 H         1 UNK         0.0600 
    188 H188        0.3649  -13.3684  -47.1062 H         1 UNK         0.0600 
    189 H189        3.4560  -12.7154  -47.2177 H         1 UNK         0.3000 
    190 H190       -1.6044  -19.7082  -46.7903 H         1 UNK         0.3000 
    191 H191       -3.0922  -20.1566  -49.1846 H         1 UNK         0.0600 
    192 H192       -3.6955  -18.3956  -47.5582 H         1 UNK         0.0600 
    193 H193       -5.0454  -19.4999  -47.7713 H         1 UNK         0.0600 
    194 H194       -4.0461  -19.6077  -46.3263 H         1 UNK         0.0600 
    195 H195       -2.7156  -22.0944  -46.2086 H         1 UNK         0.3000 
    196 H196       -4.5263  -24.2002  -46.9680 H         1 UNK         0.0600 
    197 H197       -3.2930  -25.4834  -45.1876 H         1 UNK         0.0600 
    198 H198       -3.8782  -23.9238  -44.6295 H         1 UNK         0.0600 
    199 H199       -2.1748  -24.1366  -45.0019 H         1 UNK         0.0600 
    200 H200       -0.9606  -24.4800  -46.7126 H         1 UNK         0.3000 
    201 H201        0.5112  -25.8385  -47.6977 H         1 UNK         0.0600 
    202 H202       -0.6811  -24.3963  -50.1220 H         1 UNK         0.0600 
    203 H203        0.8797  -25.2255  -50.1212 H         1 UNK         0.0600 
    204 H204        0.6225  -23.8402  -49.0838 H         1 UNK         0.0600 
    205 H205       -0.8735  -26.3989  -50.7388 H         1 UNK         0.3000 
    206 H206       -1.7501  -29.1803  -50.0637 H         1 UNK         0.0600 
    207 H207       -0.4477  -28.1319  -52.6342 H         1 UNK         0.0600 
    208 H208        0.3541  -29.1190  -51.4133 H         1 UNK         0.0600 
    209 H209       -0.9817  -29.7837  -52.3384 H         1 UNK         0.0600 
    210 H210       -3.4475  -27.0857  -49.6516 H         1 UNK         0.3000 
    211 H211       -5.5110  -26.3909  -49.9173 H         1 UNK         0.0600 
    212 H212       -5.8903  -28.3587  -52.2347 H         1 UNK         0.0600 
    213 H213       -7.1524  -27.5061  -51.3621 H         1 UNK         0.0600 
    214 H214       -6.1879  -28.7184  -50.5342 H         1 UNK         0.0600 
    215 H215       -3.6140  -24.7858  -50.7083 H         1 UNK         0.3000 
    216 H216       -3.6815  -23.9140  -53.4409 H         1 UNK         0.0600 
    217 H217       -2.4110  -21.9280  -52.5414 H         1 UNK         0.0600 
    218 H218       -1.7236  -23.4668  -52.0576 H         1 UNK         0.0600 
    219 H219       -2.6706  -22.5261  -50.9088 H         1 UNK         0.0600 
    220 H220       -5.4277  -22.7884  -50.5368 H         1 UNK         0.3000 
    221 H221       -6.6981  -20.5459  -51.5592 H         1 UNK         0.0600 
    222 H222       -7.6677  -22.5699  -49.4749 H         1 UNK         0.0600 
    223 H223       -6.7345  -21.1032  -49.1765 H         1 UNK         0.0600 
    224 H224       -8.3930  -20.9863  -49.7307 H         1 UNK         0.0600 
    225 H225       -7.4943  -23.9006  -52.2972 H         1 UNK         0.3000 
    226 H226      -10.1527  -23.4455  -53.3111 H         1 UNK         0.0600 
    227 H227       -9.3029  -25.6939  -52.5866 H         1 UNK         0.0600 
    228 H228       -9.9075  -25.7170  -54.2361 H         1 UNK         0.0600 
    229 H229       -8.1757  -25.6996  -53.9437 H         1 UNK         0.0600 
    230 H230       -6.9596  -22.8741  -54.5944 H         1 UNK         0.3000 
    231 H231       -8.0077  -22.2499  -57.3238 H         1 UNK         0.0600 
    232 H232       -6.1250  -23.9148  -57.2118 H         1 UNK         0.0600 
    233 H233       -5.1388  -22.7352  -56.3491 H         1 UNK         0.0600 
    234 H234       -5.6356  -22.4300  -58.0099 H         1 UNK         0.0600 
    235 H235       -7.9502  -20.7412  -54.5350 H         1 UNK         0.3000 
    236 H236       -7.6319  -18.7496  -53.6412 H         1 UNK         0.0600 
    237 H237       -8.1002  -16.7738  -55.0459 H         1 UNK         0.0600 
    238 H238       -7.7752  -17.6882  -56.5129 H         1 UNK         0.0600 
    239 H239       -9.1668  -18.0891  -55.5071 H         1 UNK         0.0600 
    240 H240       -5.2794  -20.2486  -54.1670 H         1 UNK         0.3000 
    241 H241       -3.1741  -20.3374  -54.4226 H         1 UNK         0.0600 
    242 H242       -3.1281  -18.5050  -57.7149 H         1 UNK         0.3800 
    243 H243       -4.4935  -19.1553  -56.8416 H         1 UNK         0.3800 
    244 H244       -1.6814  -18.9701  -53.1461 H         1 UNK         0.0800 
    245 H245       -3.1244  -19.3205  -52.2450 H         1 UNK         0.0800 
    246 H246       -2.6317  -17.6068  -50.4140 H         1 UNK         0.0800 
    247 H247       -2.4097  -15.8932  -50.6499 H         1 UNK         0.0800 
@<TRIPOS>BOND
     1    1    2 1    
     2    1  127 1    
     3    1  128 1    
     4    1  129 1    
     5    2    3 2    
     6    2    4 am   BACKBONE|DICT|INTERRES
     7    4    5 1    
     8    4  130 1    
     9    5    6 1    
    10    5   65 1    
    11    5  131 1    
    12    6    7 1    
    13    6  132 1    
    14    6  133 1    
    15    7    8 1    
    16    8    9 1    
    17    8  134 1    
    18    8  135 1    
    19    9   10 ar   
    20    9   14 ar   
    21   10   11 ar   
    22   10  136 1    
    23   11   12 ar   
    24   11  126 1    
    25   12   13 ar   
    26   12  137 1    
    27   13   14 ar   
    28   13   15 1    
    29   14  138 1    
    30   15   16 1    
    31   15  139 1    
    32   15  140 1    
    33   16   17 1    
    34   17   18 1    
    35   17  141 1    
    36   17  142 1    
    37   18   19 1    
    38   18   67 1    
    39   18  143 1    
    40   19   20 am   BACKBONE|DICT|INTERRES
    41   19  144 1    
    42   20   21 2    
    43   20   22 1    
    44   22   23 1    
    45   22   24 1    
    46   22  145 1    
    47   23  146 1    
    48   23  147 1    
    49   23  148 1    
    50   24   25 am   BACKBONE|DICT|INTERRES
    51   24  149 1    
    52   25   26 2    
    53   25   27 1    
    54   27   28 1    
    55   27   29 1    
    56   27  150 1    
    57   28  151 1    
    58   28  152 1    
    59   28  153 1    
    60   29   30 am   BACKBONE|DICT|INTERRES
    61   29  154 1    
    62   30   31 2    
    63   30   32 1    
    64   32   33 1    
    65   32   34 1    
    66   32  155 1    
    67   33  156 1    
    68   33  157 1    
    69   33  158 1    
    70   34   35 am   BACKBONE|DICT|INTERRES
    71   34  159 1    
    72   35   36 2    
    73   35   37 1    
    74   37   38 1    
    75   37   39 1    
    76   37  160 1    
    77   38  161 1    
    78   38  162 1    
    79   38  163 1    
    80   39   40 am   BACKBONE|DICT|INTERRES
    81   39  164 1    
    82   40   41 2    
    83   40   42 1    
    84   42   43 1    
    85   42   44 1    
    86   42  165 1    
    87   43  166 1    
    88   43  167 1    
    89   43  168 1    
    90   44   45 am   BACKBONE|DICT|INTERRES
    91   44  169 1    
    92   45   46 2    
    93   45   47 1    
    94   47   48 1    
    95   47   49 1    
    96   47  170 1    
    97   48  171 1    
    98   48  172 1    
    99   48  173 1    
   100   49   50 am   BACKBONE|DICT|INTERRES
   101   49  174 1    
   102   50   51 2    
   103   50   52 1    
   104   52   53 1    
   105   52   54 1    
   106   52  175 1    
   107   53  176 1    
   108   53  177 1    
   109   53  178 1    
   110   54   55 am   BACKBONE|DICT|INTERRES
   111   54  179 1    
   112   55   56 2    
   113   55   57 1    
   114   57   58 1    
   115   57   59 1    
   116   57  180 1    
   117   58  181 1    
   118   58  182 1    
   119   58  183 1    
   120   59   60 am   BACKBONE|DICT|INTERRES
   121   59  184 1    
   122   60   61 2    
   123   60   62 1    
   124   62   63 1    
   125   62   64 1    
   126   62  185 1    
   127   63  186 1    
   128   63  187 1    
   129   63  188 1    
   130   64   65 am   BACKBONE|DICT|INTERRES
   131   64  189 1    
   132   65   66 2    
   133   67   68 2    
   134   67   69 am   BACKBONE|DICT|INTERRES
   135   69   70 1    
   136   69  190 1    
   137   70   71 1    
   138   70   72 1    
   139   70  191 1    
   140   71  192 1    
   141   71  193 1    
   142   71  194 1    
   143   72   73 2    
   144   72   74 am   BACKBONE|DICT|INTERRES
   145   74   75 1    
   146   74  195 1    
   147   75   76 1    
   148   75   77 1    
   149   75  196 1    
   150   76  197 1    
   151   76  198 1    
   152   76  199 1    
   153   77   78 2    
   154   77   79 am   BACKBONE|DICT|INTERRES
   155   79   80 1    
   156   79  200 1    
   157   80   81 1    
   158   80   82 1    
   159   80  201 1    
   160   81  202 1    
   161   81  203 1    
   162   81  204 1    
   163   82   83 2    
   164   82   84 am   BACKBONE|DICT|INTERRES
   165   84   85 1    
   166   84  205 1    
   167   85   86 1    
   168   85   87 1    
   169   85  206 1    
   170   86  207 1    
   171   86  208 1    
   172   86  209 1    
   173   87   88 2    
   174   87   89 am   BACKBONE|DICT|INTERRES
   175   89   90 1    
   176   89  210 1    
   177   90   91 1    
   178   90   92 1    
   179   90  211 1    
   180   91  212 1    
   181   91  213 1    
   182   91  214 1    
   183   92   93 2    
   184   92   94 am   BACKBONE|DICT|INTERRES
   185   94   95 1    
   186   94  215 1    
   187   95   96 1    
   188   95   97 1    
   189   95  216 1    
   190   96  217 1    
   191   96  218 1    
   192   96  219 1    
   193   97   98 2    
   194   97   99 am   BACKBONE|DICT|INTERRES
   195   99  100 1    
   196   99  220 1    
   197  100  101 1    
   198  100  102 1    
   199  100  221 1    
   200  101  222 1    
   201  101  223 1    
   202  101  224 1    
   203  102  103 2    
   204  102  104 am   BACKBONE|DICT|INTERRES
   205  104  105 1    
   206  104  225 1    
   207  105  106 1    
   208  105  107 1    
   209  105  226 1    
   210  106  227 1    
   211  106  228 1    
   212  106  229 1    
   213  107  108 2    
   214  107  109 am   BACKBONE|DICT|INTERRES
   215  109  110 1    
   216  109  230 1    
   217  110  111 1    
   218  110  112 1    
   219  110  231 1    
   220  111  232 1    
   221  111  233 1    
   222  111  234 1    
   223  112  113 2    
   224  112  114 am   BACKBONE|DICT|INTERRES
   225  114  115 1    
   226  114  235 1    
   227  115  116 1    
   228  115  117 1    
   229  115  236 1    
   230  116  237 1    
   231  116  238 1    
   232  116  239 1    
   233  117  118 2    
   234  117  119 am   BACKBONE|DICT|INTERRES
   235  119  120 1    
   236  119  240 1    
   237  120  121 1    
   238  120  124 1    
   239  120  241 1    
   240  121  122 am   BACKBONE|DICT|INTERRES
   241  121  123 2    
   242  122  242 1    
   243  122  243 1    
   244  124  125 1    
   245  124  244 1    
   246  124  245 1    
   247  125  126 1    
   248  126  246 1    
   249  126  247 1    
@<TRIPOS>SUBSTRUCTURE
     1 UNK         1 GROUP             0       ****    0 ROOT    
