@<TRIPOS>MOLECULE
3R540
247   249    1
SMALL
USER_CHARGES


@<TRIPOS>ATOM
      1 CA          0.1685  -11.0871  -46.0375 C.3       0 UNK        -0.1800 
      2 C           1.4031  -11.7014  -46.6820 C.2       0 UNK         0.5000 
      3 O           2.5131  -11.2107  -46.4716 O.2       0 UNK        -0.5000 
      4 N           1.2130  -12.7709  -47.4654 N.am      1 UNK        -0.5000 
      5 CA          2.2731  -13.5750  -48.0859 C.3       1 UNK         0.1400 
      6 C6          1.7049  -14.6787  -49.0076 C.3       23 UNK        -0.0398 
      7 S7          0.6602  -14.0180  -50.3514 S.3       23 UNK        -0.2404 
      8 C8          0.8989  -15.2746  -51.6483 C.3       23 UNK        -0.0205 
      9 C9          0.3503  -16.6292  -51.2262 C.ar      23 UNK        -0.0193 
     10 C10        -1.0068  -16.9240  -51.3928 C.ar      23 UNK        -0.1150 
     11 C11        -1.5192  -18.1576  -50.9794 C.ar      23 UNK        -0.0193 
     12 C12        -0.6631  -19.0979  -50.4026 C.ar      23 UNK        -0.1150 
     13 C13         0.6945  -18.8184  -50.2401 C.ar      23 UNK        -0.0193 
     14 C14         1.1989  -17.5863  -50.6608 C.ar      23 UNK        -0.1150 
     15 C15         1.6051  -19.8484  -49.5981 C.3       23 UNK        -0.0205 
     16 S16         1.6910  -19.5889  -47.8015 S.3       23 UNK        -0.2404 
     17 C17         2.1772  -21.2490  -47.2310 C.3       23 UNK        -0.0398 
     18 CA          1.0393  -22.0996  -46.6130 C.3       11 UNK         0.1400 
     19 N           0.5623  -21.6072  -45.3168 N.am      11 UNK        -0.5000 
     20 C          -0.0755  -22.3940  -44.4363 C.2       10 UNK         0.5000 
     21 O          -0.3074  -23.5869  -44.6384 O.2       10 UNK        -0.5000 
     22 CA         -0.5701  -21.7489  -43.1307 C.3       10 UNK         0.1400 
     23 CB          0.5909  -21.5271  -42.1500 C.3       10 UNK        -0.1800 
     24 N          -1.2898  -20.4959  -43.3520 N.am      10 UNK        -0.5000 
     25 C          -2.4432  -20.3964  -44.0281 C.2       9 UNK         0.5000 
     26 O          -3.0287  -21.3581  -44.5247 O.2       9 UNK        -0.5000 
     27 CA         -3.0285  -18.9845  -44.2096 C.3       9 UNK         0.1400 
     28 CB         -3.7936  -18.5450  -42.9526 C.3       9 UNK        -0.1800 
     29 N          -2.0124  -17.9869  -44.5418 N.am      9 UNK        -0.5000 
     30 C          -1.2590  -18.0138  -45.6509 C.2       8 UNK         0.5000 
     31 O          -1.3688  -18.8681  -46.5275 O.2       8 UNK        -0.5000 
     32 CA         -0.1677  -16.9355  -45.7694 C.3       8 UNK         0.1400 
     33 CB         -0.7851  -15.5782  -46.1401 C.3       8 UNK        -0.1800 
     34 N           0.6154  -16.8060  -44.5402 N.am      8 UNK        -0.5000 
     35 C           1.3283  -17.7921  -43.9744 C.2       7 UNK         0.5000 
     36 O           1.4532  -18.9206  -44.4509 O.2       7 UNK        -0.5000 
     37 CA          1.9456  -17.4889  -42.5994 C.3       7 UNK         0.1400 
     38 CB          3.2664  -16.7164  -42.7339 C.3       7 UNK        -0.1800 
     39 N           1.0145  -16.7534  -41.7429 N.am      7 UNK        -0.5000 
     40 C          -0.0993  -17.2843  -41.2163 C.2       6 UNK         0.5000 
     41 O          -0.4301  -18.4603  -41.3624 O.2       6 UNK        -0.5000 
     42 CA         -1.0167  -16.3351  -40.4238 C.3       6 UNK         0.1400 
     43 CB         -0.5371  -16.2073  -38.9703 C.3       6 UNK        -0.1800 
     44 N          -1.0994  -15.0045  -41.0253 N.am      6 UNK        -0.5000 
     45 C          -1.6671  -14.7408  -42.2110 C.2       5 UNK         0.5000 
     46 O          -2.2435  -15.5859  -42.8942 O.2       5 UNK        -0.5000 
     47 CA         -1.5184  -13.3017  -42.7429 C.3       5 UNK         0.1400 
     48 CB         -2.6935  -12.4279  -42.2813 C.3       5 UNK        -0.1800 
     49 N          -0.2556  -12.6741  -42.3397 N.am      5 UNK        -0.5000 
     50 C           0.9506  -13.1072  -42.7271 C.2       4 UNK         0.5000 
     51 O           1.1175  -14.0669  -43.4786 O.2       4 UNK        -0.5000 
     52 CA          2.1653  -12.4034  -42.1183 C.3       4 UNK         0.1400 
     53 CB          2.6837  -13.1862  -40.8973 C.3       4 UNK        -0.1800 
     54 N           3.2152  -12.2724  -43.1253 N.am      4 UNK        -0.5000 
     55 C           4.2069  -11.3752  -43.0585 C.2       3 UNK         0.5000 
     56 O           4.3493  -10.6082  -42.1037 O.2       3 UNK        -0.5000 
     57 CA          5.1794  -11.2626  -44.2513 C.3       3 UNK         0.1400 
     58 CB          6.6249  -10.9476  -43.8097 C.3       3 UNK        -0.1800 
     59 N           5.1514  -12.3828  -45.1959 N.am      3 UNK        -0.5000 
     60 C           5.5780  -13.6423  -45.0165 C.2       2 UNK         0.5000 
     61 O           6.0061  -14.0788  -43.9474 O.2       2 UNK        -0.5000 
     62 CA          5.5496  -14.5459  -46.2736 C.3       2 UNK         0.1400 
     63 CB          5.4951  -16.0540  -45.9473 C.3       2 UNK        -0.1800 
     64 N           4.5030  -14.1632  -47.2337 N.am      2 UNK        -0.5000 
     65 C           3.1824  -14.2026  -47.0088 C.2       1 UNK         0.5000 
     66 O           2.6775  -14.6837  -45.9958 O.2       1 UNK        -0.5000 
     67 C          -0.1211  -22.4018  -47.5876 C.2       11 UNK         0.5000 
     68 O          -0.0243  -23.3701  -48.3398 O.2       11 UNK        -0.5000 
     69 N          -1.2174  -21.6290  -47.5254 N.am      12 UNK        -0.5000 
     70 CA         -2.4489  -21.8889  -48.2762 C.3       12 UNK         0.1400 
     71 CB         -3.4138  -20.7037  -48.1385 C.3       12 UNK        -0.1800 
     72 C          -3.1465  -23.1911  -47.8497 C.2       12 UNK         0.5000 
     73 O          -3.6669  -23.8982  -48.7093 O.2       12 UNK        -0.5000 
     74 N          -3.1339  -23.4932  -46.5439 N.am      13 UNK        -0.5000 
     75 CA         -3.6551  -24.7401  -45.9834 C.3       13 UNK         0.1400 
     76 CB         -3.7913  -24.6015  -44.4594 C.3       13 UNK        -0.1800 
     77 C          -2.7894  -25.9615  -46.3458 C.2       13 UNK         0.5000 
     78 O          -3.3333  -27.0482  -46.5465 O.2       13 UNK        -0.5000 
     79 N          -1.4653  -25.7658  -46.4225 N.am      14 UNK        -0.5000 
     80 CA         -0.5031  -26.7847  -46.8430 C.3       14 UNK         0.1400 
     81 CB          0.9154  -26.3400  -46.4553 C.3       14 UNK        -0.1800 
     82 C          -0.5878  -27.0914  -48.3508 C.2       14 UNK         0.5000 
     83 O          -0.4820  -28.2558  -48.7397 O.2       14 UNK        -0.5000 
     84 N          -0.7721  -26.0469  -49.1688 N.am      15 UNK        -0.5000 
     85 CA         -0.9457  -26.1320  -50.6175 C.3       15 UNK         0.1400 
     86 CB         -0.8501  -24.7183  -51.2145 C.3       15 UNK        -0.1800 
     87 C          -2.2830  -26.7833  -51.0168 C.2       15 UNK         0.5000 
     88 O          -3.2783  -26.6637  -50.2992 O.2       15 UNK        -0.5000 
     89 N          -2.2945  -27.4246  -52.1906 N.am      16 UNK        -0.5000 
     90 CA         -3.5071  -27.9326  -52.8292 C.3       16 UNK         0.1400 
     91 CB         -3.1144  -28.9234  -53.9355 C.3       16 UNK        -0.1800 
     92 C          -4.3352  -26.7739  -53.4127 C.2       16 UNK         0.5000 
     93 O          -3.7551  -25.8079  -53.9144 O.2       16 UNK        -0.5000 
     94 N          -5.6686  -26.8970  -53.3411 N.am      17 UNK        -0.5000 
     95 CA         -6.6739  -25.9850  -53.9098 C.3       17 UNK         0.1400 
     96 CB         -6.6782  -26.1045  -55.4485 C.3       17 UNK        -0.1800 
     97 C          -6.5531  -24.5173  -53.4356 C.2       17 UNK         0.5000 
     98 O          -6.9002  -23.6030  -54.1850 O.2       17 UNK        -0.5000 
     99 N          -6.0452  -24.3221  -52.2072 N.am      18 UNK        -0.5000 
    100 CA        -5.7180  -23.0332  -51.5821 C.3       18 UNK         0.1400 
    101 CB        -6.9986  -22.2263  -51.2878 C.3       18 UNK        -0.1800 
    102 C         -4.6654  -22.2335  -52.3832 C.2       18 UNK         0.5000 
    103 O         -4.7546  -21.0070  -52.4840 O.2       18 UNK        -0.5000 
    104 N         -3.7062  -22.9605  -52.9766 N.am      19 UNK        -0.5000 
    105 CA        -2.6634  -22.5263  -53.9109 C.3       19 UNK         0.1400 
    106 CB        -1.7384  -21.4571  -53.2951 C.3       19 UNK        -0.1800 
    107 C         -3.2404  -22.0910  -55.2711 C.2       19 UNK         0.5000 
    108 O         -2.9121  -22.7055  -56.2858 O.2       19 UNK        -0.5000 
    109 N         -4.1067  -21.0714  -55.2443 N.am      20 UNK        -0.5000 
    110 CA        -4.9221  -20.5272  -56.3326 C.3       20 UNK         0.1400 
    111 CB        -4.1167  -20.2794  -57.6277 C.3       20 UNK        -0.1800 
    112 C         -5.5585  -19.2036  -55.8838 C.2       20 UNK         0.5000 
    113 O         -6.7372  -18.9694  -56.1508 O.2       20 UNK        -0.5000 
    114 N         -4.7508  -18.3480  -55.2421 N.am      21 UNK        -0.5000 
    115 CA        -5.1065  -16.9660  -54.9145 C.3       21 UNK         0.1400 
    116 CB        -3.8116  -16.1503  -54.7658 C.3       21 UNK        -0.1800 
    117 C         -5.9730  -16.8178  -53.6510 C.2       21 UNK         0.5000 
    118 O         -6.6823  -15.8178  -53.5266 O.2       21 UNK        -0.5000 
    119 N         -5.8766  -17.7792  -52.7275 N.am      22 UNK        -0.5000 
    120 CA        -6.5454  -17.7463  -51.4195 C.3       22 UNK         0.1400 
    121 C         -7.9613  -18.3861  -51.4637 C.2       22 UNK         0.5000 
    122 N         -8.7860  -18.1397  -50.4544 N.am      22 UNK        -0.7600 
    123 O         -8.3245  -19.1112  -52.3870 O.2       22 UNK        -0.5000 
    124 C124       -5.6614  -18.3903  -50.3208 C.3       23 UNK        -0.0398 
    125 S125       -4.0713  -17.5217  -50.0815 S.3       23 UNK        -0.2404 
    126 C126       -2.9878  -18.4924  -51.1751 C.3       23 UNK        -0.0205 
    127 H127       -0.0186  -10.0970  -46.4527 H         1 UNK         0.0600 
    128 H128        0.3186  -10.9845  -44.9629 H         1 UNK         0.0600 
    129 H129       -0.7188  -11.7002  -46.1970 H         1 UNK         0.0600 
    130 H130        0.2759  -13.1159  -47.6090 H         1 UNK         0.3000 
    131 H131        2.8761  -12.8974  -48.6940 H         1 UNK         0.0600 
    132 H132        2.5281  -15.2387  -49.4539 H         1 UNK         0.0800 
    133 H133        1.1166  -15.4004  -48.4380 H         1 UNK         0.0800 
    134 H134        1.9586  -15.3493  -51.8973 H         1 UNK         0.0800 
    135 H135        0.3961  -14.9432  -52.5581 H         1 UNK         0.0800 
    136 H136       -1.6676  -16.1896  -51.8315 H         1 UNK         0.1150 
    137 H137       -1.0504  -20.0512  -50.0765 H         1 UNK         0.1150 
    138 H138        2.2495  -17.3691  -50.5311 H         1 UNK         0.1150 
    139 H139        1.2326  -20.8503  -49.8170 H         1 UNK         0.0800 
    140 H140        2.6082  -19.7906  -50.0231 H         1 UNK         0.0800 
    141 H141        2.6402  -21.7926  -48.0562 H         1 UNK         0.0800 
    142 H142        2.9695  -21.1211  -46.4923 H         1 UNK         0.0800 
    143 H143        1.5012  -23.0685  -46.4104 H         1 UNK         0.0600 
    144 H144        0.7328  -20.6283  -45.0983 H         1 UNK         0.3000 
    145 H145       -1.2681  -22.4481  -42.6656 H         1 UNK         0.0600 
    146 H146        0.2295  -21.1628  -41.1883 H         1 UNK         0.0600 
    147 H147        1.1270  -22.4584  -41.9633 H         1 UNK         0.0600 
    148 H148        1.3119  -20.8048  -42.5317 H         1 UNK         0.0600 
    149 H149       -0.8888  -19.6614  -42.9370 H         1 UNK         0.3000 
    150 H150       -3.7359  -19.0239  -45.0402 H         1 UNK         0.0600 
    151 H151       -4.5689  -19.2674  -42.6945 H         1 UNK         0.0600 
    152 H152       -4.2830  -17.5831  -43.1058 H         1 UNK         0.0600 
    153 H153       -3.1323  -18.4498  -42.0910 H         1 UNK         0.0600 
    154 H154       -1.8938  -17.2200  -43.8861 H         1 UNK         0.3000 
    155 H155        0.5202  -17.2229  -46.5654 H         1 UNK         0.0600 
    156 H156       -1.5786  -15.2881  -45.4525 H         1 UNK         0.0600 
    157 H157       -1.2153  -15.6105  -47.1418 H         1 UNK         0.0600 
    158 H158       -0.0356  -14.7896  -46.1260 H         1 UNK         0.0600 
    159 H159        0.6435  -15.8848  -44.1134 H         1 UNK         0.3000 
    160 H160        2.1668  -18.4422  -42.1148 H         1 UNK         0.0600 
    161 H161        3.1366  -15.7686  -43.2573 H         1 UNK         0.0600 
    162 H162        3.9960  -17.3009  -43.2947 H         1 UNK         0.0600 
    163 H163        3.7043  -16.5069  -41.7582 H         1 UNK         0.0600 
    164 H164        1.1826  -15.7649  -41.6355 H         1 UNK         0.3000 
    165 H165       -2.0191  -16.7685  -40.4166 H         1 UNK         0.0600 
    166 H166       -1.2217  -15.5964  -38.3816 H         1 UNK         0.0600 
    167 H167       -0.4821  -17.1856  -38.4909 H         1 UNK         0.0600 
    168 H168        0.4539  -15.7556  -38.9095 H         1 UNK         0.0600 
    169 H169       -0.6582  -14.2479  -40.5246 H         1 UNK         0.3000 
    170 H170       -1.5368  -13.3494  -43.8337 H         1 UNK         0.0600 
    171 H171       -3.6460  -12.8625  -42.5874 H         1 UNK         0.0600 
    172 H172       -2.7151  -12.3205  -41.1961 H         1 UNK         0.0600 
    173 H173       -2.6380  -11.4303  -42.7175 H         1 UNK         0.0600 
    174 H174       -0.3227  -11.8862  -41.7113 H         1 UNK         0.3000 
    175 H175        1.8543  -11.4064  -41.7987 H         1 UNK         0.0600 
    176 H176        3.0635  -14.1672  -41.1824 H         1 UNK         0.0600 
    177 H177        3.4909  -12.6521  -40.3963 H         1 UNK         0.0600 
    178 H178        1.8938  -13.3382  -40.1607 H         1 UNK         0.0600 
    179 H179        3.1214  -12.8721  -43.9371 H         1 UNK         0.3000 
    180 H180        4.8274  -10.4024  -44.8223 H         1 UNK         0.0600 
    181 H181        7.0287  -11.7243  -43.1598 H         1 UNK         0.0600 
    182 H182        6.6717  -10.0074  -43.2590 H         1 UNK         0.0600 
    183 H183        7.2883  -10.8490  -44.6689 H         1 UNK         0.0600 
    184 H184        4.7513  -12.1552  -46.0963 H         1 UNK         0.3000 
    185 H185        6.4983  -14.3646  -46.7806 H         1 UNK         0.0600 
    186 H186        6.3489  -16.3550  -45.3395 H         1 UNK         0.0600 
    187 H187        4.5943  -16.3205  -45.3962 H         1 UNK         0.0600 
    188 H188        5.5182  -16.6539  -46.8569 H         1 UNK         0.0600 
    189 H189        4.8369  -13.7572  -48.0973 H         1 UNK         0.3000 
    190 H190       -1.2101  -20.8008  -46.9358 H         1 UNK         0.3000 
    191 H191       -2.1828  -21.9888  -49.3304 H         1 UNK         0.0600 
    192 H192       -3.7333  -20.5616  -47.1061 H         1 UNK         0.0600 
    193 H193       -4.3083  -20.8553  -48.7434 H         1 UNK         0.0600 
    194 H194       -2.9485  -19.7772  -48.4704 H         1 UNK         0.0600 
    195 H195       -2.7573  -22.8187  -45.8852 H         1 UNK         0.3000 
    196 H196       -4.6518  -24.9071  -46.3971 H         1 UNK         0.0600 
    197 H197       -4.1916  -25.5149  -44.0179 H         1 UNK         0.0600 
    198 H198       -4.4696  -23.7893  -44.1975 H         1 UNK         0.0600 
    199 H199       -2.8306  -24.4002  -43.9849 H         1 UNK         0.0600 
    200 H200       -1.0939  -24.8575  -46.1700 H         1 UNK         0.3000 
    201 H201       -0.7260  -27.7064  -46.3013 H         1 UNK         0.0600 
    202 H202        0.9910  -26.1481  -45.3848 H         1 UNK         0.0600 
    203 H203        1.2112  -25.4319  -46.9802 H         1 UNK         0.0600 
    204 H204        1.6456  -27.1121  -46.7009 H         1 UNK         0.0600 
    205 H205       -0.8022  -25.1146  -48.7687 H         1 UNK         0.3000 
    206 H206       -0.1293  -26.7355  -51.0194 H         1 UNK         0.0600 
    207 H207        0.1099  -24.2554  -50.9857 H         1 UNK         0.0600 
    208 H208       -0.9467  -24.7433  -52.3003 H         1 UNK         0.0600 
    209 H209       -1.6362  -24.0671  -50.8297 H         1 UNK         0.0600 
    210 H210       -1.4539  -27.4450  -52.7493 H         1 UNK         0.3000 
    211 H211       -4.1038  -28.4625  -52.0834 H         1 UNK         0.0600 
    212 H212       -2.5124  -28.4456  -54.7097 H         1 UNK         0.0600 
    213 H213       -3.9993  -29.3395  -54.4189 H         1 UNK         0.0600 
    214 H214       -2.5420  -29.7589  -53.5323 H         1 UNK         0.0600 
    215 H215       -6.0455  -27.7176  -52.8868 H         1 UNK         0.3000 
    216 H216       -7.6424  -26.3352  -53.5501 H         1 UNK         0.0600 
    217 H217       -7.5098  -25.5501  -55.8851 H         1 UNK         0.0600 
    218 H218       -6.7835  -27.1425  -55.7637 H         1 UNK         0.0600 
    219 H219       -5.7585  -25.7130  -55.8849 H         1 UNK         0.0600 
    220 H220       -5.7835  -25.1411  -51.6756 H         1 UNK         0.3000 
    221 H221       -5.2558  -23.2686  -50.6250 H         1 UNK         0.0600 
    222 H222       -7.4634  -21.8545  -52.2015 H         1 UNK         0.0600 
    223 H223       -7.7346  -22.8314  -50.7588 H         1 UNK         0.0600 
    224 H224       -6.7813  -21.3640  -50.6587 H         1 UNK         0.0600 
    225 H225       -3.7941  -23.9690  -52.9159 H         1 UNK         0.3000 
    226 H226       -2.0542  -23.4121  -54.0967 H         1 UNK         0.0600 
    227 H227       -1.3456  -21.7811  -52.3313 H         1 UNK         0.0600 
    228 H228       -0.8851  -21.2657  -53.9464 H         1 UNK         0.0600 
    229 H229       -2.2468  -20.5058  -53.1463 H         1 UNK         0.0600 
    230 H230       -4.3544  -20.7344  -54.3169 H         1 UNK         0.3000 
    231 H231       -5.7255  -21.2365  -56.5391 H         1 UNK         0.0600 
    232 H232       -4.6968  -19.6993  -58.3470 H         1 UNK         0.0600 
    233 H233       -3.8551  -21.2122  -58.1257 H         1 UNK         0.0600 
    234 H234       -3.1952  -19.7302  -57.4317 H         1 UNK         0.0600 
    235 H235       -3.7909  -18.6187  -55.0863 H         1 UNK         0.3000 
    236 H236       -5.6728  -16.5455  -55.7485 H         1 UNK         0.0600 
    237 H237       -3.2231  -16.1729  -55.6832 H         1 UNK         0.0600 
    238 H238       -4.0308  -15.1040  -54.5487 H         1 UNK         0.0600 
    239 H239       -3.1865  -16.5279  -53.9560 H         1 UNK         0.0600 
    240 H240       -5.3439  -18.6119  -52.9325 H         1 UNK         0.3000 
    241 H241       -6.6931  -16.7017  -51.1380 H         1 UNK         0.0600 
    242 H242       -9.7066  -18.5507  -50.4675 H         1 UNK         0.3800 
    243 H243       -8.5258  -17.5395  -49.6870 H         1 UNK         0.3800 
    244 H244       -6.1773  -18.3744  -49.3596 H         1 UNK         0.0800 
    245 H245       -5.4753  -19.4407  -50.5382 H         1 UNK         0.0800 
    246 H246       -3.2561  -18.3155  -52.2157 H         1 UNK         0.0800 
    247 H247       -3.1528  -19.5539  -50.9891 H         1 UNK         0.0800 
@<TRIPOS>BOND
     1    1    2 1    
     2    1  127 1    
     3    1  128 1    
     4    1  129 1    
     5    2    3 2    
     6    2    4 am   BACKBONE|DICT|INTERRES
     7    4    5 1    
     8    4  130 1    
     9    5    6 1    
    10    5   65 1    
    11    5  131 1    
    12    6    7 1    
    13    6  132 1    
    14    6  133 1    
    15    7    8 1    
    16    8    9 1    
    17    8  134 1    
    18    8  135 1    
    19    9   10 ar   
    20    9   14 ar   
    21   10   11 ar   
    22   10  136 1    
    23   11   12 ar   
    24   11  126 1    
    25   12   13 ar   
    26   12  137 1    
    27   13   14 ar   
    28   13   15 1    
    29   14  138 1    
    30   15   16 1    
    31   15  139 1    
    32   15  140 1    
    33   16   17 1    
    34   17   18 1    
    35   17  141 1    
    36   17  142 1    
    37   18   19 1    
    38   18   67 1    
    39   18  143 1    
    40   19   20 am   BACKBONE|DICT|INTERRES
    41   19  144 1    
    42   20   21 2    
    43   20   22 1    
    44   22   23 1    
    45   22   24 1    
    46   22  145 1    
    47   23  146 1    
    48   23  147 1    
    49   23  148 1    
    50   24   25 am   BACKBONE|DICT|INTERRES
    51   24  149 1    
    52   25   26 2    
    53   25   27 1    
    54   27   28 1    
    55   27   29 1    
    56   27  150 1    
    57   28  151 1    
    58   28  152 1    
    59   28  153 1    
    60   29   30 am   BACKBONE|DICT|INTERRES
    61   29  154 1    
    62   30   31 2    
    63   30   32 1    
    64   32   33 1    
    65   32   34 1    
    66   32  155 1    
    67   33  156 1    
    68   33  157 1    
    69   33  158 1    
    70   34   35 am   BACKBONE|DICT|INTERRES
    71   34  159 1    
    72   35   36 2    
    73   35   37 1    
    74   37   38 1    
    75   37   39 1    
    76   37  160 1    
    77   38  161 1    
    78   38  162 1    
    79   38  163 1    
    80   39   40 am   BACKBONE|DICT|INTERRES
    81   39  164 1    
    82   40   41 2    
    83   40   42 1    
    84   42   43 1    
    85   42   44 1    
    86   42  165 1    
    87   43  166 1    
    88   43  167 1    
    89   43  168 1    
    90   44   45 am   BACKBONE|DICT|INTERRES
    91   44  169 1    
    92   45   46 2    
    93   45   47 1    
    94   47   48 1    
    95   47   49 1    
    96   47  170 1    
    97   48  171 1    
    98   48  172 1    
    99   48  173 1    
   100   49   50 am   BACKBONE|DICT|INTERRES
   101   49  174 1    
   102   50   51 2    
   103   50   52 1    
   104   52   53 1    
   105   52   54 1    
   106   52  175 1    
   107   53  176 1    
   108   53  177 1    
   109   53  178 1    
   110   54   55 am   BACKBONE|DICT|INTERRES
   111   54  179 1    
   112   55   56 2    
   113   55   57 1    
   114   57   58 1    
   115   57   59 1    
   116   57  180 1    
   117   58  181 1    
   118   58  182 1    
   119   58  183 1    
   120   59   60 am   BACKBONE|DICT|INTERRES
   121   59  184 1    
   122   60   61 2    
   123   60   62 1    
   124   62   63 1    
   125   62   64 1    
   126   62  185 1    
   127   63  186 1    
   128   63  187 1    
   129   63  188 1    
   130   64   65 am   BACKBONE|DICT|INTERRES
   131   64  189 1    
   132   65   66 2    
   133   67   68 2    
   134   67   69 am   BACKBONE|DICT|INTERRES
   135   69   70 1    
   136   69  190 1    
   137   70   71 1    
   138   70   72 1    
   139   70  191 1    
   140   71  192 1    
   141   71  193 1    
   142   71  194 1    
   143   72   73 2    
   144   72   74 am   BACKBONE|DICT|INTERRES
   145   74   75 1    
   146   74  195 1    
   147   75   76 1    
   148   75   77 1    
   149   75  196 1    
   150   76  197 1    
   151   76  198 1    
   152   76  199 1    
   153   77   78 2    
   154   77   79 am   BACKBONE|DICT|INTERRES
   155   79   80 1    
   156   79  200 1    
   157   80   81 1    
   158   80   82 1    
   159   80  201 1    
   160   81  202 1    
   161   81  203 1    
   162   81  204 1    
   163   82   83 2    
   164   82   84 am   BACKBONE|DICT|INTERRES
   165   84   85 1    
   166   84  205 1    
   167   85   86 1    
   168   85   87 1    
   169   85  206 1    
   170   86  207 1    
   171   86  208 1    
   172   86  209 1    
   173   87   88 2    
   174   87   89 am   BACKBONE|DICT|INTERRES
   175   89   90 1    
   176   89  210 1    
   177   90   91 1    
   178   90   92 1    
   179   90  211 1    
   180   91  212 1    
   181   91  213 1    
   182   91  214 1    
   183   92   93 2    
   184   92   94 am   BACKBONE|DICT|INTERRES
   185   94   95 1    
   186   94  215 1    
   187   95   96 1    
   188   95   97 1    
   189   95  216 1    
   190   96  217 1    
   191   96  218 1    
   192   96  219 1    
   193   97   98 2    
   194   97   99 am   BACKBONE|DICT|INTERRES
   195   99  100 1    
   196   99  220 1    
   197  100  101 1    
   198  100  102 1    
   199  100  221 1    
   200  101  222 1    
   201  101  223 1    
   202  101  224 1    
   203  102  103 2    
   204  102  104 am   BACKBONE|DICT|INTERRES
   205  104  105 1    
   206  104  225 1    
   207  105  106 1    
   208  105  107 1    
   209  105  226 1    
   210  106  227 1    
   211  106  228 1    
   212  106  229 1    
   213  107  108 2    
   214  107  109 am   BACKBONE|DICT|INTERRES
   215  109  110 1    
   216  109  230 1    
   217  110  111 1    
   218  110  112 1    
   219  110  231 1    
   220  111  232 1    
   221  111  233 1    
   222  111  234 1    
   223  112  113 2    
   224  112  114 am   BACKBONE|DICT|INTERRES
   225  114  115 1    
   226  114  235 1    
   227  115  116 1    
   228  115  117 1    
   229  115  236 1    
   230  116  237 1    
   231  116  238 1    
   232  116  239 1    
   233  117  118 2    
   234  117  119 am   BACKBONE|DICT|INTERRES
   235  119  120 1    
   236  119  240 1    
   237  120  121 1    
   238  120  124 1    
   239  120  241 1    
   240  121  122 am   BACKBONE|DICT|INTERRES
   241  121  123 2    
   242  122  242 1    
   243  122  243 1    
   244  124  125 1    
   245  124  244 1    
   246  124  245 1    
   247  125  126 1    
   248  126  246 1    
   249  126  247 1    
@<TRIPOS>SUBSTRUCTURE
     1 UNK         1 GROUP             0       ****    0 ROOT    
