@<TRIPOS>MOLECULE
3R540
247   249    1
SMALL
USER_CHARGES


@<TRIPOS>ATOM
      1 CA          0.8357  -12.7919  -53.3429 C.3       0 UNK        -0.1800 
      2 C           1.4126  -13.3989  -52.0722 C.2       0 UNK         0.5000 
      3 O           2.5147  -13.9466  -52.0998 O.2       0 UNK        -0.5000 
      4 N           0.6783  -13.2998  -50.9614 N.am      1 UNK        -0.5000 
      5 CA          1.0492  -13.8189  -49.6470 C.3       1 UNK         0.1400 
      6 C6          0.9228  -15.3662  -49.5537 C.3       23 UNK        -0.0398 
      7 S7         -0.7839  -15.9924  -49.7506 S.3       23 UNK        -0.2404 
      8 C8         -0.6086  -17.6873  -49.1135 C.3       23 UNK        -0.0205 
      9 C9          0.2856  -18.5468  -49.9953 C.ar      23 UNK        -0.0193 
     10 C10        -0.0319  -18.7459  -51.3407 C.ar      23 UNK        -0.1150 
     11 C11         0.7573  -19.5688  -52.1487 C.ar      23 UNK        -0.0193 
     12 C12         1.8592  -20.2223  -51.5898 C.ar      23 UNK        -0.1150 
     13 C13         2.1783  -20.0445  -50.2411 C.ar      23 UNK        -0.0193 
     14 C14         1.4079  -19.1789  -49.4577 C.ar      23 UNK        -0.1150 
     15 C15         3.3347  -20.8099  -49.6167 C.3       23 UNK        -0.0205 
     16 S16         2.8814  -22.5155  -49.1280 S.3       23 UNK        -0.2404 
     17 C17         1.4036  -22.2739  -48.0699 C.3       23 UNK        -0.0398 
     18 CA          1.6618  -22.0434  -46.5506 C.3       11 UNK         0.1400 
     19 N           2.9645  -21.4424  -46.2499 N.am      11 UNK        -0.5000 
     20 C           3.5019  -21.3419  -45.0281 C.2       10 UNK         0.5000 
     21 O           2.9672  -21.8020  -44.0139 O.2       10 UNK        -0.5000 
     22 CA          4.8680  -20.6345  -44.9209 C.3       10 UNK         0.1400 
     23 CB          5.0695  -19.5106  -45.9575 C.3       10 UNK        -0.1800 
     24 N           4.9872  -20.0832  -43.5801 N.am      10 UNK        -0.5000 
     25 C           6.1026  -19.9481  -42.8588 C.2       9 UNK         0.5000 
     26 O           7.2305  -20.2209  -43.2717 O.2       9 UNK        -0.5000 
     27 CA          5.9097  -19.4493  -41.4138 C.3       9 UNK         0.1400 
     28 CB          5.7853  -17.9183  -41.3770 C.3       9 UNK        -0.1800 
     29 N           4.7267  -20.0438  -40.7887 N.am      9 UNK        -0.5000 
     30 C           4.6117  -21.3308  -40.4372 C.2       8 UNK         0.5000 
     31 O           5.5455  -22.1325  -40.4869 O.2       8 UNK        -0.5000 
     32 CA          3.2242  -21.8264  -39.9825 C.3       8 UNK         0.1400 
     33 CB          3.0127  -21.6077  -38.4719 C.3       8 UNK        -0.1800 
     34 N           2.1049  -21.3010  -40.7783 N.am      8 UNK        -0.5000 
     35 C           1.6198  -20.0537  -40.8274 C.2       7 UNK         0.5000 
     36 O           2.0462  -19.1183  -40.1460 O.2       7 UNK        -0.5000 
     37 CA          0.4593  -19.8223  -41.8145 C.3       7 UNK         0.1400 
     38 CB         -0.8867  -19.9697  -41.0891 C.3       7 UNK        -0.1800 
     39 N           0.4959  -18.5099  -42.4589 N.am      7 UNK        -0.5000 
     40 C           1.5236  -17.9989  -43.1533 C.2       6 UNK         0.5000 
     41 O           2.5877  -18.5882  -43.3316 O.2       6 UNK        -0.5000 
     42 CA          1.3446  -16.5908  -43.7507 C.3       6 UNK         0.1400 
     43 CB          1.1961  -16.6739  -45.2794 C.3       6 UNK        -0.1800 
     44 N           0.1993  -15.8798  -43.1719 N.am      6 UNK        -0.5000 
     45 C           0.2413  -15.2254  -41.9993 C.2       5 UNK         0.5000 
     46 O           1.2744  -15.0837  -41.3448 O.2       5 UNK        -0.5000 
     47 CA         -1.0743  -14.6441  -41.4413 C.3       5 UNK         0.1400 
     48 CB         -1.0388  -13.1087  -41.3913 C.3       5 UNK        -0.1800 
     49 N          -2.2524  -15.0690  -42.1965 N.am      5 UNK        -0.5000 
     50 C          -2.9298  -16.2021  -41.9657 C.2       4 UNK         0.5000 
     51 O          -2.6469  -16.9947  -41.0682 O.2       4 UNK        -0.5000 
     52 CA         -4.0938  -16.5289  -42.9221 C.3       4 UNK         0.1400 
     53 CB         -5.4234  -16.0085  -42.3576 C.3       4 UNK        -0.1800 
     54 N          -3.9032  -15.9936  -44.2718 N.am      4 UNK        -0.5000 
     55 C          -2.9151  -16.3555  -45.1000 C.2       3 UNK         0.5000 
     56 O          -2.0763  -17.2078  -44.8102 O.2       3 UNK        -0.5000 
     57 CA         -2.8322  -15.6478  -46.4660 C.3       3 UNK         0.1400 
     58 CB         -4.1276  -14.9118  -46.8737 C.3       3 UNK        -0.1800 
     59 N          -1.6873  -14.7360  -46.5520 N.am      3 UNK        -0.5000 
     60 C          -1.4022  -13.6920  -45.7562 C.2       2 UNK         0.5000 
     61 O          -2.0569  -13.4070  -44.7523 O.2       2 UNK        -0.5000 
     62 CA         -0.1855  -12.8141  -46.1384 C.3       2 UNK         0.1400 
     63 CB          0.7960  -12.6532  -44.9659 C.3       2 UNK        -0.1800 
     64 N           0.5538  -13.3145  -47.3025 N.am      2 UNK        -0.5000 
     65 C           0.2124  -13.0898  -48.5777 C.2       1 UNK         0.5000 
     66 O          -0.7378  -12.3771  -48.9153 O.2       1 UNK        -0.5000 
     67 C           0.5262  -21.1846  -45.9522 C.2       11 UNK         0.5000 
     68 O           0.5387  -19.9636  -46.1192 O.2       11 UNK        -0.5000 
     69 N          -0.4416  -21.8335  -45.2985 N.am      12 UNK        -0.5000 
     70 CA         -1.6442  -21.1919  -44.7725 C.3       12 UNK         0.1400 
     71 CB         -2.1864  -22.0632  -43.6270 C.3       12 UNK        -0.1800 
     72 C          -2.7203  -21.0462  -45.8622 C.2       12 UNK         0.5000 
     73 O          -2.7193  -21.8014  -46.8374 O.2       12 UNK        -0.5000 
     74 N          -3.6915  -20.1539  -45.6197 N.am      13 UNK        -0.5000 
     75 CA         -4.9155  -20.0059  -46.4212 C.3       13 UNK         0.1400 
     76 CB         -5.7263  -18.8109  -45.8989 C.3       13 UNK        -0.1800 
     77 C          -5.7966  -21.2736  -46.4517 C.2       13 UNK         0.5000 
     78 O          -6.5619  -21.4611  -47.3976 O.2       13 UNK        -0.5000 
     79 N          -5.6290  -22.1487  -45.4483 N.am      14 UNK        -0.5000 
     80 CA         -6.2310  -23.4807  -45.3428 C.3       14 UNK         0.1400 
     81 CB         -5.8451  -24.0878  -43.9850 C.3       14 UNK        -0.1800 
     82 C          -5.8569  -24.4438  -46.4914 C.2       14 UNK         0.5000 
     83 O          -6.5486  -25.4448  -46.6802 O.2       14 UNK        -0.5000 
     84 N          -4.8050  -24.1182  -47.2605 N.am      15 UNK        -0.5000 
     85 CA         -4.4379  -24.7919  -48.5086 C.3       15 UNK         0.1400 
     86 CB         -3.0155  -24.3649  -48.9014 C.3       15 UNK        -0.1800 
     87 C          -5.4389  -24.5406  -49.6621 C.2       15 UNK         0.5000 
     88 O          -5.3690  -25.2378  -50.6755 O.2       15 UNK        -0.5000 
     89 N          -6.3586  -23.5762  -49.4858 N.am      16 UNK        -0.5000 
     90 CA         -7.5153  -23.2731  -50.3309 C.3       16 UNK         0.1400 
     91 CB         -8.5594  -24.4076  -50.2328 C.3       16 UNK        -0.1800 
     92 C          -7.1007  -22.9220  -51.7700 C.2       16 UNK         0.5000 
     93 O          -6.4862  -21.8750  -51.9738 O.2       16 UNK        -0.5000 
     94 N          -7.4052  -23.7997  -52.7356 N.am      17 UNK        -0.5000 
     95 CA         -7.0674  -23.6520  -54.1531 C.3       17 UNK         0.1400 
     96 CB         -7.6234  -24.8531  -54.9318 C.3       17 UNK        -0.1800 
     97 C          -5.5582  -23.4895  -54.4187 C.2       17 UNK         0.5000 
     98 O          -5.1802  -22.7505  -55.3275 O.2       17 UNK        -0.5000 
     99 N          -4.7240  -24.1441  -53.5984 N.am      18 UNK        -0.5000 
    100 CA        -3.2672  -24.0410  -53.6683 C.3       18 UNK         0.1400 
    101 CB        -2.6351  -25.2381  -52.9455 C.3       18 UNK        -0.1800 
    102 C         -2.7274  -22.7061  -53.1198 C.2       18 UNK         0.5000 
    103 O         -1.6497  -22.2899  -53.5408 O.2       18 UNK        -0.5000 
    104 N         -3.4795  -22.0450  -52.2260 N.am      19 UNK        -0.5000 
    105 CA        -3.1864  -20.6865  -51.7650 C.3       19 UNK         0.1400 
    106 CB        -3.7679  -20.4560  -50.3598 C.3       19 UNK        -0.1800 
    107 C         -3.7201  -19.6447  -52.7635 C.2       19 UNK         0.5000 
    108 O         -3.0115  -18.6944  -53.0956 O.2       19 UNK        -0.5000 
    109 N         -4.9447  -19.8659  -53.2643 N.am      20 UNK        -0.5000 
    110 CA        -5.6248  -19.0180  -54.2484 C.3       20 UNK         0.1400 
    111 CB        -7.0438  -19.5535  -54.4852 C.3       20 UNK        -0.1800 
    112 C         -4.8698  -18.8862  -55.5855 C.2       20 UNK         0.5000 
    113 O         -4.9823  -17.8510  -56.2431 O.2       20 UNK        -0.5000 
    114 N         -4.0747  -19.9075  -55.9356 N.am      21 UNK        -0.5000 
    115 CA        -3.1794  -19.9485  -57.0945 C.3       21 UNK         0.1400 
    116 CB        -2.4694  -21.3109  -57.1208 C.3       21 UNK        -0.1800 
    117 C         -2.1414  -18.8063  -57.1465 C.2       21 UNK         0.5000 
    118 O         -1.7085  -18.4437  -58.2413 O.2       21 UNK        -0.5000 
    119 N         -1.7776  -18.2508  -55.9828 N.am      22 UNK        -0.5000 
    120 CA        -0.9074  -17.0697  -55.8553 C.3       22 UNK         0.1400 
    121 C         -1.6796  -15.7170  -55.9061 C.2       22 UNK         0.5000 
    122 N         -3.0006  -15.6911  -56.0436 N.am      22 UNK        -0.7600 
    123 O         -1.0633  -14.6574  -55.8411 O.2       22 UNK        -0.5000 
    124 C124        0.0010  -17.1583  -54.6016 C.3       23 UNK        -0.0398 
    125 S125        1.1799  -18.5512  -54.6977 S.3       23 UNK        -0.2404 
    126 C126        0.4026  -19.7863  -53.6120 C.3       23 UNK        -0.0205 
    127 H127        1.4326  -11.9352  -53.6551 H         1 UNK         0.0600 
    128 H128       -0.1934  -12.4602  -53.2026 H         1 UNK         0.0600 
    129 H129        0.8466  -13.5272  -54.1473 H         1 UNK         0.0600 
    130 H130       -0.2067  -12.8069  -50.9630 H         1 UNK         0.3000 
    131 H131        2.0909  -13.5462  -49.4647 H         1 UNK         0.0600 
    132 H132        1.3205  -15.7205  -48.6016 H         1 UNK         0.0800 
    133 H133        1.5449  -15.8361  -50.3168 H         1 UNK         0.0800 
    134 H134       -1.5955  -18.1487  -49.0639 H         1 UNK         0.0800 
    135 H135       -0.2358  -17.6544  -48.0882 H         1 UNK         0.0800 
    136 H136       -0.9033  -18.2591  -51.7502 H         1 UNK         0.1150 
    137 H137        2.4577  -20.8847  -52.1993 H         1 UNK         0.1150 
    138 H138        1.6510  -19.0407  -48.4132 H         1 UNK         0.1150 
    139 H139        4.1631  -20.8577  -50.3252 H         1 UNK         0.0800 
    140 H140        3.7136  -20.2657  -48.7531 H         1 UNK         0.0800 
    141 H141        0.7799  -21.4957  -48.5054 H         1 UNK         0.0800 
    142 H142        0.7949  -23.1730  -48.1774 H         1 UNK         0.0800 
    143 H143        1.6523  -23.0202  -46.0617 H         1 UNK         0.0600 
    144 H144        3.4548  -21.0476  -47.0363 H         1 UNK         0.3000 
    145 H145        5.6366  -21.3963  -45.0645 H         1 UNK         0.0600 
    146 H146        4.2372  -18.8050  -45.9510 H         1 UNK         0.0600 
    147 H147        5.9813  -18.9477  -45.7572 H         1 UNK         0.0600 
    148 H148        5.1666  -19.9136  -46.9647 H         1 UNK         0.0600 
    149 H149        4.0979  -19.8063  -43.1719 H         1 UNK         0.3000 
    150 H150        6.7899  -19.7374  -40.8352 H         1 UNK         0.0600 
    151 H151        6.6575  -17.4449  -41.8294 H         1 UNK         0.0600 
    152 H152        5.7116  -17.5538  -40.3523 H         1 UNK         0.0600 
    153 H153        4.9043  -17.5724  -41.9195 H         1 UNK         0.0600 
    154 H154        3.9038  -19.4566  -40.6943 H         1 UNK         0.3000 
    155 H155        3.2133  -22.9040  -40.1540 H         1 UNK         0.0600 
    156 H156        2.0465  -21.9947  -38.1483 H         1 UNK         0.0600 
    157 H157        3.0622  -20.5538  -38.1978 H         1 UNK         0.0600 
    158 H158        3.7801  -22.1262  -37.8961 H         1 UNK         0.0600 
    159 H159        1.7148  -21.9720  -41.4262 H         1 UNK         0.3000 
    160 H160        0.5215  -20.5700  -42.6075 H         1 UNK         0.0600 
    161 H161       -0.9827  -19.2480  -40.2766 H         1 UNK         0.0600 
    162 H162       -0.9937  -20.9654  -40.6570 H         1 UNK         0.0600 
    163 H163       -1.7256  -19.8147  -41.7673 H         1 UNK         0.0600 
    164 H164       -0.3244  -17.9341  -42.3445 H         1 UNK         0.3000 
    165 H165        2.2566  -16.0288  -43.5383 H         1 UNK         0.0600 
    166 H166        0.3437  -17.2847  -45.5724 H         1 UNK         0.0600 
    167 H167        1.0750  -15.6904  -45.7267 H         1 UNK         0.0600 
    168 H168        2.0800  -17.1277  -45.7294 H         1 UNK         0.0600 
    169 H169       -0.6889  -16.0016  -43.6422 H         1 UNK         0.3000 
    170 H170       -1.1599  -14.9997  -40.4122 H         1 UNK         0.0600 
    171 H171       -0.1508  -12.7489  -40.8700 H         1 UNK         0.0600 
    172 H172       -1.0375  -12.6706  -42.3873 H         1 UNK         0.0600 
    173 H173       -1.9061  -12.7165  -40.8601 H         1 UNK         0.0600 
    174 H174       -2.5131  -14.4875  -42.9864 H         1 UNK         0.3000 
    175 H175       -4.1585  -17.6162  -42.9990 H         1 UNK         0.0600 
    176 H176       -5.4298  -14.9204  -42.2815 H         1 UNK         0.0600 
    177 H177       -6.2625  -16.3072  -42.9863 H         1 UNK         0.0600 
    178 H178       -5.6076  -16.4089  -41.3598 H         1 UNK         0.0600 
    179 H179       -4.5377  -15.2653  -44.5660 H         1 UNK         0.3000 
    180 H180       -2.6595  -16.4357  -47.2001 H         1 UNK         0.0600 
    181 H181       -4.3478  -14.0663  -46.2212 H         1 UNK         0.0600 
    182 H182       -4.9883  -15.5811  -46.8565 H         1 UNK         0.0600 
    183 H183       -4.0459  -14.5258  -47.8900 H         1 UNK         0.0600 
    184 H184       -1.0785  -14.8917  -47.3416 H         1 UNK         0.3000 
    185 H185       -0.5782  -11.8225  -46.3731 H         1 UNK         0.0600 
    186 H186        0.3202  -12.1515  -44.1247 H         1 UNK         0.0600 
    187 H187        1.1735  -13.6107  -44.6101 H         1 UNK         0.0600 
    188 H188        1.6528  -12.0428  -45.2517 H         1 UNK         0.0600 
    189 H189        1.3611  -13.8866  -47.1019 H         1 UNK         0.3000 
    190 H190       -0.4139  -22.8409  -45.2442 H         1 UNK         0.3000 
    191 H191       -1.3938  -20.2016  -44.3844 H         1 UNK         0.0600 
    192 H192       -3.0354  -21.5876  -43.1348 H         1 UNK         0.0600 
    193 H193       -1.4263  -22.2361  -42.8657 H         1 UNK         0.0600 
    194 H194       -2.5180  -23.0386  -43.9858 H         1 UNK         0.0600 
    195 H195       -3.6114  -19.5576  -44.8089 H         1 UNK         0.3000 
    196 H196       -4.6183  -19.7961  -47.4506 H         1 UNK         0.0600 
    197 H197       -6.6693  -18.7097  -46.4381 H         1 UNK         0.0600 
    198 H198       -5.1828  -17.8793  -46.0366 H         1 UNK         0.0600 
    199 H199       -5.9631  -18.9129  -44.8392 H         1 UNK         0.0600 
    200 H200       -4.9847  -21.8969  -44.7148 H         1 UNK         0.3000 
    201 H201       -7.3151  -23.3547  -45.3686 H         1 UNK         0.0600 
    202 H202       -6.1706  -23.4533  -43.1605 H         1 UNK         0.0600 
    203 H203       -4.7670  -24.2268  -43.8984 H         1 UNK         0.0600 
    204 H204       -6.3131  -25.0632  -43.8453 H         1 UNK         0.0600 
    205 H205       -4.2670  -23.2906  -47.0298 H         1 UNK         0.3000 
    206 H206       -4.4266  -25.8669  -48.3178 H         1 UNK         0.0600 
    207 H207       -2.3242  -24.4707  -48.0651 H         1 UNK         0.0600 
    208 H208       -2.6312  -24.9835  -49.7104 H         1 UNK         0.0600 
    209 H209       -2.9810  -23.3279  -49.2324 H         1 UNK         0.0600 
    210 H210       -6.2936  -23.0049  -48.6496 H         1 UNK         0.3000 
    211 H211       -7.9693  -22.3711  -49.9180 H         1 UNK         0.0600 
    212 H212       -8.1677  -25.3646  -50.5790 H         1 UNK         0.0600 
    213 H213       -9.4493  -24.1768  -50.8199 H         1 UNK         0.0600 
    214 H214       -8.8843  -24.5434  -49.2010 H         1 UNK         0.0600 
    215 H215       -7.8836  -24.6489  -52.4727 H         1 UNK         0.3000 
    216 H216       -7.5668  -22.7530  -54.5165 H         1 UNK         0.0600 
    217 H217       -7.1881  -25.7922  -54.5877 H         1 UNK         0.0600 
    218 H218       -7.4074  -24.7617  -55.9972 H         1 UNK         0.0600 
    219 H219       -8.7061  -24.9254  -54.8265 H         1 UNK         0.0600 
    220 H220       -5.1090  -24.6991  -52.8428 H         1 UNK         0.3000 
    221 H221       -2.9701  -24.0967  -54.7180 H         1 UNK         0.0600 
    222 H222       -2.9557  -25.2941  -51.9077 H         1 UNK         0.0600 
    223 H223       -2.9085  -26.1763  -53.4285 H         1 UNK         0.0600 
    224 H224       -1.5462  -25.1733  -52.9533 H         1 UNK         0.0600 
    225 H225       -4.3854  -22.4204  -51.9779 H         1 UNK         0.3000 
    226 H226       -2.1053  -20.5608  -51.6948 H         1 UNK         0.0600 
    227 H227       -3.2794  -21.0901  -49.6215 H         1 UNK         0.0600 
    228 H228       -3.6153  -19.4240  -50.0416 H         1 UNK         0.0600 
    229 H229       -4.8386  -20.6551  -50.3175 H         1 UNK         0.0600 
    230 H230       -5.4797  -20.6510  -52.8998 H         1 UNK         0.3000 
    231 H231       -5.7035  -18.0183  -53.8168 H         1 UNK         0.0600 
    232 H232       -7.6075  -18.8869  -55.1390 H         1 UNK         0.0600 
    233 H233       -7.5982  -19.6395  -53.5504 H         1 UNK         0.0600 
    234 H234       -7.0244  -20.5347  -54.9582 H         1 UNK         0.0600 
    235 H235       -4.1036  -20.7417  -55.3637 H         1 UNK         0.3000 
    236 H236       -3.8001  -19.8660  -57.9887 H         1 UNK         0.0600 
    237 H237       -1.8595  -21.4614  -56.2291 H         1 UNK         0.0600 
    238 H238       -3.1861  -22.1302  -57.1797 H         1 UNK         0.0600 
    239 H239       -1.8113  -21.3937  -57.9868 H         1 UNK         0.0600 
    240 H240       -2.2057  -18.5790  -55.1254 H         1 UNK         0.3000 
    241 H241       -0.2420  -17.0396  -56.7200 H         1 UNK         0.0600 
    242 H242       -3.5466  -16.5425  -56.1266 H         1 UNK         0.3800 
    243 H243       -3.4693  -14.8003  -56.0833 H         1 UNK         0.3800 
    244 H244        0.5974  -16.2508  -54.4926 H         1 UNK         0.0800 
    245 H245       -0.6049  -17.2261  -53.6993 H         1 UNK         0.0800 
    246 H246       -0.6777  -19.7736  -53.7506 H         1 UNK         0.0800 
    247 H247        0.7293  -20.7792  -53.9243 H         1 UNK         0.0800 
@<TRIPOS>BOND
     1    1    2 1    
     2    1  127 1    
     3    1  128 1    
     4    1  129 1    
     5    2    3 2    
     6    2    4 am   BACKBONE|DICT|INTERRES
     7    4    5 1    
     8    4  130 1    
     9    5    6 1    
    10    5   65 1    
    11    5  131 1    
    12    6    7 1    
    13    6  132 1    
    14    6  133 1    
    15    7    8 1    
    16    8    9 1    
    17    8  134 1    
    18    8  135 1    
    19    9   10 ar   
    20    9   14 ar   
    21   10   11 ar   
    22   10  136 1    
    23   11   12 ar   
    24   11  126 1    
    25   12   13 ar   
    26   12  137 1    
    27   13   14 ar   
    28   13   15 1    
    29   14  138 1    
    30   15   16 1    
    31   15  139 1    
    32   15  140 1    
    33   16   17 1    
    34   17   18 1    
    35   17  141 1    
    36   17  142 1    
    37   18   19 1    
    38   18   67 1    
    39   18  143 1    
    40   19   20 am   BACKBONE|DICT|INTERRES
    41   19  144 1    
    42   20   21 2    
    43   20   22 1    
    44   22   23 1    
    45   22   24 1    
    46   22  145 1    
    47   23  146 1    
    48   23  147 1    
    49   23  148 1    
    50   24   25 am   BACKBONE|DICT|INTERRES
    51   24  149 1    
    52   25   26 2    
    53   25   27 1    
    54   27   28 1    
    55   27   29 1    
    56   27  150 1    
    57   28  151 1    
    58   28  152 1    
    59   28  153 1    
    60   29   30 am   BACKBONE|DICT|INTERRES
    61   29  154 1    
    62   30   31 2    
    63   30   32 1    
    64   32   33 1    
    65   32   34 1    
    66   32  155 1    
    67   33  156 1    
    68   33  157 1    
    69   33  158 1    
    70   34   35 am   BACKBONE|DICT|INTERRES
    71   34  159 1    
    72   35   36 2    
    73   35   37 1    
    74   37   38 1    
    75   37   39 1    
    76   37  160 1    
    77   38  161 1    
    78   38  162 1    
    79   38  163 1    
    80   39   40 am   BACKBONE|DICT|INTERRES
    81   39  164 1    
    82   40   41 2    
    83   40   42 1    
    84   42   43 1    
    85   42   44 1    
    86   42  165 1    
    87   43  166 1    
    88   43  167 1    
    89   43  168 1    
    90   44   45 am   BACKBONE|DICT|INTERRES
    91   44  169 1    
    92   45   46 2    
    93   45   47 1    
    94   47   48 1    
    95   47   49 1    
    96   47  170 1    
    97   48  171 1    
    98   48  172 1    
    99   48  173 1    
   100   49   50 am   BACKBONE|DICT|INTERRES
   101   49  174 1    
   102   50   51 2    
   103   50   52 1    
   104   52   53 1    
   105   52   54 1    
   106   52  175 1    
   107   53  176 1    
   108   53  177 1    
   109   53  178 1    
   110   54   55 am   BACKBONE|DICT|INTERRES
   111   54  179 1    
   112   55   56 2    
   113   55   57 1    
   114   57   58 1    
   115   57   59 1    
   116   57  180 1    
   117   58  181 1    
   118   58  182 1    
   119   58  183 1    
   120   59   60 am   BACKBONE|DICT|INTERRES
   121   59  184 1    
   122   60   61 2    
   123   60   62 1    
   124   62   63 1    
   125   62   64 1    
   126   62  185 1    
   127   63  186 1    
   128   63  187 1    
   129   63  188 1    
   130   64   65 am   BACKBONE|DICT|INTERRES
   131   64  189 1    
   132   65   66 2    
   133   67   68 2    
   134   67   69 am   BACKBONE|DICT|INTERRES
   135   69   70 1    
   136   69  190 1    
   137   70   71 1    
   138   70   72 1    
   139   70  191 1    
   140   71  192 1    
   141   71  193 1    
   142   71  194 1    
   143   72   73 2    
   144   72   74 am   BACKBONE|DICT|INTERRES
   145   74   75 1    
   146   74  195 1    
   147   75   76 1    
   148   75   77 1    
   149   75  196 1    
   150   76  197 1    
   151   76  198 1    
   152   76  199 1    
   153   77   78 2    
   154   77   79 am   BACKBONE|DICT|INTERRES
   155   79   80 1    
   156   79  200 1    
   157   80   81 1    
   158   80   82 1    
   159   80  201 1    
   160   81  202 1    
   161   81  203 1    
   162   81  204 1    
   163   82   83 2    
   164   82   84 am   BACKBONE|DICT|INTERRES
   165   84   85 1    
   166   84  205 1    
   167   85   86 1    
   168   85   87 1    
   169   85  206 1    
   170   86  207 1    
   171   86  208 1    
   172   86  209 1    
   173   87   88 2    
   174   87   89 am   BACKBONE|DICT|INTERRES
   175   89   90 1    
   176   89  210 1    
   177   90   91 1    
   178   90   92 1    
   179   90  211 1    
   180   91  212 1    
   181   91  213 1    
   182   91  214 1    
   183   92   93 2    
   184   92   94 am   BACKBONE|DICT|INTERRES
   185   94   95 1    
   186   94  215 1    
   187   95   96 1    
   188   95   97 1    
   189   95  216 1    
   190   96  217 1    
   191   96  218 1    
   192   96  219 1    
   193   97   98 2    
   194   97   99 am   BACKBONE|DICT|INTERRES
   195   99  100 1    
   196   99  220 1    
   197  100  101 1    
   198  100  102 1    
   199  100  221 1    
   200  101  222 1    
   201  101  223 1    
   202  101  224 1    
   203  102  103 2    
   204  102  104 am   BACKBONE|DICT|INTERRES
   205  104  105 1    
   206  104  225 1    
   207  105  106 1    
   208  105  107 1    
   209  105  226 1    
   210  106  227 1    
   211  106  228 1    
   212  106  229 1    
   213  107  108 2    
   214  107  109 am   BACKBONE|DICT|INTERRES
   215  109  110 1    
   216  109  230 1    
   217  110  111 1    
   218  110  112 1    
   219  110  231 1    
   220  111  232 1    
   221  111  233 1    
   222  111  234 1    
   223  112  113 2    
   224  112  114 am   BACKBONE|DICT|INTERRES
   225  114  115 1    
   226  114  235 1    
   227  115  116 1    
   228  115  117 1    
   229  115  236 1    
   230  116  237 1    
   231  116  238 1    
   232  116  239 1    
   233  117  118 2    
   234  117  119 am   BACKBONE|DICT|INTERRES
   235  119  120 1    
   236  119  240 1    
   237  120  121 1    
   238  120  124 1    
   239  120  241 1    
   240  121  122 am   BACKBONE|DICT|INTERRES
   241  121  123 2    
   242  122  242 1    
   243  122  243 1    
   244  124  125 1    
   245  124  244 1    
   246  124  245 1    
   247  125  126 1    
   248  126  246 1    
   249  126  247 1    
@<TRIPOS>SUBSTRUCTURE
     1 UNK         1 GROUP             0       ****    0 ROOT    
