@<TRIPOS>MOLECULE
3R540
247   249    1
SMALL
USER_CHARGES


@<TRIPOS>ATOM
      1 CA          1.7694  -20.1489  -52.3602 C.3       0 UNK        -0.1800 
      2 C           2.2955  -18.9655  -51.5623 C.2       0 UNK         0.5000 
      3 O           2.9671  -19.1560  -50.5496 O.2       0 UNK        -0.5000 
      4 N           2.0077  -17.7385  -52.0148 N.am      1 UNK        -0.5000 
      5 CA          2.3313  -16.4716  -51.3374 C.3       1 UNK         0.1400 
      6 C6          1.6496  -15.2655  -52.0265 C.3       23 UNK        -0.0398 
      7 S7         -0.1610  -15.3372  -51.8162 S.3       23 UNK        -0.2404 
      8 C8         -0.3772  -14.1882  -50.4242 C.3       23 UNK        -0.0205 
      9 C9         -1.5935  -14.5441  -49.5864 C.ar      23 UNK        -0.0193 
     10 C10        -2.8385  -13.9672  -49.8560 C.ar      23 UNK        -0.1150 
     11 C11        -3.9409  -14.2562  -49.0451 C.ar      23 UNK        -0.0193 
     12 C12        -3.7914  -15.1301  -47.9647 C.ar      23 UNK        -0.1150 
     13 C13        -2.5574  -15.7276  -47.6997 C.ar      23 UNK        -0.0193 
     14 C14        -1.4620  -15.4315  -48.5144 C.ar      23 UNK        -0.1150 
     15 C15        -2.4066  -16.6740  -46.5217 C.3       23 UNK        -0.0205 
     16 S16        -3.1614  -18.2911  -46.8639 S.3       23 UNK        -0.2404 
     17 C17        -2.7246  -19.1892  -45.3407 C.3       23 UNK        -0.0398 
     18 CA         -1.5508  -20.1775  -45.5491 C.3       11 UNK         0.1400 
     19 N          -0.7837  -20.3520  -44.3139 N.am      11 UNK        -0.5000 
     20 C           0.3555  -21.0465  -44.1969 C.2       10 UNK         0.5000 
     21 O           0.9310  -21.5902  -45.1378 O.2       10 UNK        -0.5000 
     22 CA          0.9172  -21.1950  -42.7744 C.3       10 UNK         0.1400 
     23 CB          1.7006  -19.9390  -42.3663 C.3       10 UNK        -0.1800 
     24 N          -0.1422  -21.4598  -41.7992 N.am      10 UNK        -0.5000 
     25 C          -0.8383  -22.6044  -41.7363 C.2       9 UNK         0.5000 
     26 O          -0.6357  -23.5680  -42.4732 O.2       9 UNK        -0.5000 
     27 CA         -1.9852  -22.6662  -40.7119 C.3       9 UNK         0.1400 
     28 CB         -1.4443  -22.9766  -39.3083 C.3       9 UNK        -0.1800 
     29 N          -2.7696  -21.4322  -40.6697 N.am      9 UNK        -0.5000 
     30 C          -3.5063  -20.9637  -41.6871 C.2       8 UNK         0.5000 
     31 O          -3.6318  -21.5414  -42.7659 O.2       8 UNK        -0.5000 
     32 CA         -4.1688  -19.5890  -41.4840 C.3       8 UNK         0.1400 
     33 CB         -5.5462  -19.7456  -40.8234 C.3       8 UNK        -0.1800 
     34 N          -3.3538  -18.6564  -40.6988 N.am      8 UNK        -0.5000 
     35 C          -2.1311  -18.2369  -41.0489 C.2       7 UNK         0.5000 
     36 O          -1.5294  -18.6426  -42.0458 O.2       7 UNK        -0.5000 
     37 CA         -1.4455  -17.2346  -40.1045 C.3       7 UNK         0.1400 
     38 CB         -0.3506  -17.9362  -39.2859 C.3       7 UNK        -0.1800 
     39 N          -0.8488  -16.1320  -40.8543 N.am      7 UNK        -0.5000 
     40 C          -1.5424  -15.1959  -41.5169 C.2       6 UNK         0.5000 
     41 O          -2.7690  -15.0933  -41.4651 O.2       6 UNK        -0.5000 
     42 CA         -0.7391  -14.2003  -42.3805 C.3       6 UNK         0.1400 
     43 CB         -0.5873  -12.8572  -41.6493 C.3       6 UNK        -0.1800 
     44 N           0.5908  -14.6743  -42.7807 N.am      6 UNK        -0.5000 
     45 C           0.8179  -15.7177  -43.5885 C.2       5 UNK         0.5000 
     46 O          -0.0769  -16.4231  -44.0607 O.2       5 UNK        -0.5000 
     47 CA          2.2876  -16.0245  -43.9182 C.3       5 UNK         0.1400 
     48 CB          3.0919  -16.4022  -42.6614 C.3       5 UNK        -0.1800 
     49 N           2.3124  -17.1347  -44.8623 N.am      5 UNK        -0.5000 
     50 C           3.0921  -17.2326  -45.9407 C.2       4 UNK         0.5000 
     51 O           3.9833  -16.4281  -46.2239 O.2       4 UNK        -0.5000 
     52 CA          2.7560  -18.4073  -46.8796 C.3       4 UNK         0.1400 
     53 CB          1.4642  -18.1026  -47.6547 C.3       4 UNK        -0.1800 
     54 N           3.8165  -18.7173  -47.8392 N.am      4 UNK        -0.5000 
     55 C           5.0283  -19.1959  -47.5267 C.2       3 UNK         0.5000 
     56 O           5.3925  -19.4297  -46.3732 O.2       3 UNK        -0.5000 
     57 CA          5.9957  -19.4895  -48.6878 C.3       3 UNK         0.1400 
     58 CB          5.8923  -20.9655  -49.1058 C.3       3 UNK        -0.1800 
     59 N           5.7388  -18.6526  -49.8625 N.am      3 UNK        -0.5000 
     60 C           6.5694  -17.7106  -50.3326 C.2       2 UNK         0.5000 
     61 O           7.6435  -17.4209  -49.8037 O.2       2 UNK        -0.5000 
     62 CA          6.1512  -16.9712  -51.6225 C.3       2 UNK         0.1400 
     63 CB          6.8235  -17.6113  -52.8469 C.3       2 UNK        -0.1800 
     64 N           4.7040  -16.9533  -51.8357 N.am      2 UNK        -0.5000 
     65 C           3.8412  -16.2163  -51.1238 C.2       1 UNK         0.5000 
     66 O           4.1945  -15.3770  -50.2952 O.2       1 UNK        -0.5000 
     67 C          -2.0272  -21.5245  -46.1389 C.2       11 UNK         0.5000 
     68 O          -1.9480  -21.7248  -47.3528 O.2       11 UNK        -0.5000 
     69 N          -2.4823  -22.4333  -45.2653 N.am      12 UNK        -0.5000 
     70 CA         -2.8661  -23.8001  -45.6078 C.3       12 UNK         0.1400 
     71 CB         -3.6588  -24.4200  -44.4477 C.3       12 UNK        -0.1800 
     72 C          -1.6577  -24.6759  -45.9801 C.2       12 UNK         0.5000 
     73 O          -1.7111  -25.3633  -46.9991 O.2       12 UNK        -0.5000 
     74 N          -0.5855  -24.6230  -45.1751 N.am      13 UNK        -0.5000 
     75 CA          0.6468  -25.3951  -45.3736 C.3       13 UNK         0.1400 
     76 CB          1.5731  -25.2146  -44.1620 C.3       13 UNK        -0.1800 
     77 C           1.3893  -25.0411  -46.6748 C.2       13 UNK         0.5000 
     78 O           1.9023  -25.9364  -47.3469 O.2       13 UNK        -0.5000 
     79 N           1.4010  -23.7486  -47.0233 N.am      14 UNK        -0.5000 
     80 CA          1.9413  -23.2261  -48.2791 C.3       14 UNK         0.1400 
     81 CB          2.1756  -21.7212  -48.1109 C.3       14 UNK        -0.1800 
     82 C           1.0294  -23.4823  -49.4955 C.2       14 UNK         0.5000 
     83 O           1.4679  -23.2731  -50.6260 O.2       14 UNK        -0.5000 
     84 N          -0.2200  -23.8995  -49.2416 N.am      15 UNK        -0.5000 
     85 CA         -1.3060  -24.1359  -50.1963 C.3       15 UNK         0.1400 
     86 CB         -0.9316  -25.2231  -51.2248 C.3       15 UNK        -0.1800 
     87 C          -1.8447  -22.8519  -50.8587 C.2       15 UNK         0.5000 
     88 O          -2.5819  -22.9457  -51.8389 O.2       15 UNK        -0.5000 
     89 N          -1.5331  -21.6790  -50.2895 N.am      16 UNK        -0.5000 
     90 CA         -2.0526  -20.3786  -50.7160 C.3       16 UNK         0.1400 
     91 CB         -1.3057  -19.2588  -49.9758 C.3       16 UNK        -0.1800 
     92 C          -3.5703  -20.2666  -50.4941 C.2       16 UNK         0.5000 
     93 O          -4.2804  -19.7624  -51.3657 O.2       16 UNK        -0.5000 
     94 N          -4.0414  -20.7972  -49.3567 N.am      17 UNK        -0.5000 
     95 CA         -5.4611  -20.8892  -49.0172 C.3       17 UNK         0.1400 
     96 CB         -5.6097  -21.2815  -47.5390 C.3       17 UNK        -0.1800 
     97 C          -6.2149  -21.8876  -49.9154 C.2       17 UNK         0.5000 
     98 O          -7.3585  -21.6268  -50.2879 O.2       17 UNK        -0.5000 
     99 N          -5.5531  -23.0026  -50.2565 N.am      18 UNK        -0.5000 
    100 CA        -6.0905  -24.0659  -51.1068 C.3       18 UNK         0.1400 
    101 CB        -5.2246  -25.3262  -50.9558 C.3       18 UNK        -0.1800 
    102 C         -6.1914  -23.6423  -52.5828 C.2       18 UNK         0.5000 
    103 O         -7.1964  -23.9320  -53.2327 O.2       18 UNK        -0.5000 
    104 N         -5.1600  -22.9438  -53.0761 N.am      19 UNK        -0.5000 
    105 CA        -5.0933  -22.3908  -54.4298 C.3       19 UNK         0.1400 
    106 CB        -3.6307  -22.0401  -54.7473 C.3       19 UNK        -0.1800 
    107 C         -5.9861  -21.1512  -54.6322 C.2       19 UNK         0.5000 
    108 O         -6.2405  -20.7830  -55.7796 O.2       19 UNK        -0.5000 
    109 N         -6.4161  -20.5237  -53.5261 N.am      20 UNK        -0.5000 
    110 CA        -7.1282  -19.2448  -53.4474 C.3       20 UNK         0.1400 
    111 CB        -8.5298  -19.3395  -54.0847 C.3       20 UNK        -0.1800 
    112 C         -6.2684  -18.0979  -54.0148 C.2       20 UNK         0.5000 
    113 O         -6.7248  -17.3168  -54.8537 O.2       20 UNK        -0.5000 
    114 N         -5.0169  -18.0327  -53.5377 N.am      21 UNK        -0.5000 
    115 CA        -3.9661  -17.1144  -53.9874 C.3       21 UNK         0.1400 
    116 CB        -2.6420  -17.5226  -53.3270 C.3       21 UNK        -0.1800 
    117 C         -4.2666  -15.6193  -53.7495 C.2       21 UNK         0.5000 
    118 O         -3.5886  -14.7685  -54.3272 O.2       21 UNK        -0.5000 
    119 N         -5.2910  -15.3268  -52.9388 N.am      22 UNK        -0.5000 
    120 CA        -5.8775  -13.9931  -52.7435 C.3       22 UNK         0.1400 
    121 C         -6.5052  -13.3742  -54.0287 C.2       22 UNK         0.5000 
    122 N         -6.8844  -14.1649  -55.0279 N.am      22 UNK        -0.7600 
    123 O         -6.6542  -12.1585  -54.1154 O.2       22 UNK        -0.5000 
    124 C124       -6.9309  -13.9771  -51.6029 C.3       23 UNK        -0.0398 
    125 S125       -6.4182  -14.8420  -50.0811 S.3       23 UNK        -0.2404 
    126 C126       -5.2961  -13.6283  -49.3236 C.3       23 UNK        -0.0205 
    127 H127        1.0977  -20.7457  -51.7434 H         1 UNK         0.0600 
    128 H128        2.5956  -20.7858  -52.6754 H         1 UNK         0.0600 
    129 H129        1.2230  -19.8301  -53.2479 H         1 UNK         0.0600 
    130 H130        1.4542  -17.6443  -52.8544 H         1 UNK         0.3000 
    131 H131        1.9157  -16.5474  -50.3325 H         1 UNK         0.0600 
    132 H132        2.0130  -14.3160  -51.6285 H         1 UNK         0.0800 
    133 H133        1.8818  -15.2505  -53.0925 H         1 UNK         0.0800 
    134 H134        0.5087  -14.2021  -49.7871 H         1 UNK         0.0800 
    135 H135       -0.4623  -13.1703  -50.8075 H         1 UNK         0.0800 
    136 H136       -2.9453  -13.2886  -50.6906 H         1 UNK         0.1150 
    137 H137       -4.6417  -15.3576  -47.3369 H         1 UNK         0.1150 
    138 H138       -0.5024  -15.8825  -48.3083 H         1 UNK         0.1150 
    139 H139       -1.3523  -16.8165  -46.2862 H         1 UNK         0.0800 
    140 H140       -2.8655  -16.2327  -45.6355 H         1 UNK         0.0800 
    141 H141       -3.6122  -19.6948  -44.9563 H         1 UNK         0.0800 
    142 H142       -2.4642  -18.4503  -44.5811 H         1 UNK         0.0800 
    143 H143       -0.8568  -19.7443  -46.2713 H         1 UNK         0.0600 
    144 H144       -1.1509  -19.8940  -43.4839 H         1 UNK         0.3000 
    145 H145        1.6067  -22.0415  -42.7702 H         1 UNK         0.0600 
    146 H146        2.1303  -20.0470  -41.3704 H         1 UNK         0.0600 
    147 H147        2.5241  -19.7528  -43.0571 H         1 UNK         0.0600 
    148 H148        1.0682  -19.0512  -42.3648 H         1 UNK         0.0600 
    149 H149       -0.4153  -20.6910  -41.2053 H         1 UNK         0.3000 
    150 H150       -2.6518  -23.4788  -41.0086 H         1 UNK         0.0600 
    151 H151       -0.7934  -22.1824  -38.9405 H         1 UNK         0.0600 
    152 H152       -0.8658  -23.9014  -39.3093 H         1 UNK         0.0600 
    153 H153       -2.2565  -23.1039  -38.5923 H         1 UNK         0.0600 
    154 H154       -2.7220  -20.8879  -39.8213 H         1 UNK         0.3000 
    155 H155       -4.3137  -19.1475  -42.4721 H         1 UNK         0.0600 
    156 H156       -5.4660  -20.1512  -39.8141 H         1 UNK         0.0600 
    157 H157       -6.1807  -20.4207  -41.3993 H         1 UNK         0.0600 
    158 H158       -6.0652  -18.7889  -40.7613 H         1 UNK         0.0600 
    159 H159       -3.7789  -18.2843  -39.8618 H         1 UNK         0.3000 
    160 H160       -2.1861  -16.8227  -39.4156 H         1 UNK         0.0600 
    161 H161        0.4326  -18.3455  -39.9253 H         1 UNK         0.0600 
    162 H162       -0.7643  -18.7608  -38.7040 H         1 UNK         0.0600 
    163 H163        0.1180  -17.2471  -38.5831 H         1 UNK         0.0600 
    164 H164        0.1511  -16.1588  -40.9806 H         1 UNK         0.3000 
    165 H165       -1.3171  -14.0284  -43.2911 H         1 UNK         0.0600 
    166 H166       -0.1052  -12.1136  -42.2842 H         1 UNK         0.0600 
    167 H167       -1.5601  -12.4549  -41.3630 H         1 UNK         0.0600 
    168 H168        0.0058  -12.9598  -40.7397 H         1 UNK         0.0600 
    169 H169        1.3765  -14.1450  -42.4311 H         1 UNK         0.3000 
    170 H170        2.7197  -15.1314  -44.3745 H         1 UNK         0.0600 
    171 H171        2.6301  -17.2237  -42.1145 H         1 UNK         0.0600 
    172 H172        4.1069  -16.7038  -42.9209 H         1 UNK         0.0600 
    173 H173        3.1738  -15.5582  -41.9761 H         1 UNK         0.0600 
    174 H174        1.5244  -17.7613  -44.7627 H         1 UNK         0.3000 
    175 H175        2.5936  -19.2964  -46.2666 H         1 UNK         0.0600 
    176 H176        1.5459  -17.1666  -48.2047 H         1 UNK         0.0600 
    177 H177        1.2271  -18.8910  -48.3670 H         1 UNK         0.0600 
    178 H178        0.6134  -18.0086  -46.9809 H         1 UNK         0.0600 
    179 H179        3.5731  -18.6244  -48.8193 H         1 UNK         0.3000 
    180 H180        7.0059  -19.3201  -48.3097 H         1 UNK         0.0600 
    181 H181        4.9176  -21.1947  -49.5371 H         1 UNK         0.0600 
    182 H182        6.0398  -21.6284  -48.2521 H         1 UNK         0.0600 
    183 H183        6.6511  -21.2162  -49.8470 H         1 UNK         0.0600 
    184 H184        4.8538  -18.8097  -50.3347 H         1 UNK         0.3000 
    185 H185        6.5024  -15.9403  -51.5414 H         1 UNK         0.0600 
    186 H186        7.9090  -17.6166  -52.7384 H         1 UNK         0.0600 
    187 H187        6.5029  -18.6443  -52.9881 H         1 UNK         0.0600 
    188 H188        6.5922  -17.0593  -53.7580 H         1 UNK         0.0600 
    189 H189        4.3309  -17.6204  -52.4953 H         1 UNK         0.3000 
    190 H190       -2.5895  -22.1656  -44.2915 H         1 UNK         0.3000 
    191 H191       -3.5229  -23.7607  -46.4786 H         1 UNK         0.0600 
    192 H192       -4.5639  -23.8482  -44.2419 H         1 UNK         0.0600 
    193 H193       -3.9645  -25.4401  -44.6832 H         1 UNK         0.0600 
    194 H194       -3.0715  -24.4552  -43.5297 H         1 UNK         0.0600 
    195 H195       -0.6318  -24.0630  -44.3281 H         1 UNK         0.3000 
    196 H196        0.3685  -26.4493  -45.4317 H         1 UNK         0.0600 
    197 H197        2.4952  -25.7841  -44.2850 H         1 UNK         0.0600 
    198 H198        1.0968  -25.5641  -43.2460 H         1 UNK         0.0600 
    199 H199        1.8483  -24.1692  -44.0203 H         1 UNK         0.0600 
    200 H200        1.0166  -23.0628  -46.3779 H         1 UNK         0.3000 
    201 H201        2.9020  -23.7051  -48.4785 H         1 UNK         0.0600 
    202 H202        2.8930  -21.5247  -47.3145 H         1 UNK         0.0600 
    203 H203        1.2491  -21.2005  -47.8675 H         1 UNK         0.0600 
    204 H204        2.5710  -21.2789  -49.0246 H         1 UNK         0.0600 
    205 H205       -0.4688  -24.0615  -48.2738 H         1 UNK         0.3000 
    206 H206       -2.1344  -24.5259  -49.6039 H         1 UNK         0.0600 
    207 H207       -0.5577  -26.1200  -50.7310 H         1 UNK         0.0600 
    208 H208       -1.7982  -25.5183  -51.8170 H         1 UNK         0.0600 
    209 H209       -0.1681  -24.8787  -51.9224 H         1 UNK         0.0600 
    210 H210       -1.0103  -21.6987  -49.4244 H         1 UNK         0.3000 
    211 H211       -1.8637  -20.2701  -51.7857 H         1 UNK         0.0600 
    212 H212       -1.3457  -19.3941  -48.8955 H         1 UNK         0.0600 
    213 H213       -0.2577  -19.2295  -50.2645 H         1 UNK         0.0600 
    214 H214       -1.7299  -18.2790  -50.1992 H         1 UNK         0.0600 
    215 H215       -3.3759  -21.1709  -48.6879 H         1 UNK         0.3000 
    216 H216       -5.9098  -19.9034  -49.1576 H         1 UNK         0.0600 
    217 H217       -6.6611  -21.3423  -47.2554 H         1 UNK         0.0600 
    218 H218       -5.1420  -20.5474  -46.8845 H         1 UNK         0.0600 
    219 H219       -5.1578  -22.2512  -47.3315 H         1 UNK         0.0600 
    220 H220       -4.6068  -23.1157  -49.9287 H         1 UNK         0.3000 
    221 H221       -7.0978  -24.3044  -50.7582 H         1 UNK         0.0600 
    222 H222       -4.2019  -25.1573  -51.2922 H         1 UNK         0.0600 
    223 H223       -5.1868  -25.6583  -49.9181 H         1 UNK         0.0600 
    224 H224       -5.6304  -26.1492  -51.5454 H         1 UNK         0.0600 
    225 H225       -4.3332  -22.8094  -52.4987 H         1 UNK         0.3000 
    226 H226       -5.4244  -23.1564  -55.1345 H         1 UNK         0.0600 
    227 H227       -2.9880  -22.9169  -54.6661 H         1 UNK         0.0600 
    228 H228       -3.5293  -21.6561  -55.7631 H         1 UNK         0.0600 
    229 H229       -3.2455  -21.2784  -54.0676 H         1 UNK         0.0600 
    230 H230       -6.1140  -20.9038  -52.6395 H         1 UNK         0.3000 
    231 H231       -7.2632  -19.0345  -52.3852 H         1 UNK         0.0600 
    232 H232       -8.4809  -19.4937  -55.1628 H         1 UNK         0.0600 
    233 H233       -9.0957  -18.4232  -53.9133 H         1 UNK         0.0600 
    234 H234       -9.1025  -20.1608  -53.6537 H         1 UNK         0.0600 
    235 H235       -4.7450  -18.6995  -52.8177 H         1 UNK         0.3000 
    236 H236       -3.8612  -17.2487  -55.0657 H         1 UNK         0.0600 
    237 H237       -2.4076  -18.5690  -53.5215 H         1 UNK         0.0600 
    238 H238       -1.8152  -16.9294  -53.7181 H         1 UNK         0.0600 
    239 H239       -2.6737  -17.3761  -52.2469 H         1 UNK         0.0600 
    240 H240       -5.7692  -16.0902  -52.4855 H         1 UNK         0.3000 
    241 H241       -5.0586  -13.3341  -52.4499 H         1 UNK         0.0600 
    242 H242       -6.7793  -15.1710  -54.9634 H         1 UNK         0.3800 
    243 H243       -7.2893  -13.7582  -55.8563 H         1 UNK         0.3800 
    244 H244       -7.8523  -14.4568  -51.9387 H         1 UNK         0.0800 
    245 H245       -7.2050  -12.9514  -51.3494 H         1 UNK         0.0800 
    246 H246       -5.7344  -13.2712  -48.3906 H         1 UNK         0.0800 
    247 H247       -5.1846  -12.7514  -49.9628 H         1 UNK         0.0800 
@<TRIPOS>BOND
     1    1    2 1    
     2    1  127 1    
     3    1  128 1    
     4    1  129 1    
     5    2    3 2    
     6    2    4 am   BACKBONE|DICT|INTERRES
     7    4    5 1    
     8    4  130 1    
     9    5    6 1    
    10    5   65 1    
    11    5  131 1    
    12    6    7 1    
    13    6  132 1    
    14    6  133 1    
    15    7    8 1    
    16    8    9 1    
    17    8  134 1    
    18    8  135 1    
    19    9   10 ar   
    20    9   14 ar   
    21   10   11 ar   
    22   10  136 1    
    23   11   12 ar   
    24   11  126 1    
    25   12   13 ar   
    26   12  137 1    
    27   13   14 ar   
    28   13   15 1    
    29   14  138 1    
    30   15   16 1    
    31   15  139 1    
    32   15  140 1    
    33   16   17 1    
    34   17   18 1    
    35   17  141 1    
    36   17  142 1    
    37   18   19 1    
    38   18   67 1    
    39   18  143 1    
    40   19   20 am   BACKBONE|DICT|INTERRES
    41   19  144 1    
    42   20   21 2    
    43   20   22 1    
    44   22   23 1    
    45   22   24 1    
    46   22  145 1    
    47   23  146 1    
    48   23  147 1    
    49   23  148 1    
    50   24   25 am   BACKBONE|DICT|INTERRES
    51   24  149 1    
    52   25   26 2    
    53   25   27 1    
    54   27   28 1    
    55   27   29 1    
    56   27  150 1    
    57   28  151 1    
    58   28  152 1    
    59   28  153 1    
    60   29   30 am   BACKBONE|DICT|INTERRES
    61   29  154 1    
    62   30   31 2    
    63   30   32 1    
    64   32   33 1    
    65   32   34 1    
    66   32  155 1    
    67   33  156 1    
    68   33  157 1    
    69   33  158 1    
    70   34   35 am   BACKBONE|DICT|INTERRES
    71   34  159 1    
    72   35   36 2    
    73   35   37 1    
    74   37   38 1    
    75   37   39 1    
    76   37  160 1    
    77   38  161 1    
    78   38  162 1    
    79   38  163 1    
    80   39   40 am   BACKBONE|DICT|INTERRES
    81   39  164 1    
    82   40   41 2    
    83   40   42 1    
    84   42   43 1    
    85   42   44 1    
    86   42  165 1    
    87   43  166 1    
    88   43  167 1    
    89   43  168 1    
    90   44   45 am   BACKBONE|DICT|INTERRES
    91   44  169 1    
    92   45   46 2    
    93   45   47 1    
    94   47   48 1    
    95   47   49 1    
    96   47  170 1    
    97   48  171 1    
    98   48  172 1    
    99   48  173 1    
   100   49   50 am   BACKBONE|DICT|INTERRES
   101   49  174 1    
   102   50   51 2    
   103   50   52 1    
   104   52   53 1    
   105   52   54 1    
   106   52  175 1    
   107   53  176 1    
   108   53  177 1    
   109   53  178 1    
   110   54   55 am   BACKBONE|DICT|INTERRES
   111   54  179 1    
   112   55   56 2    
   113   55   57 1    
   114   57   58 1    
   115   57   59 1    
   116   57  180 1    
   117   58  181 1    
   118   58  182 1    
   119   58  183 1    
   120   59   60 am   BACKBONE|DICT|INTERRES
   121   59  184 1    
   122   60   61 2    
   123   60   62 1    
   124   62   63 1    
   125   62   64 1    
   126   62  185 1    
   127   63  186 1    
   128   63  187 1    
   129   63  188 1    
   130   64   65 am   BACKBONE|DICT|INTERRES
   131   64  189 1    
   132   65   66 2    
   133   67   68 2    
   134   67   69 am   BACKBONE|DICT|INTERRES
   135   69   70 1    
   136   69  190 1    
   137   70   71 1    
   138   70   72 1    
   139   70  191 1    
   140   71  192 1    
   141   71  193 1    
   142   71  194 1    
   143   72   73 2    
   144   72   74 am   BACKBONE|DICT|INTERRES
   145   74   75 1    
   146   74  195 1    
   147   75   76 1    
   148   75   77 1    
   149   75  196 1    
   150   76  197 1    
   151   76  198 1    
   152   76  199 1    
   153   77   78 2    
   154   77   79 am   BACKBONE|DICT|INTERRES
   155   79   80 1    
   156   79  200 1    
   157   80   81 1    
   158   80   82 1    
   159   80  201 1    
   160   81  202 1    
   161   81  203 1    
   162   81  204 1    
   163   82   83 2    
   164   82   84 am   BACKBONE|DICT|INTERRES
   165   84   85 1    
   166   84  205 1    
   167   85   86 1    
   168   85   87 1    
   169   85  206 1    
   170   86  207 1    
   171   86  208 1    
   172   86  209 1    
   173   87   88 2    
   174   87   89 am   BACKBONE|DICT|INTERRES
   175   89   90 1    
   176   89  210 1    
   177   90   91 1    
   178   90   92 1    
   179   90  211 1    
   180   91  212 1    
   181   91  213 1    
   182   91  214 1    
   183   92   93 2    
   184   92   94 am   BACKBONE|DICT|INTERRES
   185   94   95 1    
   186   94  215 1    
   187   95   96 1    
   188   95   97 1    
   189   95  216 1    
   190   96  217 1    
   191   96  218 1    
   192   96  219 1    
   193   97   98 2    
   194   97   99 am   BACKBONE|DICT|INTERRES
   195   99  100 1    
   196   99  220 1    
   197  100  101 1    
   198  100  102 1    
   199  100  221 1    
   200  101  222 1    
   201  101  223 1    
   202  101  224 1    
   203  102  103 2    
   204  102  104 am   BACKBONE|DICT|INTERRES
   205  104  105 1    
   206  104  225 1    
   207  105  106 1    
   208  105  107 1    
   209  105  226 1    
   210  106  227 1    
   211  106  228 1    
   212  106  229 1    
   213  107  108 2    
   214  107  109 am   BACKBONE|DICT|INTERRES
   215  109  110 1    
   216  109  230 1    
   217  110  111 1    
   218  110  112 1    
   219  110  231 1    
   220  111  232 1    
   221  111  233 1    
   222  111  234 1    
   223  112  113 2    
   224  112  114 am   BACKBONE|DICT|INTERRES
   225  114  115 1    
   226  114  235 1    
   227  115  116 1    
   228  115  117 1    
   229  115  236 1    
   230  116  237 1    
   231  116  238 1    
   232  116  239 1    
   233  117  118 2    
   234  117  119 am   BACKBONE|DICT|INTERRES
   235  119  120 1    
   236  119  240 1    
   237  120  121 1    
   238  120  124 1    
   239  120  241 1    
   240  121  122 am   BACKBONE|DICT|INTERRES
   241  121  123 2    
   242  122  242 1    
   243  122  243 1    
   244  124  125 1    
   245  124  244 1    
   246  124  245 1    
   247  125  126 1    
   248  126  246 1    
   249  126  247 1    
@<TRIPOS>SUBSTRUCTURE
     1 UNK         1 GROUP             0       ****    0 ROOT    
