@<TRIPOS>MOLECULE
3R540
247   249    1
SMALL
USER_CHARGES


@<TRIPOS>ATOM
      1 CA         -1.8088  -11.3341  -48.9249 C.3       0 UNK        -0.1800 
      2 C          -2.2329  -11.7371  -47.5198 C.2       0 UNK         0.5000 
      3 O          -2.7785  -10.9124  -46.7867 O.2       0 UNK        -0.5000 
      4 N          -1.9758  -12.9993  -47.1483 N.am      1 UNK        -0.5000 
      5 CA         -2.3176  -13.6181  -45.8566 C.3       1 UNK         0.1400 
      6 C6         -3.8465  -13.7123  -45.5776 C.3       23 UNK        -0.0398 
      7 S7         -4.8210  -14.4066  -46.9562 S.3       23 UNK        -0.2404 
      8 C8         -4.4974  -16.1872  -46.7846 C.3       23 UNK        -0.0205 
      9 C9         -3.9928  -16.7610  -48.0969 C.ar      23 UNK        -0.0193 
     10 C10        -4.8920  -17.2613  -49.0437 C.ar      23 UNK        -0.1150 
     11 C11        -4.4283  -17.7671  -50.2617 C.ar      23 UNK        -0.0193 
     12 C12        -3.0552  -17.7783  -50.5244 C.ar      23 UNK        -0.1150 
     13 C13        -2.1492  -17.2733  -49.5882 C.ar      23 UNK        -0.0193 
     14 C14        -2.6240  -16.7716  -48.3740 C.ar      23 UNK        -0.1150 
     15 C15        -0.6619  -17.2354  -49.9016 C.3       23 UNK        -0.0205 
     16 S16         0.3036  -18.3308  -48.8195 S.3       23 UNK        -0.2404 
     17 C17        -0.2491  -19.9848  -49.3552 C.3       23 UNK        -0.0398 
     18 CA         -0.8109  -20.8620  -48.2099 C.3       11 UNK         0.1400 
     19 N           0.0654  -20.8943  -47.0333 N.am      11 UNK        -0.5000 
     20 C           0.0251  -21.8289  -46.0757 C.2       10 UNK         0.5000 
     21 O          -0.8184  -22.7243  -46.0478 O.2       10 UNK        -0.5000 
     22 CA          1.1125  -21.7646  -44.9878 C.3       10 UNK         0.1400 
     23 CB          2.4664  -21.2596  -45.5236 C.3       10 UNK        -0.1800 
     24 N           0.7108  -20.9329  -43.8567 N.am      10 UNK        -0.5000 
     25 C          -0.1841  -21.2748  -42.9192 C.2       9 UNK         0.5000 
     26 O          -0.8275  -22.3239  -42.9297 O.2       9 UNK        -0.5000 
     27 CA         -0.3771  -20.2917  -41.7537 C.3       9 UNK         0.1400 
     28 CB          0.7759  -20.4215  -40.7448 C.3       9 UNK        -0.1800 
     29 N          -0.4435  -18.9095  -42.2244 N.am      9 UNK        -0.5000 
     30 C          -1.5450  -18.1464  -42.2022 C.2       8 UNK         0.5000 
     31 O          -2.6280  -18.5229  -41.7541 O.2       8 UNK        -0.5000 
     32 CA         -1.4264  -16.7053  -42.7429 C.3       8 UNK         0.1400 
     33 CB         -1.3005  -15.7318  -41.5607 C.3       8 UNK        -0.1800 
     34 N          -0.2940  -16.4945  -43.6466 N.am      8 UNK        -0.5000 
     35 C          -0.1173  -17.0891  -44.8351 C.2       7 UNK         0.5000 
     36 O          -0.9341  -17.8432  -45.3605 O.2       7 UNK        -0.5000 
     37 CA          1.2382  -16.8437  -45.5177 C.3       7 UNK         0.1400 
     38 CB          1.1596  -15.6477  -46.4784 C.3       7 UNK        -0.1800 
     39 N           2.3234  -16.6167  -44.5625 N.am      7 UNK        -0.5000 
     40 C           2.7803  -17.5014  -43.6651 C.2       6 UNK         0.5000 
     41 O           2.2834  -18.6181  -43.5148 O.2       6 UNK        -0.5000 
     42 CA          3.9353  -17.0548  -42.7436 C.3       6 UNK         0.1400 
     43 CB          5.0153  -18.1453  -42.5977 C.3       6 UNK        -0.1800 
     44 N           4.5190  -15.7575  -43.1089 N.am      6 UNK        -0.5000 
     45 C           5.2196  -15.4381  -44.2096 C.2       5 UNK         0.5000 
     46 O           5.5777  -16.2561  -45.0567 O.2       5 UNK        -0.5000 
     47 CA          5.5178  -13.9426  -44.4418 C.3       5 UNK         0.1400 
     48 CB          4.7707  -13.4458  -45.6910 C.3       5 UNK        -0.1800 
     49 N           5.1184  -13.1076  -43.3077 N.am      5 UNK        -0.5000 
     50 C           5.8914  -12.8285  -42.2498 C.2       4 UNK         0.5000 
     51 O           7.0624  -13.1925  -42.1407 O.2       4 UNK        -0.5000 
     52 CA          5.2317  -12.0285  -41.1089 C.3       4 UNK         0.1400 
     53 CB          5.4836  -10.5243  -41.2929 C.3       4 UNK        -0.1800 
     54 N           3.7880  -12.2608  -40.9955 N.am      4 UNK        -0.5000 
     55 C           3.2224  -13.4258  -40.6464 C.2       3 UNK         0.5000 
     56 O           3.8616  -14.4437  -40.3839 O.2       3 UNK        -0.5000 
     57 CA          1.6847  -13.4789  -40.6463 C.3       3 UNK         0.1400 
     58 CB          1.1230  -13.0734  -39.2762 C.3       3 UNK        -0.1800 
     59 N           1.0915  -12.6354  -41.6861 N.am      3 UNK        -0.5000 
     60 C           1.1510  -12.9053  -42.9953 C.2       2 UNK         0.5000 
     61 O           1.6962  -13.9087  -43.4624 O.2       2 UNK        -0.5000 
     62 CA          0.5372  -11.8602  -43.9409 C.3       2 UNK         0.1400 
     63 CB          1.6424  -11.0766  -44.6644 C.3       2 UNK        -0.1800 
     64 N          -0.3346  -12.4841  -44.9327 N.am      2 UNK        -0.5000 
     65 C          -1.5523  -12.9799  -44.6720 C.2       1 UNK         0.5000 
     66 O          -2.0726  -12.9331  -43.5567 O.2       1 UNK        -0.5000 
     67 C          -2.2954  -20.5871  -47.8895 C.2       11 UNK         0.5000 
     68 O          -3.1500  -20.9372  -48.7027 O.2       11 UNK        -0.5000 
     69 N          -2.5941  -20.0750  -46.6868 N.am      12 UNK        -0.5000 
     70 CA         -3.9444  -19.9945  -46.1236 C.3       12 UNK         0.1400 
     71 CB         -3.8751  -19.3276  -44.7444 C.3       12 UNK        -0.1800 
     72 C          -4.6619  -21.3559  -45.9995 C.2       12 UNK         0.5000 
     73 O          -5.8938  -21.3841  -46.0006 O.2       12 UNK        -0.5000 
     74 N          -3.9017  -22.4588  -45.9113 N.am      13 UNK        -0.5000 
     75 CA         -4.4069  -23.8309  -45.8967 C.3       13 UNK         0.1400 
     76 CB         -3.3231  -24.7626  -45.3270 C.3       13 UNK        -0.1800 
     77 C          -4.8776  -24.2671  -47.2994 C.2       13 UNK         0.5000 
     78 O          -4.1954  -25.0432  -47.9715 O.2       13 UNK        -0.5000 
     79 N          -6.0318  -23.7319  -47.7200 N.am      14 UNK        -0.5000 
     80 CA         -6.7552  -24.0306  -48.9602 C.3       14 UNK         0.1400 
     81 CB         -7.3540  -25.4515  -48.8942 C.3       14 UNK        -0.1800 
     82 C          -5.9052  -23.8018  -50.2262 C.2       14 UNK         0.5000 
     83 O          -5.8239  -24.6845  -51.0813 O.2       14 UNK        -0.5000 
     84 N          -5.2555  -22.6305  -50.3039 N.am      15 UNK        -0.5000 
     85 CA         -4.3499  -22.2119  -51.3813 C.3       15 UNK         0.1400 
     86 CB         -5.1176  -22.0487  -52.7082 C.3       15 UNK        -0.1800 
     87 C          -3.1160  -23.1302  -51.5007 C.2       15 UNK         0.5000 
     88 O          -2.7203  -23.4964  -52.6097 O.2       15 UNK        -0.5000 
     89 N          -2.5577  -23.5023  -50.3392 N.am      16 UNK        -0.5000 
     90 CA         -1.4771  -24.4740  -50.1371 C.3       16 UNK         0.1400 
     91 CB         -0.1534  -23.9590  -50.7446 C.3       16 UNK        -0.1800 
     92 C          -1.8678  -25.8696  -50.6650 C.2       16 UNK         0.5000 
     93 O          -1.1199  -26.4685  -51.4369 O.2       16 UNK        -0.5000 
     94 N          -3.0699  -26.3319  -50.2901 N.am      17 UNK        -0.5000 
     95 CA         -3.7472  -27.5298  -50.8051 C.3       17 UNK         0.1400 
     96 CB         -3.0579  -28.8083  -50.2860 C.3       17 UNK        -0.1800 
     97 C          -3.8928  -27.4980  -52.3445 C.2       17 UNK         0.5000 
     98 O          -3.5857  -28.4771  -53.0265 O.2       17 UNK        -0.5000 
     99 N          -4.3210  -26.3334  -52.8495 N.am      18 UNK        -0.5000 
    100 CA        -4.4845  -25.9385  -54.2510 C.3       18 UNK         0.1400 
    101 CB        -5.5295  -26.8283  -54.9544 C.3       18 UNK        -0.1800 
    102 C         -3.1776  -25.8198  -55.0676 C.2       18 UNK         0.5000 
    103 O         -3.2591  -25.5736  -56.2719 O.2       18 UNK        -0.5000 
    104 N         -2.0015  -25.9624  -54.4371 N.am      19 UNK        -0.5000 
    105 CA        -0.7028  -25.8828  -55.1117 C.3       19 UNK         0.1400 
    106 CB         0.3825  -26.5306  -54.2399 C.3       19 UNK        -0.1800 
    107 C         -0.2986  -24.4452  -55.4861 C.2       19 UNK         0.5000 
    108 O          0.3503  -24.2555  -56.5159 O.2       19 UNK        -0.5000 
    109 N         -0.6815  -23.4618  -54.6590 N.am      20 UNK        -0.5000 
    110 CA        -0.4197  -22.0409  -54.9060 C.3       20 UNK         0.1400 
    111 CB        -0.2782  -21.3045  -53.5629 C.3       20 UNK        -0.1800 
    112 C         -1.5264  -21.3933  -55.7567 C.2       20 UNK         0.5000 
    113 O         -1.2841  -20.3610  -56.3840 O.2       20 UNK        -0.5000 
    114 N         -2.7306  -21.9875  -55.7281 N.am      21 UNK        -0.5000 
    115 CA        -3.9540  -21.5957  -56.4461 C.3       21 UNK         0.1400 
    116 CB        -3.7625  -21.7799  -57.9648 C.3       21 UNK        -0.1800 
    117 C         -4.4905  -20.1866  -56.0968 C.2       21 UNK         0.5000 
    118 O         -5.3862  -19.6885  -56.7799 O.2       21 UNK        -0.5000 
    119 N         -3.9436  -19.5769  -55.0364 N.am      22 UNK        -0.5000 
    120 CA        -4.2017  -18.2034  -54.5829 C.3       22 UNK         0.1400 
    121 C         -3.6880  -17.1010  -55.5613 C.2       22 UNK         0.5000 
    122 N         -2.7268  -17.3991  -56.4296 N.am      22 UNK        -0.7600 
    123 O         -4.1395  -15.9599  -55.5247 O.2       22 UNK        -0.5000 
    124 C124       -5.6669  -18.0042  -54.0922 C.3       23 UNK        -0.0398 
    125 S125       -5.7557  -17.0147  -52.5612 S.3       23 UNK        -0.2404 
    126 C126       -5.4045  -18.2864  -51.3044 C.3       23 UNK        -0.0205 
    127 H127       -2.6755  -11.0029  -49.4969 H         1 UNK         0.0600 
    128 H128       -1.3437  -12.1611  -49.4621 H         1 UNK         0.0600 
    129 H129       -1.0939  -10.5125  -48.8800 H         1 UNK         0.0600 
    130 H130       -1.5393  -13.6164  -47.8178 H         1 UNK         0.3000 
    131 H131       -1.9409  -14.6397  -45.9152 H         1 UNK         0.0600 
    132 H132       -4.2507  -12.7221  -45.3613 H         1 UNK         0.0800 
    133 H133       -4.0385  -14.3123  -44.6863 H         1 UNK         0.0800 
    134 H134       -3.7634  -16.3681  -45.9991 H         1 UNK         0.0800 
    135 H135       -5.4123  -16.6938  -46.4738 H         1 UNK         0.0800 
    136 H136       -5.9531  -17.2416  -48.8385 H         1 UNK         0.1150 
    137 H137       -2.6941  -18.1632  -51.4669 H         1 UNK         0.1150 
    138 H138       -1.9261  -16.3865  -47.6456 H         1 UNK         0.1150 
    139 H139       -0.4720  -17.4997  -50.9431 H         1 UNK         0.0800 
    140 H140       -0.3011  -16.2136  -49.7767 H         1 UNK         0.0800 
    141 H141        0.6205  -20.4819  -49.7869 H         1 UNK         0.0800 
    142 H142       -0.9664  -19.9046  -50.1738 H         1 UNK         0.0800 
    143 H143       -0.8155  -21.8824  -48.5943 H         1 UNK         0.0600 
    144 H144        0.7622  -20.1656  -46.9852 H         1 UNK         0.3000 
    145 H145        1.2629  -22.7843  -44.6269 H         1 UNK         0.0600 
    146 H146        3.2442  -21.3585  -44.7661 H         1 UNK         0.0600 
    147 H147        2.7864  -21.8375  -46.3916 H         1 UNK         0.0600 
    148 H148        2.4302  -20.2099  -45.8169 H         1 UNK         0.0600 
    149 H149        1.2255  -20.0624  -43.7461 H         1 UNK         0.3000 
    150 H150       -1.3003  -20.5693  -41.2409 H         1 UNK         0.0600 
    151 H151        0.8575  -21.4441  -40.3742 H         1 UNK         0.0600 
    152 H152        0.6160  -19.7749  -39.8819 H         1 UNK         0.0600 
    153 H153        1.7361  -20.1547  -41.1883 H         1 UNK         0.0600 
    154 H154        0.4030  -18.5346  -42.6338 H         1 UNK         0.3000 
    155 H155       -2.3408  -16.4742  -43.2930 H         1 UNK         0.0600 
    156 H156       -2.1936  -15.7623  -40.9353 H         1 UNK         0.0600 
    157 H157       -1.1758  -14.7033  -41.8937 H         1 UNK         0.0600 
    158 H158       -0.4506  -15.9828  -40.9256 H         1 UNK         0.0600 
    159 H159        0.4368  -15.8731  -43.3244 H         1 UNK         0.3000 
    160 H160        1.4822  -17.7377  -46.0937 H         1 UNK         0.0600 
    161 H161        1.0042  -14.7117  -45.9446 H         1 UNK         0.0600 
    162 H162        0.3395  -15.7619  -47.1868 H         1 UNK         0.0600 
    163 H163        2.0772  -15.5519  -47.0590 H         1 UNK         0.0600 
    164 H164        2.7153  -15.6854  -44.5450 H         1 UNK         0.3000 
    165 H165        3.4866  -16.9089  -41.7603 H         1 UNK         0.0600 
    166 H166        5.4502  -18.4209  -43.5585 H         1 UNK         0.0600 
    167 H167        5.8225  -17.8160  -41.9436 H         1 UNK         0.0600 
    168 H168        4.5955  -19.0528  -42.1619 H         1 UNK         0.0600 
    169 H169        4.3050  -15.0091  -42.4623 H         1 UNK         0.3000 
    170 H170        6.5905  -13.8382  -44.6173 H         1 UNK         0.0600 
    171 H171        5.1001  -13.9809  -46.5825 H         1 UNK         0.0600 
    172 H172        3.6942  -13.5950  -45.6012 H         1 UNK         0.0600 
    173 H173        4.9514  -12.3850  -45.8658 H         1 UNK         0.0600 
    174 H174        4.1644  -12.7779  -43.3062 H         1 UNK         0.3000 
    175 H175        5.6988  -12.3429  -40.1732 H         1 UNK         0.0600 
    176 H176        5.0184  -10.1462  -42.2042 H         1 UNK         0.0600 
    177 H177        5.0905   -9.9525  -40.4520 H         1 UNK         0.0600 
    178 H178        6.5517  -10.3121  -41.3571 H         1 UNK         0.0600 
    179 H179        3.1858  -11.4756  -41.1942 H         1 UNK         0.3000 
    180 H180        1.3975  -14.5140  -40.8384 H         1 UNK         0.0600 
    181 H181        1.3602  -12.0371  -39.0326 H         1 UNK         0.0600 
    182 H182        1.5353  -13.7001  -38.4843 H         1 UNK         0.0600 
    183 H183        0.0390  -13.1866  -39.2469 H         1 UNK         0.0600 
    184 H184        0.6178  -11.7995  -41.3747 H         1 UNK         0.3000 
    185 H185       -0.0553  -11.1533  -43.3561 H         1 UNK         0.0600 
    186 H186        2.3230  -10.6071  -43.9529 H         1 UNK         0.0600 
    187 H187        2.2364  -11.7203  -45.3131 H         1 UNK         0.0600 
    188 H188        1.2204  -10.2825  -45.2806 H         1 UNK         0.0600 
    189 H189        0.0256  -12.5551  -45.8722 H         1 UNK         0.3000 
    190 H190       -1.8385  -19.7346  -46.1047 H         1 UNK         0.3000 
    191 H191       -4.5431  -19.3673  -46.7861 H         1 UNK         0.0600 
    192 H192       -3.2651  -19.9119  -44.0546 H         1 UNK         0.0600 
    193 H193       -3.4495  -18.3283  -44.8039 H         1 UNK         0.0600 
    194 H194       -4.8676  -19.2286  -44.3032 H         1 UNK         0.0600 
    195 H195       -2.8921  -22.3607  -45.9314 H         1 UNK         0.3000 
    196 H196       -5.2668  -23.8797  -45.2254 H         1 UNK         0.0600 
    197 H197       -3.0023  -24.4376  -44.3369 H         1 UNK         0.0600 
    198 H198       -2.4415  -24.8000  -45.9673 H         1 UNK         0.0600 
    199 H199       -3.6989  -25.7819  -45.2310 H         1 UNK         0.0600 
    200 H200       -6.4516  -23.0275  -47.1218 H         1 UNK         0.3000 
    201 H201       -7.5844  -23.3241  -49.0163 H         1 UNK         0.0600 
    202 H202       -7.9764  -25.6552  -49.7664 H         1 UNK         0.0600 
    203 H203       -7.9833  -25.5733  -48.0127 H         1 UNK         0.0600 
    204 H204       -6.5782  -26.2173  -48.8600 H         1 UNK         0.0600 
    205 H205       -5.3246  -21.9897  -49.5247 H         1 UNK         0.3000 
    206 H206       -3.9645  -21.2292  -51.1115 H         1 UNK         0.0600 
    207 H207       -5.9296  -21.3287  -52.6102 H         1 UNK         0.0600 
    208 H208       -5.5461  -22.9869  -53.0574 H         1 UNK         0.0600 
    209 H209       -4.4545  -21.6884  -53.4892 H         1 UNK         0.0600 
    210 H210       -2.9879  -23.1444  -49.4965 H         1 UNK         0.3000 
    211 H211       -1.3397  -24.5703  -49.0589 H         1 UNK         0.0600 
    212 H212        0.0899  -22.9562  -50.3995 H         1 UNK         0.0600 
    213 H213        0.6775  -24.6080  -50.4663 H         1 UNK         0.0600 
    214 H214       -0.1895  -23.9321  -51.8332 H         1 UNK         0.0600 
    215 H215       -3.5992  -25.7831  -49.6159 H         1 UNK         0.3000 
    216 H216       -4.7596  -27.5091  -50.3993 H         1 UNK         0.0600 
    217 H217       -3.6181  -29.6981  -50.5753 H         1 UNK         0.0600 
    218 H218       -2.0476  -28.9144  -50.6821 H         1 UNK         0.0600 
    219 H219       -2.9929  -28.8053  -49.1980 H         1 UNK         0.0600 
    220 H220       -4.5961  -25.6192  -52.1790 H         1 UNK         0.3000 
    221 H221       -4.8935  -24.9289  -54.2173 H         1 UNK         0.0600 
    222 H222       -5.1678  -27.8473  -55.0930 H         1 UNK         0.0600 
    223 H223       -6.4563  -26.8747  -54.3824 H         1 UNK         0.0600 
    224 H224       -5.7794  -26.4357  -55.9407 H         1 UNK         0.0600 
    225 H225       -1.9899  -26.1389  -53.4394 H         1 UNK         0.3000 
    226 H226       -0.7687  -26.4596  -56.0368 H         1 UNK         0.0600 
    227 H227        0.0968  -27.5361  -53.9303 H         1 UNK         0.0600 
    228 H228        1.3218  -26.6120  -54.7881 H         1 UNK         0.0600 
    229 H229        0.5820  -25.9444  -53.3426 H         1 UNK         0.0600 
    230 H230       -1.2544  -23.6869  -53.8495 H         1 UNK         0.3000 
    231 H231        0.5223  -21.9305  -55.4473 H         1 UNK         0.0600 
    232 H232       -0.0188  -20.2568  -53.7198 H         1 UNK         0.0600 
    233 H233        0.5114  -21.7441  -52.9536 H         1 UNK         0.0600 
    234 H234       -1.2008  -21.3268  -52.9840 H         1 UNK         0.0600 
    235 H235       -2.8103  -22.8184  -55.1585 H         1 UNK         0.3000 
    236 H236       -4.7262  -22.2964  -56.1251 H         1 UNK         0.0600 
    237 H237       -3.4123  -22.7860  -58.1967 H         1 UNK         0.0600 
    238 H238       -4.7008  -21.6337  -58.5010 H         1 UNK         0.0600 
    239 H239       -3.0404  -21.0709  -58.3707 H         1 UNK         0.0600 
    240 H240       -3.1941  -20.0593  -54.5651 H         1 UNK         0.3000 
    241 H241       -3.5462  -18.0996  -53.7186 H         1 UNK         0.0600 
    242 H242       -2.3882  -16.6871  -57.0573 H         1 UNK         0.3800 
    243 H243       -2.3293  -18.3291  -56.4649 H         1 UNK         0.3800 
    244 H244       -6.2806  -17.5331  -54.8618 H         1 UNK         0.0800 
    245 H245       -6.1463  -18.9636  -53.8929 H         1 UNK         0.0800 
    246 H246       -4.9813  -19.1737  -51.7739 H         1 UNK         0.0800 
    247 H247       -6.3386  -18.6024  -50.8376 H         1 UNK         0.0800 
@<TRIPOS>BOND
     1    1    2 1    
     2    1  127 1    
     3    1  128 1    
     4    1  129 1    
     5    2    3 2    
     6    2    4 am   BACKBONE|DICT|INTERRES
     7    4    5 1    
     8    4  130 1    
     9    5    6 1    
    10    5   65 1    
    11    5  131 1    
    12    6    7 1    
    13    6  132 1    
    14    6  133 1    
    15    7    8 1    
    16    8    9 1    
    17    8  134 1    
    18    8  135 1    
    19    9   10 ar   
    20    9   14 ar   
    21   10   11 ar   
    22   10  136 1    
    23   11   12 ar   
    24   11  126 1    
    25   12   13 ar   
    26   12  137 1    
    27   13   14 ar   
    28   13   15 1    
    29   14  138 1    
    30   15   16 1    
    31   15  139 1    
    32   15  140 1    
    33   16   17 1    
    34   17   18 1    
    35   17  141 1    
    36   17  142 1    
    37   18   19 1    
    38   18   67 1    
    39   18  143 1    
    40   19   20 am   BACKBONE|DICT|INTERRES
    41   19  144 1    
    42   20   21 2    
    43   20   22 1    
    44   22   23 1    
    45   22   24 1    
    46   22  145 1    
    47   23  146 1    
    48   23  147 1    
    49   23  148 1    
    50   24   25 am   BACKBONE|DICT|INTERRES
    51   24  149 1    
    52   25   26 2    
    53   25   27 1    
    54   27   28 1    
    55   27   29 1    
    56   27  150 1    
    57   28  151 1    
    58   28  152 1    
    59   28  153 1    
    60   29   30 am   BACKBONE|DICT|INTERRES
    61   29  154 1    
    62   30   31 2    
    63   30   32 1    
    64   32   33 1    
    65   32   34 1    
    66   32  155 1    
    67   33  156 1    
    68   33  157 1    
    69   33  158 1    
    70   34   35 am   BACKBONE|DICT|INTERRES
    71   34  159 1    
    72   35   36 2    
    73   35   37 1    
    74   37   38 1    
    75   37   39 1    
    76   37  160 1    
    77   38  161 1    
    78   38  162 1    
    79   38  163 1    
    80   39   40 am   BACKBONE|DICT|INTERRES
    81   39  164 1    
    82   40   41 2    
    83   40   42 1    
    84   42   43 1    
    85   42   44 1    
    86   42  165 1    
    87   43  166 1    
    88   43  167 1    
    89   43  168 1    
    90   44   45 am   BACKBONE|DICT|INTERRES
    91   44  169 1    
    92   45   46 2    
    93   45   47 1    
    94   47   48 1    
    95   47   49 1    
    96   47  170 1    
    97   48  171 1    
    98   48  172 1    
    99   48  173 1    
   100   49   50 am   BACKBONE|DICT|INTERRES
   101   49  174 1    
   102   50   51 2    
   103   50   52 1    
   104   52   53 1    
   105   52   54 1    
   106   52  175 1    
   107   53  176 1    
   108   53  177 1    
   109   53  178 1    
   110   54   55 am   BACKBONE|DICT|INTERRES
   111   54  179 1    
   112   55   56 2    
   113   55   57 1    
   114   57   58 1    
   115   57   59 1    
   116   57  180 1    
   117   58  181 1    
   118   58  182 1    
   119   58  183 1    
   120   59   60 am   BACKBONE|DICT|INTERRES
   121   59  184 1    
   122   60   61 2    
   123   60   62 1    
   124   62   63 1    
   125   62   64 1    
   126   62  185 1    
   127   63  186 1    
   128   63  187 1    
   129   63  188 1    
   130   64   65 am   BACKBONE|DICT|INTERRES
   131   64  189 1    
   132   65   66 2    
   133   67   68 2    
   134   67   69 am   BACKBONE|DICT|INTERRES
   135   69   70 1    
   136   69  190 1    
   137   70   71 1    
   138   70   72 1    
   139   70  191 1    
   140   71  192 1    
   141   71  193 1    
   142   71  194 1    
   143   72   73 2    
   144   72   74 am   BACKBONE|DICT|INTERRES
   145   74   75 1    
   146   74  195 1    
   147   75   76 1    
   148   75   77 1    
   149   75  196 1    
   150   76  197 1    
   151   76  198 1    
   152   76  199 1    
   153   77   78 2    
   154   77   79 am   BACKBONE|DICT|INTERRES
   155   79   80 1    
   156   79  200 1    
   157   80   81 1    
   158   80   82 1    
   159   80  201 1    
   160   81  202 1    
   161   81  203 1    
   162   81  204 1    
   163   82   83 2    
   164   82   84 am   BACKBONE|DICT|INTERRES
   165   84   85 1    
   166   84  205 1    
   167   85   86 1    
   168   85   87 1    
   169   85  206 1    
   170   86  207 1    
   171   86  208 1    
   172   86  209 1    
   173   87   88 2    
   174   87   89 am   BACKBONE|DICT|INTERRES
   175   89   90 1    
   176   89  210 1    
   177   90   91 1    
   178   90   92 1    
   179   90  211 1    
   180   91  212 1    
   181   91  213 1    
   182   91  214 1    
   183   92   93 2    
   184   92   94 am   BACKBONE|DICT|INTERRES
   185   94   95 1    
   186   94  215 1    
   187   95   96 1    
   188   95   97 1    
   189   95  216 1    
   190   96  217 1    
   191   96  218 1    
   192   96  219 1    
   193   97   98 2    
   194   97   99 am   BACKBONE|DICT|INTERRES
   195   99  100 1    
   196   99  220 1    
   197  100  101 1    
   198  100  102 1    
   199  100  221 1    
   200  101  222 1    
   201  101  223 1    
   202  101  224 1    
   203  102  103 2    
   204  102  104 am   BACKBONE|DICT|INTERRES
   205  104  105 1    
   206  104  225 1    
   207  105  106 1    
   208  105  107 1    
   209  105  226 1    
   210  106  227 1    
   211  106  228 1    
   212  106  229 1    
   213  107  108 2    
   214  107  109 am   BACKBONE|DICT|INTERRES
   215  109  110 1    
   216  109  230 1    
   217  110  111 1    
   218  110  112 1    
   219  110  231 1    
   220  111  232 1    
   221  111  233 1    
   222  111  234 1    
   223  112  113 2    
   224  112  114 am   BACKBONE|DICT|INTERRES
   225  114  115 1    
   226  114  235 1    
   227  115  116 1    
   228  115  117 1    
   229  115  236 1    
   230  116  237 1    
   231  116  238 1    
   232  116  239 1    
   233  117  118 2    
   234  117  119 am   BACKBONE|DICT|INTERRES
   235  119  120 1    
   236  119  240 1    
   237  120  121 1    
   238  120  124 1    
   239  120  241 1    
   240  121  122 am   BACKBONE|DICT|INTERRES
   241  121  123 2    
   242  122  242 1    
   243  122  243 1    
   244  124  125 1    
   245  124  244 1    
   246  124  245 1    
   247  125  126 1    
   248  126  246 1    
   249  126  247 1    
@<TRIPOS>SUBSTRUCTURE
     1 UNK         1 GROUP             0       ****    0 ROOT    
