@<TRIPOS>MOLECULE
3R540
247   249    1
SMALL
USER_CHARGES


@<TRIPOS>ATOM
      1 CA          1.2964  -14.2554  -51.2263 C.3       0 UNK        -0.1800 
      2 C           0.5234  -14.1958  -49.9172 C.2       0 UNK         0.5000 
      3 O           0.9899  -14.7116  -48.9028 O.2       0 UNK        -0.5000 
      4 N          -0.6555  -13.5581  -49.9277 N.am      1 UNK        -0.5000 
      5 CA         -1.5547  -13.4385  -48.7683 C.3       1 UNK         0.1400 
      6 C6         -2.9830  -12.9993  -49.1921 C.3       23 UNK        -0.0398 
      7 S7         -4.3004  -13.9108  -48.3098 S.3       23 UNK        -0.2404 
      8 C8         -5.0188  -14.9527  -49.6285 C.3       23 UNK        -0.0205 
      9 C9         -4.3301  -16.3067  -49.7555 C.ar      23 UNK        -0.0193 
     10 C10        -3.0184  -16.3935  -50.2273 C.ar      23 UNK        -0.1150 
     11 C11        -2.3702  -17.6255  -50.3473 C.ar      23 UNK        -0.0193 
     12 C12        -3.0737  -18.7923  -50.0214 C.ar      23 UNK        -0.1150 
     13 C13        -4.3879  -18.7251  -49.5480 C.ar      23 UNK        -0.0193 
     14 C14        -5.0099  -17.4805  -49.4169 C.ar      23 UNK        -0.1150 
     15 C15        -5.1393  -20.0023  -49.1947 C.3       23 UNK        -0.0205 
     16 S16        -5.2847  -20.2568  -47.3954 S.3       23 UNK        -0.2404 
     17 C17        -3.5380  -20.4368  -46.9094 C.3       23 UNK        -0.0398 
     18 CA         -3.0168  -21.8855  -47.0508 C.3       11 UNK         0.1400 
     19 N          -1.6776  -21.9264  -47.6374 N.am      11 UNK        -0.5000 
     20 C          -1.0395  -23.0447  -48.0029 C.2       10 UNK         0.5000 
     21 O          -1.5406  -24.1671  -47.9293 O.2       10 UNK        -0.5000 
     22 CA          0.4174  -22.9029  -48.4826 C.3       10 UNK         0.1400 
     23 CB          0.4843  -23.0100  -50.0121 C.3       10 UNK        -0.1800 
     24 N           1.1012  -21.6711  -48.0677 N.am      10 UNK        -0.5000 
     25 C           1.2876  -21.2306  -46.8146 C.2       9 UNK         0.5000 
     26 O           0.8270  -21.7911  -45.8140 O.2       9 UNK        -0.5000 
     27 CA          2.1322  -19.9509  -46.6766 C.3       9 UNK         0.1400 
     28 CB          1.6090  -18.8072  -47.5655 C.3       9 UNK        -0.1800 
     29 N           2.1538  -19.5033  -45.2878 N.am      9 UNK        -0.5000 
     30 C           3.2176  -19.0040  -44.6441 C.2       8 UNK         0.5000 
     31 O           4.3216  -18.8630  -45.1727 O.2       8 UNK        -0.5000 
     32 CA          3.0191  -18.5859  -43.1710 C.3       8 UNK         0.1400 
     33 CB          3.9196  -17.4062  -42.7620 C.3       8 UNK        -0.1800 
     34 N           1.6255  -18.2280  -42.9122 N.am      8 UNK        -0.5000 
     35 C           0.7385  -18.9999  -42.2719 C.2       7 UNK         0.5000 
     36 O           1.0333  -20.0577  -41.7169 O.2       7 UNK        -0.5000 
     37 CA         -0.7290  -18.5306  -42.2648 C.3       7 UNK         0.1400 
     38 CB         -1.0929  -17.9340  -40.8983 C.3       7 UNK        -0.1800 
     39 N          -1.0290  -17.5685  -43.3285 N.am      7 UNK        -0.5000 
     40 C          -1.1240  -17.8863  -44.6297 C.2       6 UNK         0.5000 
     41 O          -1.0094  -19.0413  -45.0457 O.2       6 UNK        -0.5000 
     42 CA         -1.3281  -16.7386  -45.6435 C.3       6 UNK         0.1400 
     43 CB         -2.2807  -17.1255  -46.7850 C.3       6 UNK        -0.1800 
     44 N          -1.7223  -15.4625  -45.0461 N.am      6 UNK        -0.5000 
     45 C          -2.8649  -15.1439  -44.4219 C.2       5 UNK         0.5000 
     46 O          -3.8245  -15.9060  -44.2970 O.2       5 UNK        -0.5000 
     47 CA         -2.8962  -13.7295  -43.7980 C.3       5 UNK         0.1400 
     48 CB         -3.9858  -13.5671  -42.7168 C.3       5 UNK        -0.1800 
     49 N          -1.5754  -13.3185  -43.2902 N.am      5 UNK        -0.5000 
     50 C          -0.8742  -13.9334  -42.3243 C.2       4 UNK         0.5000 
     51 O          -1.3005  -14.8952  -41.6873 O.2       4 UNK        -0.5000 
     52 CA          0.5615  -13.4247  -42.0825 C.3       4 UNK         0.1400 
     53 CB          1.3181  -14.2483  -41.0177 C.3       4 UNK        -0.1800 
     54 N           1.3462  -13.3533  -43.3198 N.am      4 UNK        -0.5000 
     55 C           1.6473  -14.3521  -44.1617 C.2       3 UNK         0.5000 
     56 O           1.2557  -15.5120  -44.0168 O.2       3 UNK        -0.5000 
     57 CA          2.5125  -13.9724  -45.3842 C.3       3 UNK         0.1400 
     58 CB          2.9136  -15.2000  -46.2200 C.3       3 UNK        -0.1800 
     59 N           1.8350  -13.0187  -46.2645 N.am      3 UNK        -0.5000 
     60 C           1.6266  -11.7174  -46.0116 C.2       2 UNK         0.5000 
     61 O           2.0431  -11.1522  -44.9991 O.2       2 UNK        -0.5000 
     62 CA          0.8035  -10.9069  -47.0361 C.3       2 UNK         0.1400 
     63 CB          1.7203   -9.9751  -47.8434 C.3       2 UNK        -0.1800 
     64 N           0.0324  -11.7302  -47.9696 N.am      2 UNK        -0.5000 
     65 C          -0.9793  -12.5475  -47.6418 C.2       1 UNK         0.5000 
     66 O          -1.4207  -12.6444  -46.4977 O.2       1 UNK        -0.5000 
     67 C          -3.0868  -22.6460  -45.7105 C.2       11 UNK         0.5000 
     68 O          -4.0636  -23.3537  -45.4662 O.2       11 UNK        -0.5000 
     69 N          -2.0305  -22.5318  -44.8965 N.am      12 UNK        -0.5000 
     70 CA         -1.8665  -23.3059  -43.6701 C.3       12 UNK         0.1400 
     71 CB         -1.2560  -22.4150  -42.5827 C.3       12 UNK        -0.1800 
     72 C          -0.9859  -24.5389  -43.9126 C.2       12 UNK         0.5000 
     73 O          -1.3417  -25.6310  -43.4696 O.2       12 UNK        -0.5000 
     74 N           0.1442  -24.3493  -44.6098 N.am      13 UNK        -0.5000 
     75 CA          1.1906  -25.3619  -44.7719 C.3       13 UNK         0.1400 
     76 CB          2.4666  -24.6901  -45.3024 C.3       13 UNK        -0.1800 
     77 C           0.7965  -26.5632  -45.6528 C.2       13 UNK         0.5000 
     78 O           1.3920  -27.6307  -45.5012 O.2       13 UNK        -0.5000 
     79 N          -0.1848  -26.3821  -46.5453 N.am      14 UNK        -0.5000 
     80 CA         -0.6739  -27.4065  -47.4685 C.3       14 UNK         0.1400 
     81 CB         -0.0235  -27.1941  -48.8480 C.3       14 UNK        -0.1800 
     82 C          -2.2149  -27.4661  -47.5126 C.2       14 UNK         0.5000 
     83 O          -2.7656  -28.0387  -48.4525 O.2       14 UNK        -0.5000 
     84 N          -2.8732  -26.9220  -46.4751 N.am      15 UNK        -0.5000 
     85 CA         -4.3152  -26.9618  -46.2000 C.3       15 UNK         0.1400 
     86 CB         -4.7492  -28.3974  -45.8389 C.3       15 UNK        -0.1800 
     87 C          -5.1792  -26.3540  -47.3260 C.2       15 UNK         0.5000 
     88 O          -5.7515  -27.0828  -48.1386 O.2       15 UNK        -0.5000 
     89 N          -5.2604  -25.0170  -47.3329 N.am      16 UNK        -0.5000 
     90 CA         -6.0478  -24.1642  -48.2339 C.3       16 UNK         0.1400 
     91 CB         -7.5578  -24.4397  -48.0763 C.3       16 UNK        -0.1800 
     92 C          -5.5883  -24.1968  -49.7073 C.2       16 UNK         0.5000 
     93 O          -6.3545  -23.8148  -50.5938 O.2       16 UNK        -0.5000 
     94 N          -4.3507  -24.6426  -49.9508 N.am      17 UNK        -0.5000 
     95 CA         -3.7528  -24.7316  -51.2788 C.3       17 UNK         0.1400 
     96 CB         -2.6044  -25.7477  -51.2299 C.3       17 UNK        -0.1800 
     97 C          -3.2367  -23.3676  -51.7671 C.2       17 UNK         0.5000 
     98 O          -2.8812  -22.5154  -50.9506 O.2       17 UNK        -0.5000 
     99 N          -3.1651  -23.2264  -53.0993 N.am      18 UNK        -0.5000 
    100 CA        -2.5796  -22.1055  -53.8440 C.3       18 UNK         0.1400 
    101 CB        -1.0441  -22.1203  -53.7005 C.3       18 UNK        -0.1800 
    102 C         -3.2002  -20.7389  -53.4893 C.2       18 UNK         0.5000 
    103 O         -2.4711  -19.7747  -53.2602 O.2       18 UNK        -0.5000 
    104 N         -4.5400  -20.6884  -53.4504 N.am      19 UNK        -0.5000 
    105 CA        -5.3542  -19.5209  -53.1008 C.3       19 UNK         0.1400 
    106 CB        -6.8402  -19.8783  -53.2621 C.3       19 UNK        -0.1800 
    107 C         -4.9832  -18.2557  -53.9015 C.2       19 UNK         0.5000 
    108 O         -5.3251  -18.1569  -55.0815 O.2       19 UNK        -0.5000 
    109 N         -4.2524  -17.3452  -53.2406 N.am      20 UNK        -0.5000 
    110 CA        -3.6611  -16.1127  -53.7749 C.3       20 UNK         0.1400 
    111 CB        -4.7604  -15.1067  -54.1736 C.3       20 UNK        -0.1800 
    112 C         -2.6216  -16.3545  -54.8942 C.2       20 UNK         0.5000 
    113 O         -2.4368  -15.4905  -55.7532 O.2       20 UNK        -0.5000 
    114 N         -1.9554  -17.5164  -54.8644 N.am      21 UNK        -0.5000 
    115 CA        -1.0186  -17.9807  -55.8882 C.3       21 UNK         0.1400 
    116 CB        -1.7773  -18.8737  -56.8884 C.3       21 UNK        -0.1800 
    117 C          0.2003  -18.6965  -55.2728 C.2       21 UNK         0.5000 
    118 O          0.8394  -19.4995  -55.9544 O.2       21 UNK        -0.5000 
    119 N          0.5053  -18.4059  -54.0002 N.am      22 UNK        -0.5000 
    120 CA         1.6050  -19.0218  -53.2313 C.3       22 UNK         0.1400 
    121 C          3.0399  -18.6622  -53.7223 C.2       22 UNK         0.5000 
    122 N          3.2286  -17.6329  -54.5394 N.am      22 UNK        -0.7600 
    123 O          4.0006  -19.3316  -53.3529 O.2       22 UNK        -0.5000 
    124 C124        1.4897  -18.7471  -51.7081 C.3       23 UNK        -0.0398 
    125 S125       -0.1099  -19.2466  -50.9890 S.3       23 UNK        -0.2404 
    126 C126       -0.9153  -17.6188  -50.8155 C.3       23 UNK        -0.0205 
    127 H127        2.2761  -13.7938  -51.1036 H         1 UNK         0.0600 
    128 H128        0.7735  -13.7373  -52.0304 H         1 UNK         0.0600 
    129 H129        1.4429  -15.2914  -51.5287 H         1 UNK         0.0600 
    130 H130       -0.9736  -13.1244  -50.7829 H         1 UNK         0.3000 
    131 H131       -1.6162  -14.4407  -48.3430 H         1 UNK         0.0600 
    132 H132       -3.1379  -11.9299  -49.0362 H         1 UNK         0.0800 
    133 H133       -3.1273  -13.1448  -50.2628 H         1 UNK         0.0800 
    134 H134       -4.9928  -14.4340  -50.5875 H         1 UNK         0.0800 
    135 H135       -6.0761  -15.0956  -49.4008 H         1 UNK         0.0800 
    136 H136       -2.4905  -15.4919  -50.4946 H         1 UNK         0.1150 
    137 H137       -2.6071  -19.7620  -50.1219 H         1 UNK         0.1150 
    138 H138       -6.0253  -17.4300  -49.0496 H         1 UNK         0.1150 
    139 H139       -6.1405  -19.9617  -49.6258 H         1 UNK         0.0800 
    140 H140       -4.6531  -20.8704  -49.6431 H         1 UNK         0.0800 
    141 H141       -3.4195  -20.0538  -45.8939 H         1 UNK         0.0800 
    142 H142       -2.9459  -19.7681  -47.5259 H         1 UNK         0.0800 
    143 H143       -3.6508  -22.4200  -47.7595 H         1 UNK         0.0600 
    144 H144       -1.1842  -21.0502  -47.7169 H         1 UNK         0.3000 
    145 H145        0.9711  -23.7436  -48.0643 H         1 UNK         0.0600 
    146 H146        0.0397  -23.9411  -50.3632 H         1 UNK         0.0600 
    147 H147        1.5133  -22.9872  -50.3706 H         1 UNK         0.0600 
    148 H148       -0.0580  -22.1931  -50.4871 H         1 UNK         0.0600 
    149 H149        1.4952  -21.1276  -48.8215 H         1 UNK         0.3000 
    150 H150        3.1439  -20.2104  -46.9947 H         1 UNK         0.0600 
    151 H151        1.6945  -19.0531  -48.6227 H         1 UNK         0.0600 
    152 H152        2.1853  -17.8963  -47.4114 H         1 UNK         0.0600 
    153 H153        0.5626  -18.5818  -47.3611 H         1 UNK         0.0600 
    154 H154        1.2861  -19.6418  -44.7848 H         1 UNK         0.3000 
    155 H155        3.3105  -19.4454  -42.5645 H         1 UNK         0.0600 
    156 H156        3.7259  -16.5202  -43.3646 H         1 UNK         0.0600 
    157 H157        4.9748  -17.6574  -42.8750 H         1 UNK         0.0600 
    158 H158        3.7622  -17.1374  -41.7174 H         1 UNK         0.0600 
    159 H159        1.3079  -17.3576  -43.3318 H         1 UNK         0.3000 
    160 H160       -1.3587  -19.4058  -42.4250 H         1 UNK         0.0600 
    161 H161       -0.4260  -17.1152  -40.6272 H         1 UNK         0.0600 
    162 H162       -1.0156  -18.6877  -40.1138 H         1 UNK         0.0600 
    163 H163       -2.1155  -17.5562  -40.8881 H         1 UNK         0.0600 
    164 H164       -1.1097  -16.5974  -43.0504 H         1 UNK         0.3000 
    165 H165       -0.3490  -16.5556  -46.0880 H         1 UNK         0.0600 
    166 H166       -2.5335  -16.2671  -47.4019 H         1 UNK         0.0600 
    167 H167       -3.2155  -17.5446  -46.4124 H         1 UNK         0.0600 
    168 H168       -1.8122  -17.8601  -47.4377 H         1 UNK         0.0600 
    169 H169       -1.0082  -14.7481  -45.0629 H         1 UNK         0.3000 
    170 H170       -3.1473  -13.0446  -44.6081 H         1 UNK         0.0600 
    171 H171       -4.9784  -13.7259  -43.1394 H         1 UNK         0.0600 
    172 H172       -3.8628  -14.2805  -41.9016 H         1 UNK         0.0600 
    173 H173       -3.9722  -12.5640  -42.2908 H         1 UNK         0.0600 
    174 H174       -1.1371  -12.5597  -43.7941 H         1 UNK         0.3000 
    175 H175        0.4696  -12.4039  -41.7091 H         1 UNK         0.0600 
    176 H176        1.4273  -15.2930  -41.3117 H         1 UNK         0.0600 
    177 H177        2.3155  -13.8449  -40.8435 H         1 UNK         0.0600 
    178 H178        0.7904  -14.2317  -40.0635 H         1 UNK         0.0600 
    179 H179        1.6729  -12.4276  -43.5834 H         1 UNK         0.3000 
    180 H180        3.4274  -13.5109  -45.0073 H         1 UNK         0.0600 
    181 H181        2.0366  -15.7148  -46.6120 H         1 UNK         0.0600 
    182 H182        3.4792  -15.9185  -45.6273 H         1 UNK         0.0600 
    183 H183        3.5387  -14.9162  -47.0666 H         1 UNK         0.0600 
    184 H184        1.4547  -13.4074  -47.1190 H         1 UNK         0.3000 
    185 H185        0.0996  -10.2923  -46.4714 H         1 UNK         0.0600 
    186 H186        2.2895   -9.3179  -47.1845 H         1 UNK         0.0600 
    187 H187        2.4362  -10.5374  -48.4443 H         1 UNK         0.0600 
    188 H188        1.1440   -9.3379  -48.5146 H         1 UNK         0.0600 
    189 H189        0.3383  -11.7230  -48.9315 H         1 UNK         0.3000 
    190 H190       -1.2458  -21.9586  -45.1860 H         1 UNK         0.3000 
    191 H191       -2.8344  -23.6548  -43.3035 H         1 UNK         0.0600 
    192 H192       -1.0442  -22.9844  -41.6768 H         1 UNK         0.0600 
    193 H193       -1.9425  -21.6155  -42.3079 H         1 UNK         0.0600 
    194 H194       -0.3211  -21.9647  -42.9165 H         1 UNK         0.0600 
    195 H195        0.3629  -23.4189  -44.9565 H         1 UNK         0.3000 
    196 H196        1.4160  -25.7588  -43.7797 H         1 UNK         0.0600 
    197 H197        2.3214  -24.2699  -46.2962 H         1 UNK         0.0600 
    198 H198        2.7912  -23.8842  -44.6438 H         1 UNK         0.0600 
    199 H199        3.2870  -25.4059  -45.3674 H         1 UNK         0.0600 
    200 H200       -0.6166  -25.4696  -46.6430 H         1 UNK         0.3000 
    201 H201       -0.3748  -28.3954  -47.1158 H         1 UNK         0.0600 
    202 H202       -0.1773  -26.1791  -49.2089 H         1 UNK         0.0600 
    203 H203       -0.4220  -27.8807  -49.5956 H         1 UNK         0.0600 
    204 H204        1.0521  -27.3629  -48.7981 H         1 UNK         0.0600 
    205 H205       -2.3120  -26.4908  -45.7541 H         1 UNK         0.3000 
    206 H206       -4.4729  -26.3475  -45.3117 H         1 UNK         0.0600 
    207 H207       -4.1902  -28.7735  -44.9820 H         1 UNK         0.0600 
    208 H208       -5.8072  -28.4290  -45.5758 H         1 UNK         0.0600 
    209 H209       -4.5983  -29.0909  -46.6668 H         1 UNK         0.0600 
    210 H210       -4.7601  -24.5072  -46.6052 H         1 UNK         0.3000 
    211 H211       -5.8798  -23.1428  -47.8953 H         1 UNK         0.0600 
    212 H212       -8.1493  -23.6951  -48.6102 H         1 UNK         0.0600 
    213 H213       -7.8590  -24.3989  -47.0296 H         1 UNK         0.0600 
    214 H214       -7.8357  -25.4180  -48.4691 H         1 UNK         0.0600 
    215 H215       -3.7580  -24.8884  -49.1703 H         1 UNK         0.3000 
    216 H216       -4.5062  -25.0958  -51.9807 H         1 UNK         0.0600 
    217 H217       -1.8345  -25.4309  -50.5292 H         1 UNK         0.0600 
    218 H218       -2.1340  -25.8639  -52.2069 H         1 UNK         0.0600 
    219 H219       -2.9583  -26.7308  -50.9189 H         1 UNK         0.0600 
    220 H220       -3.4977  -23.9894  -53.6722 H         1 UNK         0.3000 
    221 H221       -2.8104  -22.2796  -54.8959 H         1 UNK         0.0600 
    222 H222       -0.6310  -23.1011  -53.9351 H         1 UNK         0.0600 
    223 H223       -0.7329  -21.8565  -52.6903 H         1 UNK         0.0600 
    224 H224       -0.5833  -21.4044  -54.3799 H         1 UNK         0.0600 
    225 H225       -5.0482  -21.5352  -53.6567 H         1 UNK         0.3000 
    226 H226       -5.1837  -19.3171  -52.0456 H         1 UNK         0.0600 
    227 H227       -7.0766  -20.1678  -54.2868 H         1 UNK         0.0600 
    228 H228       -7.1207  -20.7029  -52.6062 H         1 UNK         0.0600 
    229 H229       -7.4752  -19.0294  -53.0052 H         1 UNK         0.0600 
    230 H230       -3.9900  -17.5633  -52.2880 H         1 UNK         0.3000 
    231 H231       -3.1011  -15.6651  -52.9543 H         1 UNK         0.0600 
    232 H232       -5.3263  -15.4475  -55.0409 H         1 UNK         0.0600 
    233 H233       -4.3317  -14.1358  -54.4244 H         1 UNK         0.0600 
    234 H234       -5.4627  -14.9470  -53.3554 H         1 UNK         0.0600 
    235 H235       -2.1829  -18.2031  -54.1448 H         1 UNK         0.3000 
    236 H236       -0.6141  -17.1255  -56.4329 H         1 UNK         0.0600 
    237 H237       -2.6215  -18.3431  -57.3291 H         1 UNK         0.0600 
    238 H238       -1.1315  -19.1893  -57.7086 H         1 UNK         0.0600 
    239 H239       -2.1634  -19.7721  -56.4057 H         1 UNK         0.0600 
    240 H240       -0.0826  -17.7566  -53.5031 H         1 UNK         0.3000 
    241 H241        1.5088  -20.1006  -53.3687 H         1 UNK         0.0600 
    242 H242        2.4497  -17.0792  -54.8565 H         1 UNK         0.3800 
    243 H243        4.1609  -17.4129  -54.8530 H         1 UNK         0.3800 
    244 H244        2.2634  -19.2981  -51.1708 H         1 UNK         0.0800 
    245 H245        1.6739  -17.6940  -51.4928 H         1 UNK         0.0800 
    246 H246       -0.8630  -17.0952  -51.7699 H         1 UNK         0.0800 
    247 H247       -0.3335  -17.0356  -50.1010 H         1 UNK         0.0800 
@<TRIPOS>BOND
     1    1    2 1    
     2    1  127 1    
     3    1  128 1    
     4    1  129 1    
     5    2    3 2    
     6    2    4 am   BACKBONE|DICT|INTERRES
     7    4    5 1    
     8    4  130 1    
     9    5    6 1    
    10    5   65 1    
    11    5  131 1    
    12    6    7 1    
    13    6  132 1    
    14    6  133 1    
    15    7    8 1    
    16    8    9 1    
    17    8  134 1    
    18    8  135 1    
    19    9   10 ar   
    20    9   14 ar   
    21   10   11 ar   
    22   10  136 1    
    23   11   12 ar   
    24   11  126 1    
    25   12   13 ar   
    26   12  137 1    
    27   13   14 ar   
    28   13   15 1    
    29   14  138 1    
    30   15   16 1    
    31   15  139 1    
    32   15  140 1    
    33   16   17 1    
    34   17   18 1    
    35   17  141 1    
    36   17  142 1    
    37   18   19 1    
    38   18   67 1    
    39   18  143 1    
    40   19   20 am   BACKBONE|DICT|INTERRES
    41   19  144 1    
    42   20   21 2    
    43   20   22 1    
    44   22   23 1    
    45   22   24 1    
    46   22  145 1    
    47   23  146 1    
    48   23  147 1    
    49   23  148 1    
    50   24   25 am   BACKBONE|DICT|INTERRES
    51   24  149 1    
    52   25   26 2    
    53   25   27 1    
    54   27   28 1    
    55   27   29 1    
    56   27  150 1    
    57   28  151 1    
    58   28  152 1    
    59   28  153 1    
    60   29   30 am   BACKBONE|DICT|INTERRES
    61   29  154 1    
    62   30   31 2    
    63   30   32 1    
    64   32   33 1    
    65   32   34 1    
    66   32  155 1    
    67   33  156 1    
    68   33  157 1    
    69   33  158 1    
    70   34   35 am   BACKBONE|DICT|INTERRES
    71   34  159 1    
    72   35   36 2    
    73   35   37 1    
    74   37   38 1    
    75   37   39 1    
    76   37  160 1    
    77   38  161 1    
    78   38  162 1    
    79   38  163 1    
    80   39   40 am   BACKBONE|DICT|INTERRES
    81   39  164 1    
    82   40   41 2    
    83   40   42 1    
    84   42   43 1    
    85   42   44 1    
    86   42  165 1    
    87   43  166 1    
    88   43  167 1    
    89   43  168 1    
    90   44   45 am   BACKBONE|DICT|INTERRES
    91   44  169 1    
    92   45   46 2    
    93   45   47 1    
    94   47   48 1    
    95   47   49 1    
    96   47  170 1    
    97   48  171 1    
    98   48  172 1    
    99   48  173 1    
   100   49   50 am   BACKBONE|DICT|INTERRES
   101   49  174 1    
   102   50   51 2    
   103   50   52 1    
   104   52   53 1    
   105   52   54 1    
   106   52  175 1    
   107   53  176 1    
   108   53  177 1    
   109   53  178 1    
   110   54   55 am   BACKBONE|DICT|INTERRES
   111   54  179 1    
   112   55   56 2    
   113   55   57 1    
   114   57   58 1    
   115   57   59 1    
   116   57  180 1    
   117   58  181 1    
   118   58  182 1    
   119   58  183 1    
   120   59   60 am   BACKBONE|DICT|INTERRES
   121   59  184 1    
   122   60   61 2    
   123   60   62 1    
   124   62   63 1    
   125   62   64 1    
   126   62  185 1    
   127   63  186 1    
   128   63  187 1    
   129   63  188 1    
   130   64   65 am   BACKBONE|DICT|INTERRES
   131   64  189 1    
   132   65   66 2    
   133   67   68 2    
   134   67   69 am   BACKBONE|DICT|INTERRES
   135   69   70 1    
   136   69  190 1    
   137   70   71 1    
   138   70   72 1    
   139   70  191 1    
   140   71  192 1    
   141   71  193 1    
   142   71  194 1    
   143   72   73 2    
   144   72   74 am   BACKBONE|DICT|INTERRES
   145   74   75 1    
   146   74  195 1    
   147   75   76 1    
   148   75   77 1    
   149   75  196 1    
   150   76  197 1    
   151   76  198 1    
   152   76  199 1    
   153   77   78 2    
   154   77   79 am   BACKBONE|DICT|INTERRES
   155   79   80 1    
   156   79  200 1    
   157   80   81 1    
   158   80   82 1    
   159   80  201 1    
   160   81  202 1    
   161   81  203 1    
   162   81  204 1    
   163   82   83 2    
   164   82   84 am   BACKBONE|DICT|INTERRES
   165   84   85 1    
   166   84  205 1    
   167   85   86 1    
   168   85   87 1    
   169   85  206 1    
   170   86  207 1    
   171   86  208 1    
   172   86  209 1    
   173   87   88 2    
   174   87   89 am   BACKBONE|DICT|INTERRES
   175   89   90 1    
   176   89  210 1    
   177   90   91 1    
   178   90   92 1    
   179   90  211 1    
   180   91  212 1    
   181   91  213 1    
   182   91  214 1    
   183   92   93 2    
   184   92   94 am   BACKBONE|DICT|INTERRES
   185   94   95 1    
   186   94  215 1    
   187   95   96 1    
   188   95   97 1    
   189   95  216 1    
   190   96  217 1    
   191   96  218 1    
   192   96  219 1    
   193   97   98 2    
   194   97   99 am   BACKBONE|DICT|INTERRES
   195   99  100 1    
   196   99  220 1    
   197  100  101 1    
   198  100  102 1    
   199  100  221 1    
   200  101  222 1    
   201  101  223 1    
   202  101  224 1    
   203  102  103 2    
   204  102  104 am   BACKBONE|DICT|INTERRES
   205  104  105 1    
   206  104  225 1    
   207  105  106 1    
   208  105  107 1    
   209  105  226 1    
   210  106  227 1    
   211  106  228 1    
   212  106  229 1    
   213  107  108 2    
   214  107  109 am   BACKBONE|DICT|INTERRES
   215  109  110 1    
   216  109  230 1    
   217  110  111 1    
   218  110  112 1    
   219  110  231 1    
   220  111  232 1    
   221  111  233 1    
   222  111  234 1    
   223  112  113 2    
   224  112  114 am   BACKBONE|DICT|INTERRES
   225  114  115 1    
   226  114  235 1    
   227  115  116 1    
   228  115  117 1    
   229  115  236 1    
   230  116  237 1    
   231  116  238 1    
   232  116  239 1    
   233  117  118 2    
   234  117  119 am   BACKBONE|DICT|INTERRES
   235  119  120 1    
   236  119  240 1    
   237  120  121 1    
   238  120  124 1    
   239  120  241 1    
   240  121  122 am   BACKBONE|DICT|INTERRES
   241  121  123 2    
   242  122  242 1    
   243  122  243 1    
   244  124  125 1    
   245  124  244 1    
   246  124  245 1    
   247  125  126 1    
   248  126  246 1    
   249  126  247 1    
@<TRIPOS>SUBSTRUCTURE
     1 UNK         1 GROUP             0       ****    0 ROOT    
