@<TRIPOS>MOLECULE
3R540
247   249    1
SMALL
USER_CHARGES


@<TRIPOS>ATOM
      1 CA         -0.4840  -12.0370  -50.2717 C.3       0 UNK        -0.1800 
      2 C          -0.8224  -13.3536  -49.5881 C.2       0 UNK         0.5000 
      3 O           0.0769  -14.0617  -49.1364 O.2       0 UNK        -0.5000 
      4 N          -2.1194  -13.6780  -49.4992 N.am      1 UNK        -0.5000 
      5 CA         -2.6427  -14.9220  -48.9151 C.3       1 UNK         0.1400 
      6 C6         -4.1349  -15.1263  -49.2847 C.3       23 UNK        -0.0398 
      7 S7         -4.5774  -16.8832  -49.4750 S.3       23 UNK        -0.2404 
      8 C8         -5.5832  -17.1531  -47.9846 C.3       23 UNK        -0.0205 
      9 C9         -5.9427  -18.6208  -47.8154 C.ar      23 UNK        -0.0193 
     10 C10        -6.8237  -19.2330  -48.7115 C.ar      23 UNK        -0.1150 
     11 C11        -7.1606  -20.5803  -48.5640 C.ar      23 UNK        -0.0193 
     12 C12        -6.6354  -21.3079  -47.4940 C.ar      23 UNK        -0.1150 
     13 C13        -5.7398  -20.7145  -46.5983 C.ar      23 UNK        -0.0193 
     14 C14        -5.3975  -19.3683  -46.7658 C.ar      23 UNK        -0.1150 
     15 C15        -5.1378  -21.5261  -45.4572 C.3       23 UNK        -0.0205 
     16 S16        -4.3551  -23.0576  -46.0609 S.3       23 UNK        -0.2404 
     17 C17        -2.9474  -23.2376  -44.9177 C.3       23 UNK        -0.0398 
     18 CA         -1.6978  -22.4263  -45.3500 C.3       11 UNK         0.1400 
     19 N          -0.6479  -22.3986  -44.3303 N.am      11 UNK        -0.5000 
     20 C          -0.0086  -23.4302  -43.7625 C.2       10 UNK         0.5000 
     21 O          -0.1843  -24.6079  -44.0770 O.2       10 UNK        -0.5000 
     22 CA          0.9980  -23.0802  -42.6536 C.3       10 UNK         0.1400 
     23 CB          2.3637  -22.7328  -43.2662 C.3       10 UNK        -0.1800 
     24 N           0.5360  -21.9742  -41.8117 N.am      10 UNK        -0.5000 
     25 C          -0.5328  -22.0340  -41.0027 C.2       9 UNK         0.5000 
     26 O          -1.1942  -23.0565  -40.8172 O.2       9 UNK        -0.5000 
     27 CA         -0.9482  -20.7319  -40.2958 C.3       9 UNK         0.1400 
     28 CB         -0.0891  -20.4976  -39.0441 C.3       9 UNK        -0.1800 
     29 N          -0.8767  -19.5604  -41.1703 N.am      9 UNK        -0.5000 
     30 C          -1.6660  -19.3467  -42.2341 C.2       8 UNK         0.5000 
     31 O          -2.5708  -20.1056  -42.5823 O.2       8 UNK        -0.5000 
     32 CA         -1.3738  -18.0849  -43.0696 C.3       8 UNK         0.1400 
     33 CB         -1.9760  -16.8371  -42.4057 C.3       8 UNK        -0.1800 
     34 N           0.0576  -17.8775  -43.2905 N.am      8 UNK        -0.5000 
     35 C           0.8473  -18.7164  -43.9762 C.2       7 UNK         0.5000 
     36 O           0.4463  -19.7363  -44.5370 O.2       7 UNK        -0.5000 
     37 CA          2.3496  -18.3895  -43.9870 C.3       7 UNK         0.1400 
     38 CB          2.6746  -17.3211  -45.0426 C.3       7 UNK        -0.1800 
     39 N           2.8236  -17.9564  -42.6714 N.am      7 UNK        -0.5000 
     40 C           2.9046  -18.7590  -41.5995 C.2       6 UNK         0.5000 
     41 O           2.6110  -19.9531  -41.6166 O.2       6 UNK        -0.5000 
     42 CA          3.3463  -18.1105  -40.2756 C.3       6 UNK         0.1400 
     43 CB          4.8771  -18.0068  -40.2071 C.3       6 UNK        -0.1800 
     44 N           2.7603  -16.7855  -40.0765 N.am      6 UNK        -0.5000 
     45 C           1.4505  -16.5480  -39.9159 C.2       5 UNK         0.5000 
     46 O           0.5939  -17.4293  -39.8780 O.2       5 UNK        -0.5000 
     47 CA          1.0235  -15.0710  -39.8455 C.3       5 UNK         0.1400 
     48 CB          1.1018  -14.5518  -38.4024 C.3       5 UNK        -0.1800 
     49 N           1.8257  -14.2112  -40.7198 N.am      5 UNK        -0.5000 
     50 C           1.8500  -14.3115  -42.0542 C.2       4 UNK         0.5000 
     51 O           1.1870  -15.1343  -42.6950 O.2       4 UNK        -0.5000 
     52 CA          2.8089  -13.3721  -42.7926 C.3       4 UNK         0.1400 
     53 CB          4.1977  -14.0141  -42.9454 C.3       4 UNK        -0.1800 
     54 N           2.2413  -13.1150  -44.1059 N.am      4 UNK        -0.5000 
     55 C           2.2889  -11.9566  -44.7698 C.2       3 UNK         0.5000 
     56 O           2.9534  -10.9843  -44.4088 O.2       3 UNK        -0.5000 
     57 CA          1.4277  -11.8614  -46.0457 C.3       3 UNK         0.1400 
     58 CB          2.2878  -12.1505  -47.2855 C.3       3 UNK        -0.1800 
     59 N           0.2669  -12.7615  -46.0412 N.am      3 UNK        -0.5000 
     60 C          -0.7612  -12.6891  -45.1802 C.2       2 UNK         0.5000 
     61 O          -0.8726  -11.8101  -44.3246 O.2       2 UNK        -0.5000 
     62 CA         -1.8405  -13.7744  -45.3233 C.3       2 UNK         0.1400 
     63 CB         -3.0923  -13.5210  -44.4633 C.3       2 UNK        -0.1800 
     64 N          -2.2204  -13.8865  -46.7271 N.am      2 UNK        -0.5000 
     65 C          -2.3986  -15.0338  -47.3913 C.2       1 UNK         0.5000 
     66 O          -2.3463  -16.1419  -46.8582 O.2       1 UNK        -0.5000 
     67 C          -1.1570  -22.8178  -46.7405 C.2       11 UNK         0.5000 
     68 O          -1.3739  -22.0783  -47.6999 O.2       11 UNK        -0.5000 
     69 N          -0.4115  -23.9279  -46.8284 N.am      12 UNK        -0.5000 
     70 CA          0.2118  -24.4551  -48.0477 C.3       12 UNK         0.1400 
     71 CB          0.9151  -25.7787  -47.7152 C.3       12 UNK        -0.1800 
     72 C           1.1927  -23.4783  -48.7271 C.2       12 UNK         0.5000 
     73 O           1.3916  -23.5628  -49.9373 O.2       12 UNK        -0.5000 
     74 N           1.7438  -22.5370  -47.9487 N.am      13 UNK        -0.5000 
     75 CA          2.5586  -21.4160  -48.4185 C.3       13 UNK         0.1400 
     76 CB          3.1425  -20.6956  -47.1926 C.3       13 UNK        -0.1800 
     77 C           1.7905  -20.4150  -49.3100 C.2       13 UNK         0.5000 
     78 O           2.4286  -19.6694  -50.0528 O.2       13 UNK        -0.5000 
     79 N           0.4543  -20.4067  -49.2142 N.am      14 UNK        -0.5000 
     80 CA         -0.4456  -19.5334  -49.9613 C.3       14 UNK         0.1400 
     81 CB         -1.2634  -18.7084  -48.9578 C.3       14 UNK        -0.1800 
     82 C          -1.3807  -20.3376  -50.8808 C.2       14 UNK         0.5000 
     83 O          -1.5648  -19.9547  -52.0374 O.2       14 UNK        -0.5000 
     84 N          -1.9523  -21.4274  -50.3510 N.am      15 UNK        -0.5000 
     85 CA         -3.0167  -22.2240  -50.9661 C.3       15 UNK         0.1400 
     86 CB         -3.6923  -23.0576  -49.8667 C.3       15 UNK        -0.1800 
     87 C          -2.5707  -23.1371  -52.1234 C.2       15 UNK         0.5000 
     88 O          -3.4288  -23.6376  -52.8538 O.2       15 UNK        -0.5000 
     89 N          -1.2589  -23.3501  -52.2881 N.am      16 UNK        -0.5000 
     90 CA         -0.6763  -24.1916  -53.3375 C.3       16 UNK         0.1400 
     91 CB          0.6028  -24.8524  -52.7947 C.3       16 UNK        -0.1800 
     92 C          -0.4284  -23.4107  -54.6470 C.2       16 UNK         0.5000 
     93 O           0.6392  -23.5469  -55.2467 O.2       16 UNK        -0.5000 
     94 N          -1.4062  -22.5892  -55.0585 N.am      17 UNK        -0.5000 
     95 CA         -1.4050  -21.7125  -56.2390 C.3       17 UNK         0.1400 
     96 CB         -1.2577  -22.5238  -57.5433 C.3       17 UNK        -0.1800 
     97 C          -0.4057  -20.5395  -56.1434 C.2       17 UNK         0.5000 
     98 O          -0.0992  -19.9176  -57.1621 O.2       17 UNK        -0.5000 
     99 N           0.0777  -20.2450  -54.9292 N.am      18 UNK        -0.5000 
    100 CA         1.0182  -19.1609  -54.6524 C.3       18 UNK         0.1400 
    101 CB         1.8356  -19.5094  -53.4007 C.3       18 UNK        -0.1800 
    102 C          0.2977  -17.8120  -54.4911 C.2       18 UNK         0.5000 
    103 O          0.7778  -16.8021  -55.0076 O.2       18 UNK        -0.5000 
    104 N         -0.8466  -17.8281  -53.7982 N.am      19 UNK        -0.5000 
    105 CA        -1.7244  -16.6766  -53.5896 C.3       19 UNK         0.1400 
    106 CB        -1.5076  -16.1176  -52.1774 C.3       19 UNK        -0.1800 
    107 C         -3.2003  -17.0463  -53.8113 C.2       19 UNK         0.5000 
    108 O         -3.9626  -16.2072  -54.2924 O.2       19 UNK        -0.5000 
    109 N         -3.5735  -18.2908  -53.4939 N.am      20 UNK        -0.5000 
    110 CA        -4.8708  -18.8898  -53.7863 C.3       20 UNK         0.1400 
    111 CB        -5.7001  -18.9615  -52.4944 C.3       20 UNK        -0.1800 
    112 C         -4.6172  -20.2900  -54.3570 C.2       20 UNK         0.5000 
    113 O         -3.5802  -20.8802  -54.0610 O.2       20 UNK        -0.5000 
    114 N         -5.5554  -20.8059  -55.1563 N.am      21 UNK        -0.5000 
    115 CA        -5.4700  -22.1250  -55.7973 C.3       21 UNK         0.1400 
    116 CB        -5.7876  -21.9644  -57.2945 C.3       21 UNK        -0.1800 
    117 C         -6.3912  -23.1592  -55.1174 C.2       21 UNK         0.5000 
    118 O         -6.7575  -24.1586  -55.7379 O.2       21 UNK        -0.5000 
    119 N         -6.7748  -22.8878  -53.8657 N.am      22 UNK        -0.5000 
    120 CA        -7.6724  -23.7087  -53.0404 C.3       22 UNK         0.1400 
    121 C         -7.0789  -25.0567  -52.5320 C.2       22 UNK         0.5000 
    122 N         -5.7714  -25.2807  -52.5749 N.am      22 UNK        -0.7600 
    123 O         -7.8299  -25.9291  -52.1037 O.2       22 UNK        -0.5000 
    124 C124       -8.2862  -22.8732  -51.8867 C.3       23 UNK        -0.0398 
    125 S125       -7.0234  -22.0514  -50.8590 S.3       23 UNK        -0.2404 
    126 C126       -8.0502  -21.2670  -49.5845 C.3       23 UNK        -0.0205 
    127 H127       -1.3301  -11.6491  -50.8394 H         1 UNK         0.0600 
    128 H128        0.3500  -12.1739  -50.9602 H         1 UNK         0.0600 
    129 H129       -0.1989  -11.2905  -49.5307 H         1 UNK         0.0600 
    130 H130       -2.8093  -13.0445  -49.8781 H         1 UNK         0.3000 
    131 H131       -2.0631  -15.7265  -49.3687 H         1 UNK         0.0600 
    132 H132       -4.3471  -14.6663  -50.2510 H         1 UNK         0.0800 
    133 H133       -4.8008  -14.6316  -48.5751 H         1 UNK         0.0800 
    134 H134       -6.4972  -16.5615  -48.0513 H         1 UNK         0.0800 
    135 H135       -5.0399  -16.7914  -47.1103 H         1 UNK         0.0800 
    136 H136       -7.2251  -18.6652  -49.5393 H         1 UNK         0.1150 
    137 H137       -6.8937  -22.3515  -47.3814 H         1 UNK         0.1150 
    138 H138       -4.7053  -18.9002  -46.0798 H         1 UNK         0.1150 
    139 H139       -5.9203  -21.7801  -44.7413 H         1 UNK         0.0800 
    140 H140       -4.4039  -20.9271  -44.9153 H         1 UNK         0.0800 
    141 H141       -2.7116  -24.3000  -44.8440 H         1 UNK         0.0800 
    142 H142       -3.2641  -22.9306  -43.9196 H         1 UNK         0.0800 
    143 H143       -2.0103  -21.3840  -45.4359 H         1 UNK         0.0600 
    144 H144       -0.3524  -21.4631  -44.0662 H         1 UNK         0.3000 
    145 H145        1.1197  -23.9619  -42.0211 H         1 UNK         0.0600 
    146 H146        3.1110  -22.5647  -42.4905 H         1 UNK         0.0600 
    147 H147        2.7284  -23.5441  -43.8975 H         1 UNK         0.0600 
    148 H148        2.3132  -21.8339  -43.8817 H         1 UNK         0.0600 
    149 H149        1.0765  -21.1149  -41.8547 H         1 UNK         0.3000 
    150 H150       -1.9860  -20.8456  -39.9758 H         1 UNK         0.0600 
    151 H151       -0.1325  -21.3562  -38.3729 H         1 UNK         0.0600 
    152 H152       -0.4380  -19.6300  -38.4840 H         1 UNK         0.0600 
    153 H153        0.9579  -20.3320  -39.2997 H         1 UNK         0.0600 
    154 H154       -0.1976  -18.8492  -40.9143 H         1 UNK         0.3000 
    155 H155       -1.8456  -18.2120  -44.0466 H         1 UNK         0.0600 
    156 H156       -3.0558  -16.9397  -42.2916 H         1 UNK         0.0600 
    157 H157       -1.7950  -15.9449  -43.0033 H         1 UNK         0.0600 
    158 H158       -1.5559  -16.6635  -41.4150 H         1 UNK         0.0600 
    159 H159        0.4682  -17.0419  -42.8876 H         1 UNK         0.3000 
    160 H160        2.8867  -19.3018  -44.2548 H         1 UNK         0.0600 
    161 H161        2.1728  -16.3761  -44.8354 H         1 UNK         0.0600 
    162 H162        2.3581  -17.6469  -46.0345 H         1 UNK         0.0600 
    163 H163        3.7463  -17.1287  -45.0916 H         1 UNK         0.0600 
    164 H164        3.0330  -16.9762  -42.5616 H         1 UNK         0.3000 
    165 H165        3.0103  -18.7548  -39.4605 H         1 UNK         0.0600 
    166 H166        5.2031  -17.6216  -39.2408 H         1 UNK         0.0600 
    167 H167        5.3402  -18.9857  -40.3383 H         1 UNK         0.0600 
    168 H168        5.2734  -17.3493  -40.9821 H         1 UNK         0.0600 
    169 H169        3.3925  -15.9993  -40.0921 H         1 UNK         0.3000 
    170 H170       -0.0160  -15.0109  -40.1749 H         1 UNK         0.0600 
    171 H171        0.4970  -15.1661  -37.7339 H         1 UNK         0.0600 
    172 H172        2.1245  -14.5631  -38.0234 H         1 UNK         0.0600 
    173 H173        0.7275  -13.5304  -38.3300 H         1 UNK         0.0600 
    174 H174        2.3982  -13.5139  -40.2657 H         1 UNK         0.3000 
    175 H175        2.8908  -12.4400  -42.2292 H         1 UNK         0.0600 
    176 H176        4.6400  -14.2316  -41.9726 H         1 UNK         0.0600 
    177 H177        4.1507  -14.9494  -43.5044 H         1 UNK         0.0600 
    178 H178        4.8816  -13.3472  -43.4707 H         1 UNK         0.0600 
    179 H179        1.6299  -13.8472  -44.4419 H         1 UNK         0.3000 
    180 H180        1.0583  -10.8363  -46.1152 H         1 UNK         0.0600 
    181 H181        2.6321  -13.1853  -47.3039 H         1 UNK         0.0600 
    182 H182        3.1702  -11.5097  -47.3095 H         1 UNK         0.0600 
    183 H183        1.7334  -11.9657  -48.2043 H         1 UNK         0.0600 
    184 H184        0.2665  -13.4949  -46.7384 H         1 UNK         0.3000 
    185 H185       -1.3756  -14.7034  -44.9873 H         1 UNK         0.0600 
    186 H186       -2.8343  -13.4538  -43.4056 H         1 UNK         0.0600 
    187 H187       -3.5907  -12.5924  -44.7432 H         1 UNK         0.0600 
    188 H188       -3.8114  -14.3334  -44.5693 H         1 UNK         0.0600 
    189 H189       -2.2547  -13.0205  -47.2469 H         1 UNK         0.3000 
    190 H190       -0.2613  -24.4532  -45.9712 H         1 UNK         0.3000 
    191 H191       -0.5871  -24.6595  -48.7632 H         1 UNK         0.0600 
    192 H192        1.7043  -25.6388  -46.9753 H         1 UNK         0.0600 
    193 H193        1.3710  -26.2145  -48.6054 H         1 UNK         0.0600 
    194 H194        0.2108  -26.5111  -47.3203 H         1 UNK         0.0600 
    195 H195        1.5150  -22.5459  -46.9663 H         1 UNK         0.3000 
    196 H196        3.3822  -21.8200  -49.0106 H         1 UNK         0.0600 
    197 H197        3.7815  -19.8639  -47.4926 H         1 UNK         0.0600 
    198 H198        3.7498  -21.3694  -46.5879 H         1 UNK         0.0600 
    199 H199        2.3545  -20.2911  -46.5567 H         1 UNK         0.0600 
    200 H200        0.0078  -21.0617  -48.5806 H         1 UNK         0.3000 
    201 H201        0.1158  -18.8379  -50.5880 H         1 UNK         0.0600 
    202 H202       -0.6242  -18.0397  -48.3811 H         1 UNK         0.0600 
    203 H203       -1.8070  -19.3400  -48.2538 H         1 UNK         0.0600 
    204 H204       -1.9983  -18.0942  -49.4718 H         1 UNK         0.0600 
    205 H205       -1.7479  -21.6560  -49.3800 H         1 UNK         0.3000 
    206 H206       -3.7606  -21.5362  -51.3721 H         1 UNK         0.0600 
    207 H207       -4.1280  -22.4143  -49.1017 H         1 UNK         0.0600 
    208 H208       -4.5001  -23.6684  -50.2712 H         1 UNK         0.0600 
    209 H209       -2.9865  -23.7301  -49.3785 H         1 UNK         0.0600 
    210 H210       -0.6133  -22.9000  -51.6547 H         1 UNK         0.3000 
    211 H211       -1.3740  -24.9956  -53.5807 H         1 UNK         0.0600 
    212 H212        1.3777  -24.1138  -52.5864 H         1 UNK         0.0600 
    213 H213        1.0121  -25.5650  -53.5116 H         1 UNK         0.0600 
    214 H214        0.4042  -25.4005  -51.8734 H         1 UNK         0.0600 
    215 H215       -2.2270  -22.4940  -54.4672 H         1 UNK         0.3000 
    216 H216       -2.3891  -21.2480  -56.2776 H         1 UNK         0.0600 
    217 H217       -1.4383  -21.8953  -58.4160 H         1 UNK         0.0600 
    218 H218       -1.9772  -23.3417  -57.5818 H         1 UNK         0.0600 
    219 H219       -0.2590  -22.9471  -57.6511 H         1 UNK         0.0600 
    220 H220       -0.2600  -20.7770  -54.1398 H         1 UNK         0.3000 
    221 H221        1.7151  -19.0689  -55.4884 H         1 UNK         0.0600 
    222 H222        1.1955  -19.6847  -52.5378 H         1 UNK         0.0600 
    223 H223        2.4316  -20.4084  -53.5584 H         1 UNK         0.0600 
    224 H224        2.5236  -18.7036  -53.1418 H         1 UNK         0.0600 
    225 H225       -1.1397  -18.7027  -53.3733 H         1 UNK         0.3000 
    226 H226       -1.4860  -15.8915  -54.3102 H         1 UNK         0.0600 
    227 H227       -0.4791  -15.7860  -52.0336 H         1 UNK         0.0600 
    228 H228       -2.1573  -15.2614  -51.9935 H         1 UNK         0.0600 
    229 H229       -1.7273  -16.8695  -51.4212 H         1 UNK         0.0600 
    230 H230       -2.8982  -18.9489  -53.1160 H         1 UNK         0.3000 
    231 H231       -5.4078  -18.3044  -54.5354 H         1 UNK         0.0600 
    232 H232       -5.8982  -17.9643  -52.1018 H         1 UNK         0.0600 
    233 H233       -5.1873  -19.5275  -51.7154 H         1 UNK         0.0600 
    234 H234       -6.6651  -19.4383  -52.6691 H         1 UNK         0.0600 
    235 H235       -6.3967  -20.2767  -55.3388 H         1 UNK         0.3000 
    236 H236       -4.4574  -22.5250  -55.7181 H         1 UNK         0.0600 
    237 H237       -5.6684  -22.9085  -57.8274 H         1 UNK         0.0600 
    238 H238       -6.8105  -21.6216  -57.4539 H         1 UNK         0.0600 
    239 H239       -5.1151  -21.2454  -57.7629 H         1 UNK         0.0600 
    240 H240       -6.3946  -22.0700  -53.4135 H         1 UNK         0.3000 
    241 H241       -8.5037  -23.9974  -53.6865 H         1 UNK         0.0600 
    242 H242       -5.4179  -26.1659  -52.2512 H         1 UNK         0.3800 
    243 H243       -5.1142  -24.5647  -52.8710 H         1 UNK         0.3800 
    244 H244       -8.9355  -22.1019  -52.3030 H         1 UNK         0.0800 
    245 H245       -8.9250  -23.4904  -51.2523 H         1 UNK         0.0800 
    246 H246       -8.7275  -20.5483  -50.0482 H         1 UNK         0.0800 
    247 H247       -8.6720  -22.0187  -49.0959 H         1 UNK         0.0800 
@<TRIPOS>BOND
     1    1    2 1    
     2    1  127 1    
     3    1  128 1    
     4    1  129 1    
     5    2    3 2    
     6    2    4 am   BACKBONE|DICT|INTERRES
     7    4    5 1    
     8    4  130 1    
     9    5    6 1    
    10    5   65 1    
    11    5  131 1    
    12    6    7 1    
    13    6  132 1    
    14    6  133 1    
    15    7    8 1    
    16    8    9 1    
    17    8  134 1    
    18    8  135 1    
    19    9   10 ar   
    20    9   14 ar   
    21   10   11 ar   
    22   10  136 1    
    23   11   12 ar   
    24   11  126 1    
    25   12   13 ar   
    26   12  137 1    
    27   13   14 ar   
    28   13   15 1    
    29   14  138 1    
    30   15   16 1    
    31   15  139 1    
    32   15  140 1    
    33   16   17 1    
    34   17   18 1    
    35   17  141 1    
    36   17  142 1    
    37   18   19 1    
    38   18   67 1    
    39   18  143 1    
    40   19   20 am   BACKBONE|DICT|INTERRES
    41   19  144 1    
    42   20   21 2    
    43   20   22 1    
    44   22   23 1    
    45   22   24 1    
    46   22  145 1    
    47   23  146 1    
    48   23  147 1    
    49   23  148 1    
    50   24   25 am   BACKBONE|DICT|INTERRES
    51   24  149 1    
    52   25   26 2    
    53   25   27 1    
    54   27   28 1    
    55   27   29 1    
    56   27  150 1    
    57   28  151 1    
    58   28  152 1    
    59   28  153 1    
    60   29   30 am   BACKBONE|DICT|INTERRES
    61   29  154 1    
    62   30   31 2    
    63   30   32 1    
    64   32   33 1    
    65   32   34 1    
    66   32  155 1    
    67   33  156 1    
    68   33  157 1    
    69   33  158 1    
    70   34   35 am   BACKBONE|DICT|INTERRES
    71   34  159 1    
    72   35   36 2    
    73   35   37 1    
    74   37   38 1    
    75   37   39 1    
    76   37  160 1    
    77   38  161 1    
    78   38  162 1    
    79   38  163 1    
    80   39   40 am   BACKBONE|DICT|INTERRES
    81   39  164 1    
    82   40   41 2    
    83   40   42 1    
    84   42   43 1    
    85   42   44 1    
    86   42  165 1    
    87   43  166 1    
    88   43  167 1    
    89   43  168 1    
    90   44   45 am   BACKBONE|DICT|INTERRES
    91   44  169 1    
    92   45   46 2    
    93   45   47 1    
    94   47   48 1    
    95   47   49 1    
    96   47  170 1    
    97   48  171 1    
    98   48  172 1    
    99   48  173 1    
   100   49   50 am   BACKBONE|DICT|INTERRES
   101   49  174 1    
   102   50   51 2    
   103   50   52 1    
   104   52   53 1    
   105   52   54 1    
   106   52  175 1    
   107   53  176 1    
   108   53  177 1    
   109   53  178 1    
   110   54   55 am   BACKBONE|DICT|INTERRES
   111   54  179 1    
   112   55   56 2    
   113   55   57 1    
   114   57   58 1    
   115   57   59 1    
   116   57  180 1    
   117   58  181 1    
   118   58  182 1    
   119   58  183 1    
   120   59   60 am   BACKBONE|DICT|INTERRES
   121   59  184 1    
   122   60   61 2    
   123   60   62 1    
   124   62   63 1    
   125   62   64 1    
   126   62  185 1    
   127   63  186 1    
   128   63  187 1    
   129   63  188 1    
   130   64   65 am   BACKBONE|DICT|INTERRES
   131   64  189 1    
   132   65   66 2    
   133   67   68 2    
   134   67   69 am   BACKBONE|DICT|INTERRES
   135   69   70 1    
   136   69  190 1    
   137   70   71 1    
   138   70   72 1    
   139   70  191 1    
   140   71  192 1    
   141   71  193 1    
   142   71  194 1    
   143   72   73 2    
   144   72   74 am   BACKBONE|DICT|INTERRES
   145   74   75 1    
   146   74  195 1    
   147   75   76 1    
   148   75   77 1    
   149   75  196 1    
   150   76  197 1    
   151   76  198 1    
   152   76  199 1    
   153   77   78 2    
   154   77   79 am   BACKBONE|DICT|INTERRES
   155   79   80 1    
   156   79  200 1    
   157   80   81 1    
   158   80   82 1    
   159   80  201 1    
   160   81  202 1    
   161   81  203 1    
   162   81  204 1    
   163   82   83 2    
   164   82   84 am   BACKBONE|DICT|INTERRES
   165   84   85 1    
   166   84  205 1    
   167   85   86 1    
   168   85   87 1    
   169   85  206 1    
   170   86  207 1    
   171   86  208 1    
   172   86  209 1    
   173   87   88 2    
   174   87   89 am   BACKBONE|DICT|INTERRES
   175   89   90 1    
   176   89  210 1    
   177   90   91 1    
   178   90   92 1    
   179   90  211 1    
   180   91  212 1    
   181   91  213 1    
   182   91  214 1    
   183   92   93 2    
   184   92   94 am   BACKBONE|DICT|INTERRES
   185   94   95 1    
   186   94  215 1    
   187   95   96 1    
   188   95   97 1    
   189   95  216 1    
   190   96  217 1    
   191   96  218 1    
   192   96  219 1    
   193   97   98 2    
   194   97   99 am   BACKBONE|DICT|INTERRES
   195   99  100 1    
   196   99  220 1    
   197  100  101 1    
   198  100  102 1    
   199  100  221 1    
   200  101  222 1    
   201  101  223 1    
   202  101  224 1    
   203  102  103 2    
   204  102  104 am   BACKBONE|DICT|INTERRES
   205  104  105 1    
   206  104  225 1    
   207  105  106 1    
   208  105  107 1    
   209  105  226 1    
   210  106  227 1    
   211  106  228 1    
   212  106  229 1    
   213  107  108 2    
   214  107  109 am   BACKBONE|DICT|INTERRES
   215  109  110 1    
   216  109  230 1    
   217  110  111 1    
   218  110  112 1    
   219  110  231 1    
   220  111  232 1    
   221  111  233 1    
   222  111  234 1    
   223  112  113 2    
   224  112  114 am   BACKBONE|DICT|INTERRES
   225  114  115 1    
   226  114  235 1    
   227  115  116 1    
   228  115  117 1    
   229  115  236 1    
   230  116  237 1    
   231  116  238 1    
   232  116  239 1    
   233  117  118 2    
   234  117  119 am   BACKBONE|DICT|INTERRES
   235  119  120 1    
   236  119  240 1    
   237  120  121 1    
   238  120  124 1    
   239  120  241 1    
   240  121  122 am   BACKBONE|DICT|INTERRES
   241  121  123 2    
   242  122  242 1    
   243  122  243 1    
   244  124  125 1    
   245  124  244 1    
   246  124  245 1    
   247  125  126 1    
   248  126  246 1    
   249  126  247 1    
@<TRIPOS>SUBSTRUCTURE
     1 UNK         1 GROUP             0       ****    0 ROOT    
