@<TRIPOS>MOLECULE
3R540
247   249    1
SMALL
USER_CHARGES


@<TRIPOS>ATOM
      1 CA          5.2664  -17.5144  -44.1850 C.3       0 UNK        -0.1800 
      2 C           5.0182  -16.3679  -45.1549 C.2       0 UNK         0.5000 
      3 O           5.7913  -15.4106  -45.1812 O.2       0 UNK        -0.5000 
      4 N           3.9350  -16.4534  -45.9383 N.am      1 UNK        -0.5000 
      5 CA          3.4930  -15.5029  -46.9702 C.3       1 UNK         0.1400 
      6 C6          4.5768  -15.2236  -48.0489 C.3       23 UNK        -0.0398 
      7 S7          3.8811  -14.5767  -49.6103 S.3       23 UNK        -0.2404 
      8 C8          4.5776  -15.7113  -50.8522 C.3       23 UNK        -0.0205 
      9 C9          4.0308  -17.1226  -50.7089 C.ar      23 UNK        -0.0193 
     10 C10         2.7103  -17.4041  -51.0705 C.ar      23 UNK        -0.1150 
     11 C11         2.1989  -18.6970  -50.9326 C.ar      23 UNK        -0.0193 
     12 C12         3.0180  -19.7111  -50.4298 C.ar      23 UNK        -0.1150 
     13 C13         4.3436  -19.4437  -50.0774 C.ar      23 UNK        -0.0193 
     14 C14         4.8458  -18.1485  -50.2223 C.ar      23 UNK        -0.1150 
     15 C15         5.2328  -20.5546  -49.5408 C.3       23 UNK        -0.0205 
     16 S16         5.5868  -20.3688  -47.7625 S.3       23 UNK        -0.2404 
     17 C17         3.9182  -20.3558  -47.0244 C.3       23 UNK        -0.0398 
     18 CA          3.4527  -21.7287  -46.4880 C.3       11 UNK         0.1400 
     19 N           2.3552  -21.5693  -45.5326 N.am      11 UNK        -0.5000 
     20 C           1.9300  -22.5162  -44.6858 C.2       10 UNK         0.5000 
     21 O           2.4366  -23.6340  -44.5931 O.2       10 UNK        -0.5000 
     22 CA          0.7117  -22.1607  -43.8141 C.3       10 UNK         0.1400 
     23 CB          1.1417  -21.3272  -42.5979 C.3       10 UNK        -0.1800 
     24 N          -0.3218  -21.4411  -44.5591 N.am      10 UNK        -0.5000 
     25 C          -1.0106  -21.9544  -45.5880 C.2       9 UNK         0.5000 
     26 O          -0.8827  -23.1086  -45.9940 O.2       9 UNK        -0.5000 
     27 CA         -1.9818  -21.0074  -46.3072 C.3       9 UNK         0.1400 
     28 CB         -3.2935  -20.8939  -45.5144 C.3       9 UNK        -0.1800 
     29 N          -1.4206  -19.6754  -46.5281 N.am      9 UNK        -0.5000 
     30 C          -0.3304  -19.4037  -47.2600 C.2       8 UNK         0.5000 
     31 O           0.3087  -20.2526  -47.8770 O.2       8 UNK        -0.5000 
     32 CA          0.1767  -17.9522  -47.2357 C.3       8 UNK         0.1400 
     33 CB         -0.6360  -17.0433  -48.1684 C.3       8 UNK        -0.1800 
     34 N           0.1580  -17.4144  -45.8764 N.am      8 UNK        -0.5000 
     35 C           0.9939  -17.8104  -44.9085 C.2       7 UNK         0.5000 
     36 O           1.9382  -18.5746  -45.1028 O.2       7 UNK        -0.5000 
     37 CA          0.7399  -17.2704  -43.4921 C.3       7 UNK         0.1400 
     38 CB          1.6147  -16.0414  -43.2274 C.3       7 UNK        -0.1800 
     39 N          -0.6672  -16.9407  -43.2562 N.am      7 UNK        -0.5000 
     40 C          -1.6229  -17.8653  -43.0993 C.2       6 UNK         0.5000 
     41 O          -1.4068  -19.0766  -43.1449 O.2       6 UNK        -0.5000 
     42 CA         -3.0617  -17.3533  -42.9045 C.3       6 UNK         0.1400 
     43 CB         -3.2478  -16.7646  -41.4978 C.3       6 UNK        -0.1800 
     44 N          -3.4847  -16.3698  -43.9070 N.am      6 UNK        -0.5000 
     45 C          -3.5376  -16.5912  -45.2279 C.2       5 UNK         0.5000 
     46 O          -3.1412  -17.6267  -45.7558 O.2       5 UNK        -0.5000 
     47 CA         -4.1218  -15.4874  -46.1296 C.3       5 UNK         0.1400 
     48 CB         -5.4801  -15.9372  -46.6899 C.3       5 UNK        -0.1800 
     49 N          -4.2942  -14.2013  -45.4473 N.am      5 UNK        -0.5000 
     50 C          -3.3643  -13.2619  -45.2199 C.2       4 UNK         0.5000 
     51 O          -3.6499  -12.2183  -44.6312 O.2       4 UNK        -0.5000 
     52 CA         -1.9172  -13.4616  -45.7332 C.3       4 UNK         0.1400 
     53 CB         -1.7595  -12.8797  -47.1465 C.3       4 UNK        -0.1800 
     54 N          -0.9360  -12.8294  -44.8543 N.am      4 UNK        -0.5000 
     55 C          -0.6873  -13.1957  -43.5924 C.2       3 UNK         0.5000 
     56 O          -1.2122  -14.1729  -43.0547 O.2       3 UNK        -0.5000 
     57 CA          0.3681  -12.3629  -42.8409 C.3       3 UNK         0.1400 
     58 CB          0.4718  -12.7256  -41.3486 C.3       3 UNK        -0.1800 
     59 N           1.6818  -12.5124  -43.4701 N.am      3 UNK        -0.5000 
     60 C           2.1060  -11.7935  -44.5166 C.2       2 UNK         0.5000 
     61 O           1.4376  -10.9045  -45.0473 O.2       2 UNK        -0.5000 
     62 CA          3.4996  -12.1345  -45.0745 C.3       2 UNK         0.1400 
     63 CB          4.6010  -11.7852  -44.0605 C.3       2 UNK        -0.1800 
     64 N           3.6758  -13.5210  -45.5184 N.am      2 UNK        -0.5000 
     65 C           2.9148  -14.1862  -46.3997 C.2       1 UNK         0.5000 
     66 O           1.8153  -13.7979  -46.7922 O.2       1 UNK        -0.5000 
     67 C           3.0846  -22.7121  -47.6220 C.2       11 UNK         0.5000 
     68 O           3.8905  -23.5819  -47.9555 O.2       11 UNK        -0.5000 
     69 N           1.8688  -22.5806  -48.1744 N.am      12 UNK        -0.5000 
     70 CA          1.3197  -23.4640  -49.2083 C.3       12 UNK         0.1400 
     71 CB          0.0498  -22.8252  -49.7955 C.3       12 UNK        -0.1800 
     72 C           1.0003  -24.8830  -48.6990 C.2       12 UNK         0.5000 
     73 O           0.9666  -25.8167  -49.5010 O.2       12 UNK        -0.5000 
     74 N           0.7529  -25.0032  -47.3869 N.am      13 UNK        -0.5000 
     75 CA          0.2837  -26.1855  -46.6615 C.3       13 UNK         0.1400 
     76 CB          1.3244  -27.3235  -46.7107 C.3       13 UNK        -0.1800 
     77 C          -1.1277  -26.6175  -47.1123 C.2       13 UNK         0.5000 
     78 O          -1.4082  -27.8136  -47.2139 O.2       13 UNK        -0.5000 
     79 N          -1.9922  -25.6301  -47.3772 N.am      14 UNK        -0.5000 
     80 CA         -3.3648  -25.8099  -47.8341 C.3       14 UNK         0.1400 
     81 CB         -3.3872  -26.0944  -49.3447 C.3       14 UNK        -0.1800 
     82 C          -4.1641  -24.5484  -47.4859 C.2       14 UNK         0.5000 
     83 O          -3.6983  -23.4402  -47.7628 O.2       14 UNK        -0.5000 
     84 N          -5.3417  -24.7475  -46.8799 N.am      15 UNK        -0.5000 
     85 CA         -6.2165  -23.7191  -46.3105 C.3       15 UNK         0.1400 
     86 CB         -7.4939  -24.3929  -45.7870 C.3       15 UNK        -0.1800 
     87 C          -6.5821  -22.5798  -47.2797 C.2       15 UNK         0.5000 
     88 O          -6.8227  -22.8325  -48.4625 O.2       15 UNK        -0.5000 
     89 N          -6.6357  -21.3531  -46.7393 N.am      16 UNK        -0.5000 
     90 CA         -7.0037  -20.1027  -47.4155 C.3       16 UNK         0.1400 
     91 CB         -8.5159  -20.0900  -47.7223 C.3       16 UNK        -0.1800 
     92 C          -6.1400  -19.8048  -48.6588 C.2       16 UNK         0.5000 
     93 O          -6.6721  -19.4032  -49.6928 O.2       16 UNK        -0.5000 
     94 N          -4.8248  -20.0431  -48.5399 N.am      17 UNK        -0.5000 
     95 CA         -3.8154  -19.9279  -49.5986 C.3       17 UNK         0.1400 
     96 CB         -3.6436  -18.4559  -50.0280 C.3       17 UNK        -0.1800 
     97 C          -4.1258  -20.8788  -50.7720 C.2       17 UNK         0.5000 
     98 O          -4.1944  -20.4473  -51.9243 O.2       17 UNK        -0.5000 
     99 N          -4.3536  -22.1574  -50.4356 N.am      18 UNK        -0.5000 
    100 CA        -4.7765  -23.2358  -51.3345 C.3       18 UNK         0.1400 
    101 CB        -3.6359  -23.6018  -52.3087 C.3       18 UNK        -0.1800 
    102 C         -6.1024  -22.9105  -52.0533 C.2       18 UNK         0.5000 
    103 O         -6.1854  -23.0224  -53.2760 O.2       18 UNK        -0.5000 
    104 N         -7.1015  -22.4633  -51.2782 N.am      19 UNK        -0.5000 
    105 CA        -8.4065  -21.9619  -51.7287 C.3       19 UNK         0.1400 
    106 CB        -9.2765  -23.1189  -52.2612 C.3       19 UNK        -0.1800 
    107 C         -8.2747  -20.7893  -52.7277 C.2       19 UNK         0.5000 
    108 O         -8.9340  -20.7737  -53.7686 O.2       19 UNK        -0.5000 
    109 N         -7.3880  -19.8452  -52.3862 N.am      20 UNK        -0.5000 
    110 CA        -6.9905  -18.6470  -53.1284 C.3       20 UNK         0.1400 
    111 CB        -8.1848  -17.6838  -53.2908 C.3       20 UNK        -0.1800 
    112 C         -6.2607  -18.9159  -54.4633 C.2       20 UNK         0.5000 
    113 O         -6.1107  -17.9861  -55.2585 O.2       20 UNK        -0.5000 
    114 N         -5.8001  -20.1537  -54.6987 N.am      21 UNK        -0.5000 
    115 CA        -5.0137  -20.5156  -55.8803 C.3       21 UNK         0.1400 
    116 CB        -5.0870  -22.0317  -56.1120 C.3       21 UNK        -0.1800 
    117 C         -3.5468  -20.0615  -55.7696 C.2       21 UNK         0.5000 
    118 O         -2.9303  -19.7614  -56.7931 O.2       21 UNK        -0.5000 
    119 N         -3.0141  -20.0224  -54.5426 N.am      22 UNK        -0.5000 
    120 CA        -1.6707  -19.5278  -54.2303 C.3       22 UNK         0.1400 
    121 C         -1.6735  -17.9810  -54.0857 C.2       22 UNK         0.5000 
    122 N         -0.7011  -17.2925  -54.6678 N.am      22 UNK        -0.7600 
    123 O         -2.5311  -17.4012  -53.4240 O.2       22 UNK        -0.5000 
    124 C124       -1.1222  -20.2322  -52.9657 C.3       23 UNK        -0.0398 
    125 S125        0.6827  -20.0750  -52.7841 S.3       23 UNK        -0.2404 
    126 C126        0.7624  -19.0010  -51.3188 C.3       23 UNK        -0.0205 
    127 H127        4.4429  -18.2281  -44.1758 H         1 UNK         0.0600 
    128 H128        5.3900  -17.1296  -43.1728 H         1 UNK         0.0600 
    129 H129        6.1754  -18.0479  -44.4624 H         1 UNK         0.0600 
    130 H130        3.3308  -17.2595  -45.8200 H         1 UNK         0.3000 
    131 H131        2.6658  -16.0117  -47.4673 H         1 UNK         0.0600 
    132 H132        5.3265  -14.5185  -47.6862 H         1 UNK         0.0800 
    133 H133        5.1235  -16.1423  -48.2597 H         1 UNK         0.0800 
    134 H134        4.3372  -15.3348  -51.8475 H         1 UNK         0.0800 
    135 H135        5.6663  -15.7040  -50.7786 H         1 UNK         0.0800 
    136 H136        2.0818  -16.6121  -51.4531 H         1 UNK         0.1150 
    137 H137        2.6198  -20.7099  -50.3193 H         1 UNK         0.1150 
    138 H138        5.8699  -17.9407  -49.9452 H         1 UNK         0.1150 
    139 H139        4.7844  -21.5317  -49.7240 H         1 UNK         0.0800 
    140 H140        6.1767  -20.5508  -50.0876 H         1 UNK         0.0800 
    141 H141        3.1802  -19.9210  -47.6979 H         1 UNK         0.0800 
    142 H142        3.9900  -19.6579  -46.1914 H         1 UNK         0.0800 
    143 H143        4.2869  -22.1688  -45.9370 H         1 UNK         0.0600 
    144 H144        1.9010  -20.6637  -45.5170 H         1 UNK         0.3000 
    145 H145        0.2742  -23.0935  -43.4524 H         1 UNK         0.0600 
    146 H146        0.2913  -21.0965  -41.9558 H         1 UNK         0.0600 
    147 H147        1.8698  -21.8685  -41.9925 H         1 UNK         0.0600 
    148 H148        1.6011  -20.3854  -42.8979 H         1 UNK         0.0600 
    149 H149       -0.5506  -20.5044  -44.2409 H         1 UNK         0.3000 
    150 H150       -2.1953  -21.4361  -47.2857 H         1 UNK         0.0600 
    151 H151       -3.9934  -20.2054  -45.9822 H         1 UNK         0.0600 
    152 H152       -3.7805  -21.8653  -45.4371 H         1 UNK         0.0600 
    153 H153       -3.1227  -20.5373  -44.4991 H         1 UNK         0.0600 
    154 H154       -1.9187  -18.9043  -46.0879 H         1 UNK         0.3000 
    155 H155        1.2081  -17.9606  -47.5948 H         1 UNK         0.0600 
    156 H156       -1.6744  -16.9595  -47.8525 H         1 UNK         0.0600 
    157 H157       -0.6345  -17.4274  -49.1883 H         1 UNK         0.0600 
    158 H158       -0.2143  -16.0381  -48.1999 H         1 UNK         0.0600 
    159 H159       -0.6112  -16.8122  -45.6278 H         1 UNK         0.3000 
    160 H160        1.0328  -18.0467  -42.7827 H         1 UNK         0.0600 
    161 H161        1.4155  -15.2491  -43.9476 H         1 UNK         0.0600 
    162 H162        2.6724  -16.2927  -43.2946 H         1 UNK         0.0600 
    163 H163        1.4445  -15.6523  -42.2254 H         1 UNK         0.0600 
    164 H164       -0.9146  -15.9545  -43.1858 H         1 UNK         0.3000 
    165 H165       -3.7249  -18.2159  -42.9971 H         1 UNK         0.0600 
    166 H166       -4.2914  -16.5106  -41.3121 H         1 UNK         0.0600 
    167 H167       -2.9474  -17.4804  -40.7314 H         1 UNK         0.0600 
    168 H168       -2.6530  -15.8616  -41.3550 H         1 UNK         0.0600 
    169 H169       -3.7965  -15.4759  -43.5558 H         1 UNK         0.3000 
    170 H170       -3.4495  -15.3643  -46.9795 H         1 UNK         0.0600 
    171 H171       -5.3854  -16.8716  -47.2456 H         1 UNK         0.0600 
    172 H172       -6.2113  -16.0994  -45.8969 H         1 UNK         0.0600 
    173 H173       -5.8885  -15.1958  -47.3770 H         1 UNK         0.0600 
    174 H174       -5.2287  -14.0212  -45.1104 H         1 UNK         0.3000 
    175 H175       -1.6658  -14.5213  -45.7638 H         1 UNK         0.0600 
    176 H176       -1.9397  -11.8040  -47.1594 H         1 UNK         0.0600 
    177 H177       -0.7562  -13.0553  -47.5352 H         1 UNK         0.0600 
    178 H178       -2.4608  -13.3368  -47.8451 H         1 UNK         0.0600 
    179 H179       -0.4262  -12.0387  -45.2293 H         1 UNK         0.3000 
    180 H180        0.0535  -11.3184  -42.8957 H         1 UNK         0.0600 
    181 H181        0.7891  -13.7555  -41.1946 H         1 UNK         0.0600 
    182 H182       -0.4918  -12.6040  -40.8522 H         1 UNK         0.0600 
    183 H183        1.1831  -12.0776  -40.8364 H         1 UNK         0.0600 
    184 H184        2.2777  -13.2436  -43.1118 H         1 UNK         0.3000 
    185 H185        3.6501  -11.5049  -45.9536 H         1 UNK         0.0600 
    186 H186        4.4986  -10.7582  -43.7072 H         1 UNK         0.0600 
    187 H187        4.5706  -12.4387  -43.1879 H         1 UNK         0.0600 
    188 H188        5.5906  -11.8754  -44.5090 H         1 UNK         0.0600 
    189 H189        4.5502  -13.9677  -45.2552 H         1 UNK         0.3000 
    190 H190        1.2752  -21.8038  -47.8895 H         1 UNK         0.3000 
    191 H191        2.0592  -23.5552  -50.0064 H         1 UNK         0.0600 
    192 H192        0.2647  -21.8509  -50.2309 H         1 UNK         0.0600 
    193 H193       -0.3733  -23.4458  -50.5863 H         1 UNK         0.0600 
    194 H194       -0.7219  -22.6909  -49.0361 H         1 UNK         0.0600 
    195 H195        0.7338  -24.1467  -46.8462 H         1 UNK         0.3000 
    196 H196        0.1864  -25.8767  -45.6197 H         1 UNK         0.0600 
    197 H197        1.0393  -28.1404  -46.0469 H         1 UNK         0.0600 
    198 H198        2.3054  -26.9726  -46.3901 H         1 UNK         0.0600 
    199 H199        1.4271  -27.7397  -47.7131 H         1 UNK         0.0600 
    200 H200       -1.7120  -24.6681  -47.2086 H         1 UNK         0.3000 
    201 H201       -3.8043  -26.6596  -47.3072 H         1 UNK         0.0600 
    202 H202       -2.8635  -27.0207  -49.5811 H         1 UNK         0.0600 
    203 H203       -2.9086  -25.2919  -49.9055 H         1 UNK         0.0600 
    204 H204       -4.4095  -26.2002  -49.7088 H         1 UNK         0.0600 
    205 H205       -5.6475  -25.6989  -46.7382 H         1 UNK         0.3000 
    206 H206       -5.6866  -23.2910  -45.4582 H         1 UNK         0.0600 
    207 H207       -7.2653  -25.1420  -45.0287 H         1 UNK         0.0600 
    208 H208       -8.1635  -23.6638  -45.3284 H         1 UNK         0.0600 
    209 H209       -8.0453  -24.8839  -46.5901 H         1 UNK         0.0600 
    210 H210       -6.4333  -21.2606  -45.7537 H         1 UNK         0.3000 
    211 H211       -6.8034  -19.2953  -46.7096 H         1 UNK         0.0600 
    212 H212       -8.7884  -20.8588  -48.4456 H         1 UNK         0.0600 
    213 H213       -8.8260  -19.1283  -48.1329 H         1 UNK         0.0600 
    214 H214       -9.1019  -20.2591  -46.8190 H         1 UNK         0.0600 
    215 H215       -4.4956  -20.4095  -47.6593 H         1 UNK         0.3000 
    216 H216       -2.8664  -20.2572  -49.1759 H         1 UNK         0.0600 
    217 H217       -2.7814  -18.3358  -50.6836 H         1 UNK         0.0600 
    218 H218       -3.4885  -17.8107  -49.1641 H         1 UNK         0.0600 
    219 H219       -4.5143  -18.0827  -50.5677 H         1 UNK         0.0600 
    220 H220       -4.2883  -22.4162  -49.4562 H         1 UNK         0.3000 
    221 H221       -4.9783  -24.1016  -50.7051 H         1 UNK         0.0600 
    222 H222       -3.4394  -22.8019  -53.0230 H         1 UNK         0.0600 
    223 H223       -2.7074  -23.8046  -51.7760 H         1 UNK         0.0600 
    224 H224       -3.8857  -24.4955  -52.8814 H         1 UNK         0.0600 
    225 H225       -6.9452  -22.4399  -50.2718 H         1 UNK         0.3000 
    226 H226       -8.9008  -21.5564  -50.8451 H         1 UNK         0.0600 
    227 H227       -9.3680  -23.9144  -51.5218 H         1 UNK         0.0600 
    228 H228      -10.2848  -22.7742  -52.4931 H         1 UNK         0.0600 
    229 H229       -8.8617  -23.5529  -53.1715 H         1 UNK         0.0600 
    230 H230       -6.9367  -19.9340  -51.4784 H         1 UNK         0.3000 
    231 H231       -6.2561  -18.1493  -52.4936 H         1 UNK         0.0600 
    232 H232       -8.9365  -18.0818  -53.9727 H         1 UNK         0.0600 
    233 H233       -7.8618  -16.7210  -53.6881 H         1 UNK         0.0600 
    234 H234       -8.6675  -17.4905  -52.3327 H         1 UNK         0.0600 
    235 H235       -5.9505  -20.8772  -54.0059 H         1 UNK         0.3000 
    236 H236       -5.4515  -20.0256  -56.7526 H         1 UNK         0.0600 
    237 H237       -6.1200  -22.3771  -56.1578 H         1 UNK         0.0600 
    238 H238       -4.6094  -22.3033  -57.0540 H         1 UNK         0.0600 
    239 H239       -4.5810  -22.5850  -55.3206 H         1 UNK         0.0600 
    240 H240       -3.6056  -20.2176  -53.7386 H         1 UNK         0.3000 
    241 H241       -1.0168  -19.7950  -55.0632 H         1 UNK         0.0600 
    242 H242        0.0233  -17.7496  -55.1995 H         1 UNK         0.3800 
    243 H243       -0.6879  -16.2892  -54.5734 H         1 UNK         0.3800 
    244 H244       -1.3393  -21.3002  -53.0134 H         1 UNK         0.0800 
    245 H245       -1.6211  -19.8693  -52.0682 H         1 UNK         0.0800 
    246 H246        0.2149  -18.0789  -51.5207 H         1 UNK         0.0800 
    247 H247        0.2602  -19.4846  -50.4808 H         1 UNK         0.0800 
@<TRIPOS>BOND
     1    1    2 1    
     2    1  127 1    
     3    1  128 1    
     4    1  129 1    
     5    2    3 2    
     6    2    4 am   BACKBONE|DICT|INTERRES
     7    4    5 1    
     8    4  130 1    
     9    5    6 1    
    10    5   65 1    
    11    5  131 1    
    12    6    7 1    
    13    6  132 1    
    14    6  133 1    
    15    7    8 1    
    16    8    9 1    
    17    8  134 1    
    18    8  135 1    
    19    9   10 ar   
    20    9   14 ar   
    21   10   11 ar   
    22   10  136 1    
    23   11   12 ar   
    24   11  126 1    
    25   12   13 ar   
    26   12  137 1    
    27   13   14 ar   
    28   13   15 1    
    29   14  138 1    
    30   15   16 1    
    31   15  139 1    
    32   15  140 1    
    33   16   17 1    
    34   17   18 1    
    35   17  141 1    
    36   17  142 1    
    37   18   19 1    
    38   18   67 1    
    39   18  143 1    
    40   19   20 am   BACKBONE|DICT|INTERRES
    41   19  144 1    
    42   20   21 2    
    43   20   22 1    
    44   22   23 1    
    45   22   24 1    
    46   22  145 1    
    47   23  146 1    
    48   23  147 1    
    49   23  148 1    
    50   24   25 am   BACKBONE|DICT|INTERRES
    51   24  149 1    
    52   25   26 2    
    53   25   27 1    
    54   27   28 1    
    55   27   29 1    
    56   27  150 1    
    57   28  151 1    
    58   28  152 1    
    59   28  153 1    
    60   29   30 am   BACKBONE|DICT|INTERRES
    61   29  154 1    
    62   30   31 2    
    63   30   32 1    
    64   32   33 1    
    65   32   34 1    
    66   32  155 1    
    67   33  156 1    
    68   33  157 1    
    69   33  158 1    
    70   34   35 am   BACKBONE|DICT|INTERRES
    71   34  159 1    
    72   35   36 2    
    73   35   37 1    
    74   37   38 1    
    75   37   39 1    
    76   37  160 1    
    77   38  161 1    
    78   38  162 1    
    79   38  163 1    
    80   39   40 am   BACKBONE|DICT|INTERRES
    81   39  164 1    
    82   40   41 2    
    83   40   42 1    
    84   42   43 1    
    85   42   44 1    
    86   42  165 1    
    87   43  166 1    
    88   43  167 1    
    89   43  168 1    
    90   44   45 am   BACKBONE|DICT|INTERRES
    91   44  169 1    
    92   45   46 2    
    93   45   47 1    
    94   47   48 1    
    95   47   49 1    
    96   47  170 1    
    97   48  171 1    
    98   48  172 1    
    99   48  173 1    
   100   49   50 am   BACKBONE|DICT|INTERRES
   101   49  174 1    
   102   50   51 2    
   103   50   52 1    
   104   52   53 1    
   105   52   54 1    
   106   52  175 1    
   107   53  176 1    
   108   53  177 1    
   109   53  178 1    
   110   54   55 am   BACKBONE|DICT|INTERRES
   111   54  179 1    
   112   55   56 2    
   113   55   57 1    
   114   57   58 1    
   115   57   59 1    
   116   57  180 1    
   117   58  181 1    
   118   58  182 1    
   119   58  183 1    
   120   59   60 am   BACKBONE|DICT|INTERRES
   121   59  184 1    
   122   60   61 2    
   123   60   62 1    
   124   62   63 1    
   125   62   64 1    
   126   62  185 1    
   127   63  186 1    
   128   63  187 1    
   129   63  188 1    
   130   64   65 am   BACKBONE|DICT|INTERRES
   131   64  189 1    
   132   65   66 2    
   133   67   68 2    
   134   67   69 am   BACKBONE|DICT|INTERRES
   135   69   70 1    
   136   69  190 1    
   137   70   71 1    
   138   70   72 1    
   139   70  191 1    
   140   71  192 1    
   141   71  193 1    
   142   71  194 1    
   143   72   73 2    
   144   72   74 am   BACKBONE|DICT|INTERRES
   145   74   75 1    
   146   74  195 1    
   147   75   76 1    
   148   75   77 1    
   149   75  196 1    
   150   76  197 1    
   151   76  198 1    
   152   76  199 1    
   153   77   78 2    
   154   77   79 am   BACKBONE|DICT|INTERRES
   155   79   80 1    
   156   79  200 1    
   157   80   81 1    
   158   80   82 1    
   159   80  201 1    
   160   81  202 1    
   161   81  203 1    
   162   81  204 1    
   163   82   83 2    
   164   82   84 am   BACKBONE|DICT|INTERRES
   165   84   85 1    
   166   84  205 1    
   167   85   86 1    
   168   85   87 1    
   169   85  206 1    
   170   86  207 1    
   171   86  208 1    
   172   86  209 1    
   173   87   88 2    
   174   87   89 am   BACKBONE|DICT|INTERRES
   175   89   90 1    
   176   89  210 1    
   177   90   91 1    
   178   90   92 1    
   179   90  211 1    
   180   91  212 1    
   181   91  213 1    
   182   91  214 1    
   183   92   93 2    
   184   92   94 am   BACKBONE|DICT|INTERRES
   185   94   95 1    
   186   94  215 1    
   187   95   96 1    
   188   95   97 1    
   189   95  216 1    
   190   96  217 1    
   191   96  218 1    
   192   96  219 1    
   193   97   98 2    
   194   97   99 am   BACKBONE|DICT|INTERRES
   195   99  100 1    
   196   99  220 1    
   197  100  101 1    
   198  100  102 1    
   199  100  221 1    
   200  101  222 1    
   201  101  223 1    
   202  101  224 1    
   203  102  103 2    
   204  102  104 am   BACKBONE|DICT|INTERRES
   205  104  105 1    
   206  104  225 1    
   207  105  106 1    
   208  105  107 1    
   209  105  226 1    
   210  106  227 1    
   211  106  228 1    
   212  106  229 1    
   213  107  108 2    
   214  107  109 am   BACKBONE|DICT|INTERRES
   215  109  110 1    
   216  109  230 1    
   217  110  111 1    
   218  110  112 1    
   219  110  231 1    
   220  111  232 1    
   221  111  233 1    
   222  111  234 1    
   223  112  113 2    
   224  112  114 am   BACKBONE|DICT|INTERRES
   225  114  115 1    
   226  114  235 1    
   227  115  116 1    
   228  115  117 1    
   229  115  236 1    
   230  116  237 1    
   231  116  238 1    
   232  116  239 1    
   233  117  118 2    
   234  117  119 am   BACKBONE|DICT|INTERRES
   235  119  120 1    
   236  119  240 1    
   237  120  121 1    
   238  120  124 1    
   239  120  241 1    
   240  121  122 am   BACKBONE|DICT|INTERRES
   241  121  123 2    
   242  122  242 1    
   243  122  243 1    
   244  124  125 1    
   245  124  244 1    
   246  124  245 1    
   247  125  126 1    
   248  126  246 1    
   249  126  247 1    
@<TRIPOS>SUBSTRUCTURE
     1 UNK         1 GROUP             0       ****    0 ROOT    
