@<TRIPOS>MOLECULE
3R540
247   249    1
SMALL
USER_CHARGES


@<TRIPOS>ATOM
      1 CA          2.9429  -14.5803  -51.4320 C.3       0 UNK        -0.1800 
      2 C           3.0834  -14.4851  -49.9201 C.2       0 UNK         0.5000 
      3 O           3.6358  -15.3910  -49.2958 O.2       0 UNK        -0.5000 
      4 N           2.5943  -13.3907  -49.3249 N.am      1 UNK        -0.5000 
      5 CA          2.5477  -13.1358  -47.8778 C.3       1 UNK         0.1400 
      6 C6          1.4251  -12.1302  -47.5031 C.3       23 UNK        -0.0398 
      7 S7         -0.2130  -12.5267  -48.2041 S.3       23 UNK        -0.2404 
      8 C8         -0.6762  -14.0229  -47.2811 C.3       23 UNK        -0.0205 
      9 C9         -0.9263  -15.1878  -48.2245 C.ar      23 UNK        -0.0193 
     10 C10        -2.2012  -15.3836  -48.7591 C.ar      23 UNK        -0.1150 
     11 C11        -2.4668  -16.4754  -49.5877 C.ar      23 UNK        -0.0193 
     12 C12        -1.4322  -17.3561  -49.9201 C.ar      23 UNK        -0.1150 
     13 C13        -0.1447  -17.1596  -49.4073 C.ar      23 UNK        -0.0193 
     14 C14         0.0980  -16.0808  -48.5509 C.ar      23 UNK        -0.1150 
     15 C15         0.9920  -18.0998  -49.7833 C.3       23 UNK        -0.0205 
     16 S16         1.3486  -19.3134  -48.4729 S.3       23 UNK        -0.2404 
     17 C17        -0.1087  -20.3967  -48.6026 C.3       23 UNK        -0.0398 
     18 CA          0.0582  -21.7303  -47.8346 C.3       11 UNK         0.1400 
     19 N           0.1180  -21.5439  -46.3823 N.am      11 UNK        -0.5000 
     20 C           0.3280  -22.5178  -45.4849 C.2       10 UNK         0.5000 
     21 O           0.5532  -23.6903  -45.7822 O.2       10 UNK        -0.5000 
     22 CA          0.2066  -22.1304  -44.0018 C.3       10 UNK         0.1400 
     23 CB          1.4858  -21.4447  -43.4976 C.3       10 UNK        -0.1800 
     24 N          -0.9514  -21.2723  -43.7533 N.am      10 UNK        -0.5000 
     25 C          -2.2266  -21.6693  -43.8691 C.2       9 UNK         0.5000 
     26 O          -2.5643  -22.8123  -44.1738 O.2       9 UNK        -0.5000 
     27 CA         -3.3061  -20.5976  -43.6433 C.3       9 UNK         0.1400 
     28 CB         -3.5698  -20.3962  -42.1438 C.3       9 UNK        -0.1800 
     29 N          -2.9524  -19.3159  -44.2494 N.am      9 UNK        -0.5000 
     30 C          -2.8612  -19.1034  -45.5701 C.2       8 UNK         0.5000 
     31 O          -3.0787  -19.9644  -46.4230 O.2       8 UNK        -0.5000 
     32 CA         -2.4046  -17.6993  -46.0037 C.3       8 UNK         0.1400 
     33 CB         -3.5950  -16.7285  -45.9540 C.3       8 UNK        -0.1800 
     34 N          -1.3116  -17.1596  -45.1904 N.am      8 UNK        -0.5000 
     35 C          -0.1422  -17.7747  -44.9497 C.2       7 UNK         0.5000 
     36 O           0.1544  -18.8735  -45.4122 O.2       7 UNK        -0.5000 
     37 CA          0.8509  -17.0882  -43.9921 C.3       7 UNK         0.1400 
     38 CB          2.0108  -16.4642  -44.7831 C.3       7 UNK        -0.1800 
     39 N           0.2384  -16.0749  -43.1294 N.am      7 UNK        -0.5000 
     40 C          -0.7153  -16.3192  -42.2146 C.2       6 UNK         0.5000 
     41 O          -1.1399  -17.4488  -41.9655 O.2       6 UNK        -0.5000 
     42 CA         -1.3325  -15.1100  -41.4803 C.3       6 UNK         0.1400 
     43 CB         -0.7976  -15.0287  -40.0424 C.3       6 UNK        -0.1800 
     44 N          -1.1022  -13.8224  -42.1389 N.am      6 UNK        -0.5000 
     45 C          -1.5273  -13.4710  -43.3617 C.2       5 UNK         0.5000 
     46 O          -2.2235  -14.1926  -44.0756 O.2       5 UNK        -0.5000 
     47 CA         -1.0320  -12.1096  -43.8961 C.3       5 UNK         0.1400 
     48 CB         -2.0868  -11.0204  -43.6551 C.3       5 UNK        -0.1800 
     49 N           0.2472  -11.6832  -43.3126 N.am      5 UNK        -0.5000 
     50 C           1.3996  -12.3545  -43.4383 C.2       4 UNK         0.5000 
     51 O           1.5144  -13.3884  -44.1036 O.2       4 UNK        -0.5000 
     52 CA          2.6001  -11.8239  -42.6430 C.3       4 UNK         0.1400 
     53 CB          2.3962  -12.0769  -41.1349 C.3       4 UNK        -0.1800 
     54 N           3.7874  -12.5220  -43.1203 N.am      4 UNK        -0.5000 
     55 C           5.0618  -12.2482  -42.8237 C.2       3 UNK         0.5000 
     56 O           5.4229  -11.3232  -42.0957 O.2       3 UNK        -0.5000 
     57 CA          6.1052  -13.1464  -43.4971 C.3       3 UNK         0.1400 
     58 CB          5.9970  -14.6031  -43.0014 C.3       3 UNK        -0.1800 
     59 N           5.9238  -13.0594  -44.9425 N.am      3 UNK        -0.5000 
     60 C           6.7780  -13.4775  -45.8797 C.2       2 UNK         0.5000 
     61 O           7.8347  -14.0574  -45.6225 O.2       2 UNK        -0.5000 
     62 CA          6.3882  -13.1857  -47.3478 C.3       2 UNK         0.1400 
     63 CB          7.2557  -13.9608  -48.3562 C.3       2 UNK        -0.1800 
     64 N           4.9791  -13.4515  -47.6536 N.am      2 UNK        -0.5000 
     65 C           3.9235  -12.6999  -47.3181 C.2       1 UNK         0.5000 
     66 O           4.0172  -11.6993  -46.6044 O.2       1 UNK        -0.5000 
     67 C          -1.0574  -22.7173  -48.2280 C.2       11 UNK         0.5000 
     68 O          -0.7896  -23.6727  -48.9580 O.2       11 UNK        -0.5000 
     69 N          -2.2750  -22.4908  -47.7124 N.am      12 UNK        -0.5000 
     70 CA         -3.4396  -23.3413  -47.9551 C.3       12 UNK         0.1400 
     71 CB         -4.6943  -22.6876  -47.3598 C.3       12 UNK        -0.1800 
     72 C          -3.2616  -24.7746  -47.4251 C.2       12 UNK         0.5000 
     73 O          -3.6227  -25.7221  -48.1223 O.2       12 UNK        -0.5000 
     74 N          -2.6758  -24.9147  -46.2271 N.am      13 UNK        -0.5000 
     75 CA         -2.3494  -26.2030  -45.6141 C.3       13 UNK         0.1400 
     76 CB         -1.9106  -25.9896  -44.1577 C.3       13 UNK        -0.1800 
     77 C          -1.2773  -26.9848  -46.3945 C.2       13 UNK         0.5000 
     78 O          -1.4136  -28.1984  -46.5519 O.2       13 UNK        -0.5000 
     79 N          -0.2454  -26.2806  -46.8812 N.am      14 UNK        -0.5000 
     80 CA          0.8326  -26.8454  -47.6934 C.3       14 UNK         0.1400 
     81 CB          1.9722  -25.8233  -47.8245 C.3       14 UNK        -0.1800 
     82 C           0.3512  -27.3063  -49.0803 C.2       14 UNK         0.5000 
     83 O           0.7420  -28.3846  -49.5298 O.2       14 UNK        -0.5000 
     84 N          -0.4934  -26.4913  -49.7268 N.am      15 UNK        -0.5000 
     85 CA         -1.0921  -26.7957  -51.0270 C.3       15 UNK         0.1400 
     86 CB         -1.6699  -25.5063  -51.6284 C.3       15 UNK        -0.1800 
     87 C          -2.1898  -27.8720  -50.9516 C.2       15 UNK         0.5000 
     88 O          -2.3755  -28.6083  -51.9211 O.2       15 UNK        -0.5000 
     89 N          -2.9129  -27.9105  -49.8215 N.am      16 UNK        -0.5000 
     90 CA         -4.1443  -28.6700  -49.5755 C.3       16 UNK         0.1400 
     91 CB         -3.8763  -30.1892  -49.5863 C.3       16 UNK        -0.1800 
     92 C          -5.2808  -28.2368  -50.5287 C.2       16 UNK         0.5000 
     93 O          -6.0635  -29.0699  -50.9897 O.2       16 UNK        -0.5000 
     94 N          -5.3251  -26.9327  -50.8253 N.am      17 UNK        -0.5000 
     95 CA         -6.1749  -26.2847  -51.8179 C.3       17 UNK         0.1400 
     96 CB         -5.7176  -26.6819  -53.2380 C.3       17 UNK        -0.1800 
     97 C          -6.0860  -24.7626  -51.6176 C.2       17 UNK         0.5000 
     98 O          -5.3408  -24.2969  -50.7504 O.2       17 UNK        -0.5000 
     99 N          -6.8305  -24.0069  -52.4349 N.am      18 UNK        -0.5000 
    100 CA        -6.8104  -22.5442  -52.4861 C.3       18 UNK         0.1400 
    101 CB        -8.0658  -22.0506  -53.2264 C.3       18 UNK        -0.1800 
    102 C         -5.5095  -22.0212  -53.1300 C.2       18 UNK         0.5000 
    103 O         -5.5013  -21.6449  -54.3046 O.2       18 UNK        -0.5000 
    104 N         -4.4246  -22.0400  -52.3456 N.am      19 UNK        -0.5000 
    105 CA        -3.0892  -21.5606  -52.7016 C.3       19 UNK         0.1400 
    106 CB        -2.1679  -21.7223  -51.4877 C.3       19 UNK        -0.1800 
    107 C         -3.1053  -20.0904  -53.1478 C.2       19 UNK         0.5000 
    108 O         -3.7272  -19.2668  -52.4745 O.2       19 UNK        -0.5000 
    109 N         -2.4551  -19.8022  -54.2844 N.am      20 UNK        -0.5000 
    110 CA        -2.3895  -18.4903  -54.9462 C.3       20 UNK         0.1400 
    111 CB        -1.5282  -17.5159  -54.1146 C.3       20 UNK        -0.1800 
    112 C         -3.7772  -17.9054  -55.3063 C.2       20 UNK         0.5000 
    113 O         -3.9276  -16.6866  -55.3895 O.2       20 UNK        -0.5000 
    114 N         -4.7712  -18.7920  -55.4757 N.am      21 UNK        -0.5000 
    115 CA        -6.2075  -18.5628  -55.6775 C.3       21 UNK         0.1400 
    116 CB        -6.4803  -17.6743  -56.9070 C.3       21 UNK        -0.1800 
    117 C         -6.9599  -18.0510  -54.4303 C.2       21 UNK         0.5000 
    118 O         -8.1738  -18.2457  -54.3523 O.2       21 UNK        -0.5000 
    119 N         -6.2573  -17.4242  -53.4798 N.am      22 UNK        -0.5000 
    120 CA        -6.8029  -16.9472  -52.2020 C.3       22 UNK         0.1400 
    121 C         -6.9881  -18.0562  -51.1287 C.2       22 UNK         0.5000 
    122 N         -6.2228  -19.1392  -51.1521 N.am      22 UNK        -0.7600 
    123 O         -7.8502  -17.9335  -50.2630 O.2       22 UNK        -0.5000 
    124 C124       -6.0231  -15.7252  -51.6462 C.3       23 UNK        -0.0398 
    125 S125       -4.1989  -15.8706  -51.6583 S.3       23 UNK        -0.2404 
    126 C126       -3.8837  -16.7149  -50.0799 C.3       23 UNK        -0.0205 
    127 H127        2.4634  -13.6953  -51.8507 H         1 UNK         0.0600 
    128 H128        2.3412  -15.4500  -51.6964 H         1 UNK         0.0600 
    129 H129        3.9239  -14.6882  -51.8945 H         1 UNK         0.0600 
    130 H130        2.1635  -12.6773  -49.8955 H         1 UNK         0.3000 
    131 H131        2.3158  -14.0780  -47.3793 H         1 UNK         0.0600 
    132 H132        1.6861  -11.1291  -47.8508 H         1 UNK         0.0800 
    133 H133        1.3238  -12.0527  -46.4207 H         1 UNK         0.0800 
    134 H134        0.0839  -14.2835  -46.5449 H         1 UNK         0.0800 
    135 H135       -1.5828  -13.8138  -46.7124 H         1 UNK         0.0800 
    136 H136       -2.9979  -14.6978  -48.5070 H         1 UNK         0.1150 
    137 H137       -1.6345  -18.1951  -50.5718 H         1 UNK         0.1150 
    138 H138        1.0872  -15.9414  -48.1401 H         1 UNK         0.1150 
    139 H139        0.7716  -18.6178  -50.7179 H         1 UNK         0.0800 
    140 H140        1.8941  -17.5154  -49.9687 H         1 UNK         0.0800 
    141 H141       -0.2698  -20.5892  -49.6632 H         1 UNK         0.0800 
    142 H142       -0.9846  -19.8509  -48.2484 H         1 UNK         0.0800 
    143 H143        1.0042  -22.1821  -48.1404 H         1 UNK         0.0600 
    144 H144       -0.0020  -20.5900  -46.0460 H         1 UNK         0.3000 
    145 H145        0.0707  -23.0499  -43.4284 H         1 UNK         0.0600 
    146 H146        1.4136  -21.2062  -42.4364 H         1 UNK         0.0600 
    147 H147        2.3503  -22.0971  -43.6260 H         1 UNK         0.0600 
    148 H148        1.6938  -20.5202  -44.0359 H         1 UNK         0.0600 
    149 H149       -0.7640  -20.2990  -43.5623 H         1 UNK         0.3000 
    150 H150       -4.2289  -20.9506  -44.1087 H         1 UNK         0.0600 
    151 H151       -3.8440  -21.3375  -41.6657 H         1 UNK         0.0600 
    152 H152       -4.3898  -19.6971  -41.9786 H         1 UNK         0.0600 
    153 H153       -2.6903  -20.0084  -41.6278 H         1 UNK         0.0600 
    154 H154       -2.7106  -18.5633  -43.6191 H         1 UNK         0.3000 
    155 H155       -2.0441  -17.7705  -47.0301 H         1 UNK         0.0600 
    156 H156       -3.3024  -15.7195  -46.2399 H         1 UNK         0.0600 
    157 H157       -4.3851  -17.0460  -46.6356 H         1 UNK         0.0600 
    158 H158       -4.0252  -16.6691  -44.9534 H         1 UNK         0.0600 
    159 H159       -1.4771  -16.2576  -44.7622 H         1 UNK         0.3000 
    160 H160        1.2627  -17.8649  -43.3444 H         1 UNK         0.0600 
    161 H161        1.6608  -15.6946  -45.4700 H         1 UNK         0.0600 
    162 H162        2.5272  -17.2187  -45.3781 H         1 UNK         0.0600 
    163 H163        2.7476  -16.0134  -44.1184 H         1 UNK         0.0600 
    164 H164        0.5299  -15.1182  -43.2915 H         1 UNK         0.3000 
    165 H165       -2.4112  -15.2737  -41.4389 H         1 UNK         0.0600 
    166 H166       -1.2877  -14.2319  -39.4826 H         1 UNK         0.0600 
    167 H167       -0.9788  -15.9599  -39.5038 H         1 UNK         0.0600 
    168 H168        0.2770  -14.8422  -40.0234 H         1 UNK         0.0600 
    169 H169       -0.5352  -13.1595  -41.6324 H         1 UNK         0.3000 
    170 H170       -0.8885  -12.2112  -44.9728 H         1 UNK         0.0600 
    171 H171       -3.0430  -11.2979  -44.1009 H         1 UNK         0.0600 
    172 H172       -2.2567  -10.8522  -42.5909 H         1 UNK         0.0600 
    173 H173       -1.7848  -10.0730  -44.1022 H         1 UNK         0.0600 
    174 H174        0.2265  -10.8435  -42.7513 H         1 UNK         0.3000 
    175 H175        2.7086  -10.7553  -42.8377 H         1 UNK         0.0600 
    176 H176        1.4964  -11.5830  -40.7669 H         1 UNK         0.0600 
    177 H177        2.2999  -13.1416  -40.9173 H         1 UNK         0.0600 
    178 H178        3.2289  -11.6921  -40.5466 H         1 UNK         0.0600 
    179 H179        3.5672  -13.2895  -43.7437 H         1 UNK         0.3000 
    180 H180        7.0947  -12.7595  -43.2448 H         1 UNK         0.0600 
    181 H181        5.0642  -15.0714  -43.3168 H         1 UNK         0.0600 
    182 H182        6.0366  -14.6480  -41.9124 H         1 UNK         0.0600 
    183 H183        6.8178  -15.2137  -43.3769 H         1 UNK         0.0600 
    184 H184        5.1161  -12.5282  -45.2579 H         1 UNK         0.3000 
    185 H185        6.5715  -12.1215  -47.5090 H         1 UNK         0.0600 
    186 H186        8.3142  -13.7329  -48.2249 H         1 UNK         0.0600 
    187 H187        7.1326  -15.0387  -48.2441 H         1 UNK         0.0600 
    188 H188        6.9963  -13.6992  -49.3823 H         1 UNK         0.0600 
    189 H189        4.7888  -14.2763  -48.2159 H         1 UNK         0.3000 
    190 H190       -2.4279  -21.6706  -47.1318 H         1 UNK         0.3000 
    191 H191       -3.5724  -23.4063  -49.0359 H         1 UNK         0.0600 
    192 H192       -4.6054  -22.5549  -46.2809 H         1 UNK         0.0600 
    193 H193       -5.5782  -23.2984  -47.5481 H         1 UNK         0.0600 
    194 H194       -4.8754  -21.7087  -47.8041 H         1 UNK         0.0600 
    195 H195       -2.4490  -24.0851  -45.6871 H         1 UNK         0.3000 
    196 H196       -3.2587  -26.8078  -45.6069 H         1 UNK         0.0600 
    197 H197       -1.6627  -26.9383  -43.6801 H         1 UNK         0.0600 
    198 H198       -2.7054  -25.5291  -43.5709 H         1 UNK         0.0600 
    199 H199       -1.0313  -25.3480  -44.0923 H         1 UNK         0.0600 
    200 H200       -0.1772  -25.2906  -46.6629 H         1 UNK         0.3000 
    201 H201        1.2241  -27.7205  -47.1704 H         1 UNK         0.0600 
    202 H202        2.3828  -25.5652  -46.8482 H         1 UNK         0.0600 
    203 H203        1.6345  -24.9011  -48.2986 H         1 UNK         0.0600 
    204 H204        2.7898  -26.2230  -48.4257 H         1 UNK         0.0600 
    205 H205       -0.7207  -25.5898  -49.3152 H         1 UNK         0.3000 
    206 H206       -0.3078  -27.1616  -51.6930 H         1 UNK         0.0600 
    207 H207       -0.8964  -24.7475  -51.7470 H         1 UNK         0.0600 
    208 H208       -2.1012  -25.6896  -52.6133 H         1 UNK         0.0600 
    209 H209       -2.4577  -25.0919  -50.9977 H         1 UNK         0.0600 
    210 H210       -2.7105  -27.2110  -49.1149 H         1 UNK         0.3000 
    211 H211       -4.4708  -28.4013  -48.5700 H         1 UNK         0.0600 
    212 H212       -3.6151  -30.5506  -50.5811 H         1 UNK         0.0600 
    213 H213       -4.7579  -30.7419  -49.2602 H         1 UNK         0.0600 
    214 H214       -3.0620  -30.4486  -48.9096 H         1 UNK         0.0600 
    215 H215       -4.7043  -26.2938  -50.3398 H         1 UNK         0.3000 
    216 H216       -7.2097  -26.5930  -51.6578 H         1 UNK         0.0600 
    217 H217       -4.6864  -26.3781  -53.4234 H         1 UNK         0.0600 
    218 H218       -6.3401  -26.2198  -54.0045 H         1 UNK         0.0600 
    219 H219       -5.7775  -27.7591  -53.3926 H         1 UNK         0.0600 
    220 H220       -7.3993  -24.4638  -53.1328 H         1 UNK         0.3000 
    221 H221       -6.8571  -22.1577  -51.4657 H         1 UNK         0.0600 
    222 H222       -8.9749  -22.3662  -52.7144 H         1 UNK         0.0600 
    223 H223       -8.1087  -22.4261  -54.2495 H         1 UNK         0.0600 
    224 H224       -8.0837  -20.9608  -53.2747 H         1 UNK         0.0600 
    225 H225       -4.5253  -22.4527  -51.4266 H         1 UNK         0.3000 
    226 H226       -2.7172  -22.1864  -53.5150 H         1 UNK         0.0600 
    227 H227       -2.1552  -22.7520  -51.1383 H         1 UNK         0.0600 
    228 H228       -1.1422  -21.4495  -51.7379 H         1 UNK         0.0600 
    229 H229       -2.4888  -21.0942  -50.6552 H         1 UNK         0.0600 
    230 H230       -1.9884  -20.5535  -54.7735 H         1 UNK         0.3000 
    231 H231       -1.8790  -18.6511  -55.8966 H         1 UNK         0.0600 
    232 H232       -1.9938  -17.2790  -53.1580 H         1 UNK         0.0600 
    233 H233       -1.3729  -16.5753  -54.6439 H         1 UNK         0.0600 
    234 H234       -0.5441  -17.9368  -53.9094 H         1 UNK         0.0600 
    235 H235       -4.5381  -19.7655  -55.3239 H         1 UNK         0.3000 
    236 H236       -6.6239  -19.5481  -55.8929 H         1 UNK         0.0600 
    237 H237       -7.5465  -17.6478  -57.1349 H         1 UNK         0.0600 
    238 H238       -6.1605  -16.6445  -56.7474 H         1 UNK         0.0600 
    239 H239       -5.9686  -18.0543  -57.7912 H         1 UNK         0.0600 
    240 H240       -5.2615  -17.3015  -53.6078 H         1 UNK         0.3000 
    241 H241       -7.8129  -16.5848  -52.4049 H         1 UNK         0.0600 
    242 H242       -6.3473  -19.8339  -50.4359 H         1 UNK         0.3800 
    243 H243       -5.4193  -19.1868  -51.7763 H         1 UNK         0.3800 
    244 H244       -6.3660  -15.4586  -50.6449 H         1 UNK         0.0800 
    245 H245       -6.2627  -14.8585  -52.2635 H         1 UNK         0.0800 
    246 H246       -4.0525  -17.7849  -50.1993 H         1 UNK         0.0800 
    247 H247       -4.5943  -16.3747  -49.3254 H         1 UNK         0.0800 
@<TRIPOS>BOND
     1    1    2 1    
     2    1  127 1    
     3    1  128 1    
     4    1  129 1    
     5    2    3 2    
     6    2    4 am   BACKBONE|DICT|INTERRES
     7    4    5 1    
     8    4  130 1    
     9    5    6 1    
    10    5   65 1    
    11    5  131 1    
    12    6    7 1    
    13    6  132 1    
    14    6  133 1    
    15    7    8 1    
    16    8    9 1    
    17    8  134 1    
    18    8  135 1    
    19    9   10 ar   
    20    9   14 ar   
    21   10   11 ar   
    22   10  136 1    
    23   11   12 ar   
    24   11  126 1    
    25   12   13 ar   
    26   12  137 1    
    27   13   14 ar   
    28   13   15 1    
    29   14  138 1    
    30   15   16 1    
    31   15  139 1    
    32   15  140 1    
    33   16   17 1    
    34   17   18 1    
    35   17  141 1    
    36   17  142 1    
    37   18   19 1    
    38   18   67 1    
    39   18  143 1    
    40   19   20 am   BACKBONE|DICT|INTERRES
    41   19  144 1    
    42   20   21 2    
    43   20   22 1    
    44   22   23 1    
    45   22   24 1    
    46   22  145 1    
    47   23  146 1    
    48   23  147 1    
    49   23  148 1    
    50   24   25 am   BACKBONE|DICT|INTERRES
    51   24  149 1    
    52   25   26 2    
    53   25   27 1    
    54   27   28 1    
    55   27   29 1    
    56   27  150 1    
    57   28  151 1    
    58   28  152 1    
    59   28  153 1    
    60   29   30 am   BACKBONE|DICT|INTERRES
    61   29  154 1    
    62   30   31 2    
    63   30   32 1    
    64   32   33 1    
    65   32   34 1    
    66   32  155 1    
    67   33  156 1    
    68   33  157 1    
    69   33  158 1    
    70   34   35 am   BACKBONE|DICT|INTERRES
    71   34  159 1    
    72   35   36 2    
    73   35   37 1    
    74   37   38 1    
    75   37   39 1    
    76   37  160 1    
    77   38  161 1    
    78   38  162 1    
    79   38  163 1    
    80   39   40 am   BACKBONE|DICT|INTERRES
    81   39  164 1    
    82   40   41 2    
    83   40   42 1    
    84   42   43 1    
    85   42   44 1    
    86   42  165 1    
    87   43  166 1    
    88   43  167 1    
    89   43  168 1    
    90   44   45 am   BACKBONE|DICT|INTERRES
    91   44  169 1    
    92   45   46 2    
    93   45   47 1    
    94   47   48 1    
    95   47   49 1    
    96   47  170 1    
    97   48  171 1    
    98   48  172 1    
    99   48  173 1    
   100   49   50 am   BACKBONE|DICT|INTERRES
   101   49  174 1    
   102   50   51 2    
   103   50   52 1    
   104   52   53 1    
   105   52   54 1    
   106   52  175 1    
   107   53  176 1    
   108   53  177 1    
   109   53  178 1    
   110   54   55 am   BACKBONE|DICT|INTERRES
   111   54  179 1    
   112   55   56 2    
   113   55   57 1    
   114   57   58 1    
   115   57   59 1    
   116   57  180 1    
   117   58  181 1    
   118   58  182 1    
   119   58  183 1    
   120   59   60 am   BACKBONE|DICT|INTERRES
   121   59  184 1    
   122   60   61 2    
   123   60   62 1    
   124   62   63 1    
   125   62   64 1    
   126   62  185 1    
   127   63  186 1    
   128   63  187 1    
   129   63  188 1    
   130   64   65 am   BACKBONE|DICT|INTERRES
   131   64  189 1    
   132   65   66 2    
   133   67   68 2    
   134   67   69 am   BACKBONE|DICT|INTERRES
   135   69   70 1    
   136   69  190 1    
   137   70   71 1    
   138   70   72 1    
   139   70  191 1    
   140   71  192 1    
   141   71  193 1    
   142   71  194 1    
   143   72   73 2    
   144   72   74 am   BACKBONE|DICT|INTERRES
   145   74   75 1    
   146   74  195 1    
   147   75   76 1    
   148   75   77 1    
   149   75  196 1    
   150   76  197 1    
   151   76  198 1    
   152   76  199 1    
   153   77   78 2    
   154   77   79 am   BACKBONE|DICT|INTERRES
   155   79   80 1    
   156   79  200 1    
   157   80   81 1    
   158   80   82 1    
   159   80  201 1    
   160   81  202 1    
   161   81  203 1    
   162   81  204 1    
   163   82   83 2    
   164   82   84 am   BACKBONE|DICT|INTERRES
   165   84   85 1    
   166   84  205 1    
   167   85   86 1    
   168   85   87 1    
   169   85  206 1    
   170   86  207 1    
   171   86  208 1    
   172   86  209 1    
   173   87   88 2    
   174   87   89 am   BACKBONE|DICT|INTERRES
   175   89   90 1    
   176   89  210 1    
   177   90   91 1    
   178   90   92 1    
   179   90  211 1    
   180   91  212 1    
   181   91  213 1    
   182   91  214 1    
   183   92   93 2    
   184   92   94 am   BACKBONE|DICT|INTERRES
   185   94   95 1    
   186   94  215 1    
   187   95   96 1    
   188   95   97 1    
   189   95  216 1    
   190   96  217 1    
   191   96  218 1    
   192   96  219 1    
   193   97   98 2    
   194   97   99 am   BACKBONE|DICT|INTERRES
   195   99  100 1    
   196   99  220 1    
   197  100  101 1    
   198  100  102 1    
   199  100  221 1    
   200  101  222 1    
   201  101  223 1    
   202  101  224 1    
   203  102  103 2    
   204  102  104 am   BACKBONE|DICT|INTERRES
   205  104  105 1    
   206  104  225 1    
   207  105  106 1    
   208  105  107 1    
   209  105  226 1    
   210  106  227 1    
   211  106  228 1    
   212  106  229 1    
   213  107  108 2    
   214  107  109 am   BACKBONE|DICT|INTERRES
   215  109  110 1    
   216  109  230 1    
   217  110  111 1    
   218  110  112 1    
   219  110  231 1    
   220  111  232 1    
   221  111  233 1    
   222  111  234 1    
   223  112  113 2    
   224  112  114 am   BACKBONE|DICT|INTERRES
   225  114  115 1    
   226  114  235 1    
   227  115  116 1    
   228  115  117 1    
   229  115  236 1    
   230  116  237 1    
   231  116  238 1    
   232  116  239 1    
   233  117  118 2    
   234  117  119 am   BACKBONE|DICT|INTERRES
   235  119  120 1    
   236  119  240 1    
   237  120  121 1    
   238  120  124 1    
   239  120  241 1    
   240  121  122 am   BACKBONE|DICT|INTERRES
   241  121  123 2    
   242  122  242 1    
   243  122  243 1    
   244  124  125 1    
   245  124  244 1    
   246  124  245 1    
   247  125  126 1    
   248  126  246 1    
   249  126  247 1    
@<TRIPOS>SUBSTRUCTURE
     1 UNK         1 GROUP             0       ****    0 ROOT    
