@<TRIPOS>MOLECULE
3R540
247   249    1
SMALL
USER_CHARGES


@<TRIPOS>ATOM
      1 CA          1.1576   -9.5995  -52.2092 C.3       0 UNK        -0.1800 
      2 C           1.3209  -10.7836  -51.2668 C.2       0 UNK         0.5000 
      3 O           1.2318  -10.6060  -50.0532 O.2       0 UNK        -0.5000 
      4 N           1.5892  -11.9705  -51.8300 N.am      1 UNK        -0.5000 
      5 CA          1.7308  -13.3137  -51.2336 C.3       1 UNK         0.1400 
      6 C6          0.3818  -13.9972  -50.8765 C.3       23 UNK        -0.0398 
      7 S7         -0.5349  -13.2961  -49.4612 S.3       23 UNK        -0.2404 
      8 C8         -0.1431  -14.4749  -48.1349 C.3       23 UNK        -0.0205 
      9 C9         -0.8109  -15.8260  -48.3341 C.ar      23 UNK        -0.0193 
     10 C10        -2.1826  -15.9664  -48.1085 C.ar      23 UNK        -0.1150 
     11 C11        -2.7955  -17.2170  -48.2225 C.ar      23 UNK        -0.0193 
     12 C12        -2.0235  -18.3328  -48.5582 C.ar      23 UNK        -0.1150 
     13 C13        -0.6513  -18.2053  -48.7884 C.ar      23 UNK        -0.0193 
     14 C14        -0.0540  -16.9456  -48.6925 C.ar      23 UNK        -0.1150 
     15 C15         0.1882  -19.4306  -49.1149 C.3       23 UNK        -0.0205 
     16 S16         1.1803  -19.9406  -47.6774 S.3       23 UNK        -0.2404 
     17 C17         1.6141  -21.6539  -48.1143 C.3       23 UNK        -0.0398 
     18 CA          0.8052  -22.7396  -47.3620 C.3       11 UNK         0.1400 
     19 N           0.8571  -22.6248  -45.9020 N.am      11 UNK        -0.5000 
     20 C           0.5682  -23.6411  -45.0758 C.2       10 UNK         0.5000 
     21 O           0.2471  -24.7663  -45.4626 O.2       10 UNK        -0.5000 
     22 CA          0.6094  -23.3436  -43.5698 C.3       10 UNK         0.1400 
     23 CB          2.0566  -23.2430  -43.0639 C.3       10 UNK        -0.1800 
     24 N          -0.1225  -22.1235  -43.2352 N.am      10 UNK        -0.5000 
     25 C          -1.4600  -22.0277  -43.2482 C.2       9 UNK         0.5000 
     26 O          -2.2059  -22.9504  -43.5760 O.2       9 UNK        -0.5000 
     27 CA         -2.0746  -20.6731  -42.8462 C.3       9 UNK         0.1400 
     28 CB         -2.2909  -20.6091  -41.3272 C.3       9 UNK        -0.1800 
     29 N          -1.2774  -19.5215  -43.2636 N.am      9 UNK        -0.5000 
     30 C          -1.0031  -19.2132  -44.5385 C.2       8 UNK         0.5000 
     31 O          -1.3999  -19.8722  -45.4969 O.2       8 UNK        -0.5000 
     32 CA         -0.1098  -17.9842  -44.7788 C.3       8 UNK         0.1400 
     33 CB         -0.9719  -16.7140  -44.8249 C.3       8 UNK        -0.1800 
     34 N           0.9488  -17.7941  -43.7869 N.am      8 UNK        -0.5000 
     35 C           1.8109  -18.7011  -43.3078 C.2       7 UNK         0.5000 
     36 O           1.8493  -19.8781  -43.6682 O.2       7 UNK        -0.5000 
     37 CA          2.7641  -18.2170  -42.1956 C.3       7 UNK         0.1400 
     38 CB          4.1403  -17.8537  -42.7732 C.3       7 UNK        -0.1800 
     39 N           2.2550  -17.0805  -41.4177 N.am      7 UNK        -0.5000 
     40 C           1.1415  -17.0764  -40.6735 C.2       6 UNK         0.5000 
     41 O           0.3905  -18.0493  -40.5816 O.2       6 UNK        -0.5000 
     42 CA          0.7750  -15.7839  -39.9124 C.3       6 UNK         0.1400 
     43 CB          1.2164  -15.8759  -38.4393 C.3       6 UNK        -0.1800 
     44 N           1.2187  -14.5169  -40.5156 N.am      6 UNK        -0.5000 
     45 C           2.4563  -14.0269  -40.6714 C.2       5 UNK         0.5000 
     46 O           3.4797  -14.6602  -40.4080 O.2       5 UNK        -0.5000 
     47 CA          2.5520  -12.5940  -41.2459 C.3       5 UNK         0.1400 
     48 CB          3.9798  -12.0236  -41.1758 C.3       5 UNK        -0.1800 
     49 N           2.0994  -12.5416  -42.6349 N.am      5 UNK        -0.5000 
     50 C           0.8286  -12.6229  -43.0499 C.2       4 UNK         0.5000 
     51 O          -0.1360  -12.6043  -42.2833 O.2       4 UNK        -0.5000 
     52 CA          0.5902  -12.8066  -44.5646 C.3       4 UNK         0.1400 
     53 CB          0.2116  -11.4692  -45.2181 C.3       4 UNK        -0.1800 
     54 N           1.7091  -13.3945  -45.3131 N.am      4 UNK        -0.5000 
     55 C           2.3377  -14.5474  -45.0397 C.2       3 UNK         0.5000 
     56 O           2.0728  -15.2361  -44.0565 O.2       3 UNK        -0.5000 
     57 CA          3.4377  -15.0256  -46.0113 C.3       3 UNK         0.1400 
     58 CB          3.1529  -16.4585  -46.4900 C.3       3 UNK        -0.1800 
     59 N           3.6280  -14.1687  -47.1857 N.am      3 UNK        -0.5000 
     60 C           4.2326  -12.9763  -47.1992 C.2       2 UNK         0.5000 
     61 O           4.6457  -12.4208  -46.1812 O.2       2 UNK        -0.5000 
     62 CA          4.3936  -12.2688  -48.5605 C.3       2 UNK         0.1400 
     63 CB          5.7273  -12.6617  -49.2229 C.3       2 UNK        -0.1800 
     64 N           3.2753  -12.4191  -49.5045 N.am      2 UNK        -0.5000 
     65 C           2.8192  -13.5034  -50.1453 C.2       1 UNK         0.5000 
     66 O           3.2429  -14.6396  -49.9293 O.2       1 UNK        -0.5000 
     67 C          -0.6403  -22.8864  -47.8758 C.2       11 UNK         0.5000 
     68 O          -0.8562  -23.6649  -48.8028 O.2       11 UNK        -0.5000 
     69 N          -1.6104  -22.2094  -47.2386 N.am      12 UNK        -0.5000 
     70 CA         -3.0389  -22.3756  -47.5151 C.3       12 UNK         0.1400 
     71 CB         -3.8701  -21.3814  -46.6927 C.3       12 UNK        -0.1800 
     72 C          -3.5261  -23.8090  -47.2528 C.2       12 UNK         0.5000 
     73 O          -4.2208  -24.3655  -48.1009 O.2       12 UNK        -0.5000 
     74 N          -3.1287  -24.3933  -46.1127 N.am      13 UNK        -0.5000 
     75 CA         -3.4486  -25.7734  -45.7444 C.3       13 UNK         0.1400 
     76 CB         -3.0041  -26.0458  -44.2997 C.3       13 UNK        -0.1800 
     77 C          -2.8368  -26.8048  -46.7089 C.2       13 UNK         0.5000 
     78 O          -3.5274  -27.7438  -47.1057 O.2       13 UNK        -0.5000 
     79 N          -1.5703  -26.5939  -47.0946 N.am      14 UNK        -0.5000 
     80 CA         -0.8449  -27.4350  -48.0492 C.3       14 UNK         0.1400 
     81 CB          0.6364  -27.0282  -48.0593 C.3       14 UNK        -0.1800 
     82 C          -1.4330  -27.3788  -49.4728 C.2       14 UNK         0.5000 
     83 O          -1.5282  -28.4120  -50.1359 O.2       14 UNK        -0.5000 
     84 N          -1.8240  -26.1756  -49.9090 N.am      15 UNK        -0.5000 
     85 CA         -2.3867  -25.9005  -51.2313 C.3       15 UNK         0.1400 
     86 CB         -2.1289  -24.4228  -51.5486 C.3       15 UNK        -0.1800 
     87 C          -3.8953  -26.1932  -51.3455 C.2       15 UNK         0.5000 
     88 O          -4.4344  -26.1125  -52.4508 O.2       15 UNK        -0.5000 
     89 N          -4.5574  -26.4593  -50.2089 N.am      16 UNK        -0.5000 
     90 CA         -6.0115  -26.5713  -50.0348 C.3       16 UNK         0.1400 
     91 CB         -6.5532  -27.8328  -50.7379 C.3       16 UNK        -0.1800 
     92 C          -6.7493  -25.2787  -50.4528 C.2       16 UNK         0.5000 
     93 O          -7.8205  -25.3388  -51.0598 O.2       16 UNK        -0.5000 
     94 N          -6.1236  -24.1321  -50.1470 N.am      17 UNK        -0.5000 
     95 CA         -6.4657  -22.7416  -50.4689 C.3       17 UNK         0.1400 
     96 CB         -7.7850  -22.3247  -49.7959 C.3       17 UNK        -0.1800 
     97 C          -6.4807  -22.4020  -51.9735 C.2       17 UNK         0.5000 
     98 O          -5.9262  -21.3744  -52.3645 O.2       17 UNK        -0.5000 
     99 N          -7.1022  -23.2596  -52.7903 N.am      18 UNK        -0.5000 
    100 CA        -7.3617  -23.0689  -54.2174 C.3       18 UNK         0.1400 
    101 CB        -8.1581  -24.2711  -54.7467 C.3       18 UNK        -0.1800 
    102 C         -6.1011  -22.8378  -55.0683 C.2       18 UNK         0.5000 
    103 O         -6.1163  -21.9694  -55.9414 O.2       18 UNK        -0.5000 
    104 N         -5.0321  -23.5978  -54.7922 N.am      19 UNK        -0.5000 
    105 CA        -3.7548  -23.4745  -55.4993 C.3       19 UNK         0.1400 
    106 CB        -3.0264  -24.8283  -55.4862 C.3       19 UNK        -0.1800 
    107 C         -2.8642  -22.3399  -54.9523 C.2       19 UNK         0.5000 
    108 O         -1.9362  -21.9254  -55.6480 O.2       19 UNK        -0.5000 
    109 N         -3.1516  -21.8501  -53.7366 N.am      20 UNK        -0.5000 
    110 CA        -2.4656  -20.7061  -53.1326 C.3       20 UNK         0.1400 
    111 CB        -2.5223  -20.7935  -51.5978 C.3       20 UNK        -0.1800 
    112 C         -3.0628  -19.3757  -53.6139 C.2       20 UNK         0.5000 
    113 O         -2.3147  -18.4243  -53.8373 O.2       20 UNK        -0.5000 
    114 N         -4.3979  -19.3288  -53.7359 N.am      21 UNK        -0.5000 
    115 CA        -5.2545  -18.2110  -54.1594 C.3       21 UNK         0.1400 
    116 CB        -4.9025  -17.7451  -55.5850 C.3       21 UNK        -0.1800 
    117 C         -5.3143  -17.0199  -53.1775 C.2       21 UNK         0.5000 
    118 O         -6.3455  -16.3475  -53.1239 O.2       21 UNK        -0.5000 
    119 N         -4.2429  -16.8048  -52.4050 N.am      22 UNK        -0.5000 
    120 CA        -4.0723  -15.7752  -51.3674 C.3       22 UNK         0.1400 
    121 C         -3.9529  -14.3278  -51.9377 C.2       22 UNK         0.5000 
    122 N         -3.8239  -13.3186  -51.0864 N.am      22 UNK        -0.7600 
    123 O         -3.9389  -14.0976  -53.1455 O.2       22 UNK        -0.5000 
    124 C124       -5.1198  -15.8871  -50.2185 C.3       23 UNK        -0.0398 
    125 S125       -5.2347  -17.5627  -49.4930 S.3       23 UNK        -0.2404 
    126 C126       -4.2844  -17.3692  -47.9541 C.3       23 UNK        -0.0205 
    127 H127        0.1680   -9.1590  -52.0877 H         1 UNK         0.0600 
    128 H128        1.9017   -8.8355  -51.9842 H         1 UNK         0.0600 
    129 H129        1.2737   -9.8907  -53.2534 H         1 UNK         0.0600 
    130 H130        1.6867  -11.9761  -52.8359 H         1 UNK         0.3000 
    131 H131        2.1235  -13.8947  -52.0698 H         1 UNK         0.0600 
    132 H132        0.5406  -15.0634  -50.7136 H         1 UNK         0.0800 
    133 H133       -0.2815  -13.9445  -51.7408 H         1 UNK         0.0800 
    134 H134        0.9373  -14.5854  -48.0523 H         1 UNK         0.0800 
    135 H135       -0.4790  -14.0533  -47.1873 H         1 UNK         0.0800 
    136 H136       -2.7672  -15.1021  -47.8270 H         1 UNK         0.1150 
    137 H137       -2.4912  -19.3034  -48.6332 H         1 UNK         0.1150 
    138 H138        1.0069  -16.8473  -48.8721 H         1 UNK         0.1150 
    139 H139       -0.4558  -20.2554  -49.4212 H         1 UNK         0.0800 
    140 H140        0.8470  -19.2176  -49.9578 H         1 UNK         0.0800 
    141 H141        1.5360  -21.7932  -49.1942 H         1 UNK         0.0800 
    142 H142        2.6726  -21.7821  -47.8846 H         1 UNK         0.0800 
    143 H143        1.2955  -23.6837  -47.6101 H         1 UNK         0.0600 
    144 H144        1.0776  -21.7146  -45.5199 H         1 UNK         0.3000 
    145 H145        0.1333  -24.1794  -43.0522 H         1 UNK         0.0600 
    146 H146        2.0871  -23.0632  -41.9892 H         1 UNK         0.0600 
    147 H147        2.5990  -24.1699  -43.2543 H         1 UNK         0.0600 
    148 H148        2.6050  -22.4381  -43.5538 H         1 UNK         0.0600 
    149 H149        0.4313  -21.2942  -43.0525 H         1 UNK         0.3000 
    150 H150       -3.0487  -20.5966  -43.3335 H         1 UNK         0.0600 
    151 H151       -2.8965  -21.4482  -40.9822 H         1 UNK         0.0600 
    152 H152       -2.8101  -19.6943  -41.0409 H         1 UNK         0.0600 
    153 H153       -1.3446  -20.6402  -40.7853 H         1 UNK         0.0600 
    154 H154       -0.8789  -18.9489  -42.5312 H         1 UNK         0.3000 
    155 H155        0.3683  -18.1001  -45.7494 H         1 UNK         0.0600 
    156 H156       -0.4112  -15.8754  -45.2345 H         1 UNK         0.0600 
    157 H157       -1.3284  -16.4315  -43.8338 H         1 UNK         0.0600 
    158 H158       -1.8480  -16.8559  -45.4576 H         1 UNK         0.0600 
    159 H159        1.1056  -16.8343  -43.4955 H         1 UNK         0.3000 
    160 H160        2.8963  -19.0526  -41.5057 H         1 UNK         0.0600 
    161 H161        4.0905  -16.9675  -43.4056 H         1 UNK         0.0600 
    162 H162        4.5413  -18.6688  -43.3771 H         1 UNK         0.0600 
    163 H163        4.8588  -17.6542  -41.9780 H         1 UNK         0.0600 
    164 H164        2.8202  -16.2381  -41.4109 H         1 UNK         0.3000 
    165 H165       -0.3150  -15.7342  -39.9195 H         1 UNK         0.0600 
    166 H166        2.3002  -15.9455  -38.3427 H         1 UNK         0.0600 
    167 H167        0.8831  -15.0069  -37.8721 H         1 UNK         0.0600 
    168 H168        0.7911  -16.7586  -37.9599 H         1 UNK         0.0600 
    169 H169        0.4682  -13.9291  -40.8651 H         1 UNK         0.3000 
    170 H170        1.9076  -11.9533  -40.6402 H         1 UNK         0.0600 
    171 H171        4.3534  -12.0298  -40.1511 H         1 UNK         0.0600 
    172 H172        4.6763  -12.6020  -41.7842 H         1 UNK         0.0600 
    173 H173        4.0088  -10.9910  -41.5244 H         1 UNK         0.0600 
    174 H174        2.8203  -12.6003  -43.3391 H         1 UNK         0.3000 
    175 H175       -0.2573  -13.4862  -44.6679 H         1 UNK         0.0600 
    176 H176        1.0371  -10.7573  -45.1805 H         1 UNK         0.0600 
    177 H177       -0.0684  -11.6040  -46.2633 H         1 UNK         0.0600 
    178 H178       -0.6400  -11.0125  -44.7120 H         1 UNK         0.0600 
    179 H179        2.0194  -12.8819  -46.1247 H         1 UNK         0.3000 
    180 H180        4.3737  -15.0391  -45.4494 H         1 UNK         0.0600 
    181 H181        2.1697  -16.5372  -46.9496 H         1 UNK         0.0600 
    182 H182        3.1751  -17.1644  -45.6602 H         1 UNK         0.0600 
    183 H183        3.8938  -16.7937  -47.2160 H         1 UNK         0.0600 
    184 H184        3.3601  -14.5543  -48.0879 H         1 UNK         0.3000 
    185 H185        4.4423  -11.2006  -48.3434 H         1 UNK         0.0600 
    186 H186        6.5679  -12.4530  -48.5599 H         1 UNK         0.0600 
    187 H187        5.7630  -13.7235  -49.4683 H         1 UNK         0.0600 
    188 H188        5.8917  -12.0990  -50.1419 H         1 UNK         0.0600 
    189 H189        2.7513  -11.5655  -49.6851 H         1 UNK         0.3000 
    190 H190       -1.3636  -21.5364  -46.5174 H         1 UNK         0.3000 
    191 H191       -3.1973  -22.1563  -48.5732 H         1 UNK         0.0600 
    192 H192       -4.9329  -21.4791  -46.9178 H         1 UNK         0.0600 
    193 H193       -3.5871  -20.3545  -46.9109 H         1 UNK         0.0600 
    194 H194       -3.7434  -21.5395  -45.6214 H         1 UNK         0.0600 
    195 H195       -2.5822  -23.8607  -45.4449 H         1 UNK         0.3000 
    196 H196       -4.5340  -25.8850  -45.7890 H         1 UNK         0.0600 
    197 H197       -3.2236  -27.0739  -44.0092 H         1 UNK         0.0600 
    198 H198       -3.5250  -25.3931  -43.5991 H         1 UNK         0.0600 
    199 H199       -1.9329  -25.8880  -44.1699 H         1 UNK         0.0600 
    200 H200       -1.0599  -25.8159  -46.6896 H         1 UNK         0.3000 
    201 H201       -0.9110  -28.4684  -47.7026 H         1 UNK         0.0600 
    202 H202        1.0783  -27.1227  -47.0672 H         1 UNK         0.0600 
    203 H203        0.7675  -25.9965  -48.3866 H         1 UNK         0.0600 
    204 H204        1.2114  -27.6631  -48.7344 H         1 UNK         0.0600 
    205 H205       -1.6558  -25.3639  -49.3206 H         1 UNK         0.3000 
    206 H206       -1.8714  -26.5105  -51.9759 H         1 UNK         0.0600 
    207 H207       -1.0658  -24.1850  -51.5103 H         1 UNK         0.0600 
    208 H208       -2.4799  -24.1651  -52.5433 H         1 UNK         0.0600 
    209 H209       -2.6488  -23.7746  -50.8423 H         1 UNK         0.0600 
    210 H210       -4.0198  -26.4519  -49.3521 H         1 UNK         0.3000 
    211 H211       -6.1823  -26.6878  -48.9637 H         1 UNK         0.0600 
    212 H212       -6.4705  -27.7609  -51.8227 H         1 UNK         0.0600 
    213 H213       -7.6060  -27.9899  -50.5007 H         1 UNK         0.0600 
    214 H214       -6.0127  -28.7237  -50.4183 H         1 UNK         0.0600 
    215 H215       -5.2799  -24.2340  -49.5857 H         1 UNK         0.3000 
    216 H216       -5.6713  -22.1387  -50.0256 H         1 UNK         0.0600 
    217 H217       -8.6355  -22.8876  -50.1814 H         1 UNK         0.0600 
    218 H218       -7.9901  -21.2667  -49.9649 H         1 UNK         0.0600 
    219 H219       -7.7414  -22.4789  -48.7177 H         1 UNK         0.0600 
    220 H220       -7.5044  -24.0889  -52.3587 H         1 UNK         0.3000 
    221 H221       -7.9866  -22.1788  -54.3143 H         1 UNK         0.0600 
    222 H222       -7.6048  -25.2035  -54.6261 H         1 UNK         0.0600 
    223 H223       -9.1079  -24.3761  -54.2219 H         1 UNK         0.0600 
    224 H224       -8.3841  -24.1560  -55.8076 H         1 UNK         0.0600 
    225 H225       -5.0938  -24.2975  -54.0634 H         1 UNK         0.3000 
    226 H226       -3.9546  -23.2334  -56.5457 H         1 UNK         0.0600 
    227 H227       -3.6085  -25.5876  -56.0085 H         1 UNK         0.0600 
    228 H228       -2.0611  -24.7597  -55.9894 H         1 UNK         0.0600 
    229 H229       -2.8444  -25.1924  -54.4774 H         1 UNK         0.0600 
    230 H230       -3.9682  -22.1994  -53.2556 H         1 UNK         0.3000 
    231 H231       -1.4130  -20.7184  -53.4241 H         1 UNK         0.0600 
    232 H232       -3.5362  -20.9483  -51.2296 H         1 UNK         0.0600 
    233 H233       -1.8968  -21.6032  -51.2255 H         1 UNK         0.0600 
    234 H234       -2.1519  -19.8734  -51.1449 H         1 UNK         0.0600 
    235 H235       -4.9149  -20.1459  -53.4210 H         1 UNK         0.3000 
    236 H236       -6.2630  -18.6262  -54.1939 H         1 UNK         0.0600 
    237 H237       -4.9169  -18.5793  -56.2866 H         1 UNK         0.0600 
    238 H238       -5.6235  -17.0080  -55.9403 H         1 UNK         0.0600 
    239 H239       -3.9169  -17.2815  -55.6314 H         1 UNK         0.0600 
    240 H240       -3.4233  -17.3659  -52.6044 H         1 UNK         0.3000 
    241 H241       -3.0917  -15.9837  -50.9385 H         1 UNK         0.0600 
    242 H242       -3.7701  -13.4597  -50.0909 H         1 UNK         0.3800 
    243 H243       -3.7309  -12.3854  -51.4553 H         1 UNK         0.3800 
    244 H244       -4.8949  -15.1803  -49.4197 H         1 UNK         0.0800 
    245 H245       -6.1104  -15.6112  -50.5817 H         1 UNK         0.0800 
    246 H246       -4.4509  -18.2435  -47.3252 H         1 UNK         0.0800 
    247 H247       -4.6683  -16.5182  -47.3895 H         1 UNK         0.0800 
@<TRIPOS>BOND
     1    1    2 1    
     2    1  127 1    
     3    1  128 1    
     4    1  129 1    
     5    2    3 2    
     6    2    4 am   BACKBONE|DICT|INTERRES
     7    4    5 1    
     8    4  130 1    
     9    5    6 1    
    10    5   65 1    
    11    5  131 1    
    12    6    7 1    
    13    6  132 1    
    14    6  133 1    
    15    7    8 1    
    16    8    9 1    
    17    8  134 1    
    18    8  135 1    
    19    9   10 ar   
    20    9   14 ar   
    21   10   11 ar   
    22   10  136 1    
    23   11   12 ar   
    24   11  126 1    
    25   12   13 ar   
    26   12  137 1    
    27   13   14 ar   
    28   13   15 1    
    29   14  138 1    
    30   15   16 1    
    31   15  139 1    
    32   15  140 1    
    33   16   17 1    
    34   17   18 1    
    35   17  141 1    
    36   17  142 1    
    37   18   19 1    
    38   18   67 1    
    39   18  143 1    
    40   19   20 am   BACKBONE|DICT|INTERRES
    41   19  144 1    
    42   20   21 2    
    43   20   22 1    
    44   22   23 1    
    45   22   24 1    
    46   22  145 1    
    47   23  146 1    
    48   23  147 1    
    49   23  148 1    
    50   24   25 am   BACKBONE|DICT|INTERRES
    51   24  149 1    
    52   25   26 2    
    53   25   27 1    
    54   27   28 1    
    55   27   29 1    
    56   27  150 1    
    57   28  151 1    
    58   28  152 1    
    59   28  153 1    
    60   29   30 am   BACKBONE|DICT|INTERRES
    61   29  154 1    
    62   30   31 2    
    63   30   32 1    
    64   32   33 1    
    65   32   34 1    
    66   32  155 1    
    67   33  156 1    
    68   33  157 1    
    69   33  158 1    
    70   34   35 am   BACKBONE|DICT|INTERRES
    71   34  159 1    
    72   35   36 2    
    73   35   37 1    
    74   37   38 1    
    75   37   39 1    
    76   37  160 1    
    77   38  161 1    
    78   38  162 1    
    79   38  163 1    
    80   39   40 am   BACKBONE|DICT|INTERRES
    81   39  164 1    
    82   40   41 2    
    83   40   42 1    
    84   42   43 1    
    85   42   44 1    
    86   42  165 1    
    87   43  166 1    
    88   43  167 1    
    89   43  168 1    
    90   44   45 am   BACKBONE|DICT|INTERRES
    91   44  169 1    
    92   45   46 2    
    93   45   47 1    
    94   47   48 1    
    95   47   49 1    
    96   47  170 1    
    97   48  171 1    
    98   48  172 1    
    99   48  173 1    
   100   49   50 am   BACKBONE|DICT|INTERRES
   101   49  174 1    
   102   50   51 2    
   103   50   52 1    
   104   52   53 1    
   105   52   54 1    
   106   52  175 1    
   107   53  176 1    
   108   53  177 1    
   109   53  178 1    
   110   54   55 am   BACKBONE|DICT|INTERRES
   111   54  179 1    
   112   55   56 2    
   113   55   57 1    
   114   57   58 1    
   115   57   59 1    
   116   57  180 1    
   117   58  181 1    
   118   58  182 1    
   119   58  183 1    
   120   59   60 am   BACKBONE|DICT|INTERRES
   121   59  184 1    
   122   60   61 2    
   123   60   62 1    
   124   62   63 1    
   125   62   64 1    
   126   62  185 1    
   127   63  186 1    
   128   63  187 1    
   129   63  188 1    
   130   64   65 am   BACKBONE|DICT|INTERRES
   131   64  189 1    
   132   65   66 2    
   133   67   68 2    
   134   67   69 am   BACKBONE|DICT|INTERRES
   135   69   70 1    
   136   69  190 1    
   137   70   71 1    
   138   70   72 1    
   139   70  191 1    
   140   71  192 1    
   141   71  193 1    
   142   71  194 1    
   143   72   73 2    
   144   72   74 am   BACKBONE|DICT|INTERRES
   145   74   75 1    
   146   74  195 1    
   147   75   76 1    
   148   75   77 1    
   149   75  196 1    
   150   76  197 1    
   151   76  198 1    
   152   76  199 1    
   153   77   78 2    
   154   77   79 am   BACKBONE|DICT|INTERRES
   155   79   80 1    
   156   79  200 1    
   157   80   81 1    
   158   80   82 1    
   159   80  201 1    
   160   81  202 1    
   161   81  203 1    
   162   81  204 1    
   163   82   83 2    
   164   82   84 am   BACKBONE|DICT|INTERRES
   165   84   85 1    
   166   84  205 1    
   167   85   86 1    
   168   85   87 1    
   169   85  206 1    
   170   86  207 1    
   171   86  208 1    
   172   86  209 1    
   173   87   88 2    
   174   87   89 am   BACKBONE|DICT|INTERRES
   175   89   90 1    
   176   89  210 1    
   177   90   91 1    
   178   90   92 1    
   179   90  211 1    
   180   91  212 1    
   181   91  213 1    
   182   91  214 1    
   183   92   93 2    
   184   92   94 am   BACKBONE|DICT|INTERRES
   185   94   95 1    
   186   94  215 1    
   187   95   96 1    
   188   95   97 1    
   189   95  216 1    
   190   96  217 1    
   191   96  218 1    
   192   96  219 1    
   193   97   98 2    
   194   97   99 am   BACKBONE|DICT|INTERRES
   195   99  100 1    
   196   99  220 1    
   197  100  101 1    
   198  100  102 1    
   199  100  221 1    
   200  101  222 1    
   201  101  223 1    
   202  101  224 1    
   203  102  103 2    
   204  102  104 am   BACKBONE|DICT|INTERRES
   205  104  105 1    
   206  104  225 1    
   207  105  106 1    
   208  105  107 1    
   209  105  226 1    
   210  106  227 1    
   211  106  228 1    
   212  106  229 1    
   213  107  108 2    
   214  107  109 am   BACKBONE|DICT|INTERRES
   215  109  110 1    
   216  109  230 1    
   217  110  111 1    
   218  110  112 1    
   219  110  231 1    
   220  111  232 1    
   221  111  233 1    
   222  111  234 1    
   223  112  113 2    
   224  112  114 am   BACKBONE|DICT|INTERRES
   225  114  115 1    
   226  114  235 1    
   227  115  116 1    
   228  115  117 1    
   229  115  236 1    
   230  116  237 1    
   231  116  238 1    
   232  116  239 1    
   233  117  118 2    
   234  117  119 am   BACKBONE|DICT|INTERRES
   235  119  120 1    
   236  119  240 1    
   237  120  121 1    
   238  120  124 1    
   239  120  241 1    
   240  121  122 am   BACKBONE|DICT|INTERRES
   241  121  123 2    
   242  122  242 1    
   243  122  243 1    
   244  124  125 1    
   245  124  244 1    
   246  124  245 1    
   247  125  126 1    
   248  126  246 1    
   249  126  247 1    
@<TRIPOS>SUBSTRUCTURE
     1 UNK         1 GROUP             0       ****    0 ROOT    
