@<TRIPOS>MOLECULE
3R540
247   249    1
SMALL
USER_CHARGES


@<TRIPOS>ATOM
      1 CA         -0.2435  -12.3743  -49.3753 C.3       0 UNK        -0.1800 
      2 C           1.0131  -12.8244  -48.6435 C.2       0 UNK         0.5000 
      3 O           0.9095  -13.4571  -47.5944 O.2       0 UNK        -0.5000 
      4 N           2.1902  -12.5021  -49.1982 N.am      1 UNK        -0.5000 
      5 CA          3.5240  -12.8318  -48.6716 C.3       1 UNK         0.1400 
      6 C6          3.8081  -14.3611  -48.6126 C.3       23 UNK        -0.0398 
      7 S7          3.3922  -15.2668  -50.1472 S.3       23 UNK        -0.2404 
      8 C8          4.6798  -16.5571  -50.1874 C.3       23 UNK        -0.0205 
      9 C9          4.1261  -17.9271  -50.5622 C.ar      23 UNK        -0.0193 
     10 C10         3.5215  -18.1367  -51.8063 C.ar      23 UNK        -0.1150 
     11 C11         3.0611  -19.4066  -52.1687 C.ar      23 UNK        -0.0193 
     12 C12         3.2215  -20.4748  -51.2814 C.ar      23 UNK        -0.1150 
     13 C13         3.8139  -20.2794  -50.0319 C.ar      23 UNK        -0.0193 
     14 C14         4.2625  -19.0035  -49.6790 C.ar      23 UNK        -0.1150 
     15 C15         4.0159  -21.4554  -49.0858 C.3       23 UNK        -0.0205 
     16 S16         2.9841  -21.3465  -47.5901 S.3       23 UNK        -0.2404 
     17 C17         1.3210  -21.7257  -48.2383 C.3       23 UNK        -0.0398 
     18 CA          0.2099  -21.0420  -47.3968 C.3       11 UNK         0.1400 
     19 N           0.2859  -19.5783  -47.3969 N.am      11 UNK        -0.5000 
     20 C           0.1184  -18.7641  -48.4493 C.2       10 UNK         0.5000 
     21 O          -0.1130  -19.1588  -49.5913 O.2       10 UNK        -0.5000 
     22 CA          0.1824  -17.2478  -48.1855 C.3       10 UNK         0.1400 
     23 CB         -1.2001  -16.6083  -48.3907 C.3       10 UNK        -0.1800 
     24 N           0.6572  -16.9069  -46.8446 N.am      10 UNK        -0.5000 
     25 C           1.9405  -16.9456  -46.4652 C.2       9 UNK         0.5000 
     26 O           2.8638  -17.3261  -47.1819 O.2       9 UNK        -0.5000 
     27 CA          2.2398  -16.4905  -45.0302 C.3       9 UNK         0.1400 
     28 CB          1.9660  -14.9864  -44.8713 C.3       9 UNK        -0.1800 
     29 N           1.4684  -17.2309  -44.0360 N.am      9 UNK        -0.5000 
     30 C           1.5392  -18.5508  -43.8144 C.2       8 UNK         0.5000 
     31 O           2.2857  -19.3165  -44.4218 O.2       8 UNK        -0.5000 
     32 CA          0.5906  -19.1132  -42.7429 C.3       8 UNK         0.1400 
     33 CB          1.1831  -18.9309  -41.3361 C.3       8 UNK        -0.1800 
     34 N          -0.7261  -18.4817  -42.8043 N.am      8 UNK        -0.5000 
     35 C          -1.6306  -18.7080  -43.7671 C.2       7 UNK         0.5000 
     36 O          -1.4793  -19.5240  -44.6779 O.2       7 UNK        -0.5000 
     37 CA         -2.9076  -17.8504  -43.7168 C.3       7 UNK         0.1400 
     38 CB         -3.9435  -18.4741  -42.7699 C.3       7 UNK        -0.1800 
     39 N          -2.6428  -16.4706  -43.3059 N.am      7 UNK        -0.5000 
     40 C          -1.9520  -15.5865  -44.0393 C.2       6 UNK         0.5000 
     41 O          -1.4849  -15.8380  -45.1497 O.2       6 UNK        -0.5000 
     42 CA         -1.7103  -14.2033  -43.4064 C.3       6 UNK         0.1400 
     43 CB         -2.8907  -13.2650  -43.6980 C.3       6 UNK        -0.1800 
     44 N          -1.4705  -14.2499  -41.9597 N.am      6 UNK        -0.5000 
     45 C          -0.4352  -14.8708  -41.3801 C.2       5 UNK         0.5000 
     46 O           0.3984  -15.5374  -41.9973 O.2       5 UNK        -0.5000 
     47 CA         -0.3253  -14.7620  -39.8560 C.3       5 UNK         0.1400 
     48 CB         -1.0777  -15.9151  -39.1712 C.3       5 UNK        -0.1800 
     49 N           1.0876  -14.8134  -39.4975 N.am      5 UNK        -0.5000 
     50 C           1.6499  -14.1968  -38.4520 C.2       4 UNK         0.5000 
     51 O           1.0113  -13.5518  -37.6190 O.2       4 UNK        -0.5000 
     52 CA          3.1821  -14.3125  -38.3001 C.3       4 UNK         0.1400 
     53 CB          3.5338  -15.3765  -37.2485 C.3       4 UNK        -0.1800 
     54 N           3.8917  -14.6281  -39.5447 N.am      4 UNK        -0.5000 
     55 C           4.0078  -13.8049  -40.5952 C.2       3 UNK         0.5000 
     56 O           3.5251  -12.6685  -40.6261 O.2       3 UNK        -0.5000 
     57 CA          4.7782  -14.3422  -41.8169 C.3       3 UNK         0.1400 
     58 CB          4.3357  -15.7800  -42.1747 C.3       3 UNK        -0.1800 
     59 N           4.5675  -13.3997  -42.9169 N.am      3 UNK        -0.5000 
     60 C           5.1044  -13.4162  -44.1413 C.2       2 UNK         0.5000 
     61 O           5.8468  -14.3031  -44.5683 O.2       2 UNK        -0.5000 
     62 CA          4.7644  -12.2230  -45.0469 C.3       2 UNK         0.1400 
     63 CB          5.8907  -11.1744  -45.0252 C.3       2 UNK        -0.1800 
     64 N           4.5473  -12.7066  -46.4085 N.am      2 UNK        -0.5000 
     65 C           3.7852  -12.0975  -47.3277 C.2       1 UNK         0.5000 
     66 O           3.2935  -10.9793  -47.1489 O.2       1 UNK        -0.5000 
     67 C          -1.2122  -21.5036  -47.7765 C.2       11 UNK         0.5000 
     68 O          -1.3970  -22.2661  -48.7282 O.2       11 UNK        -0.5000 
     69 N          -2.2020  -21.0122  -47.0163 N.am      12 UNK        -0.5000 
     70 CA         -3.6336  -21.2271  -47.2411 C.3       12 UNK         0.1400 
     71 CB         -4.4404  -20.4157  -46.2190 C.3       12 UNK        -0.1800 
     72 C          -4.0652  -22.7043  -47.2160 C.2       12 UNK         0.5000 
     73 O          -5.0184  -23.0616  -47.9067 O.2       12 UNK        -0.5000 
     74 N          -3.3450  -23.5397  -46.4548 N.am      13 UNK        -0.5000 
     75 CA         -3.5392  -24.9892  -46.4052 C.3       13 UNK         0.1400 
     76 CB         -2.7202  -25.5732  -45.2444 C.3       13 UNK        -0.1800 
     77 C          -3.1728  -25.6799  -47.7327 C.2       13 UNK         0.5000 
     78 O          -3.8983  -26.5719  -48.1722 O.2       13 UNK        -0.5000 
     79 N          -2.0806  -25.2288  -48.3673 N.am      14 UNK        -0.5000 
     80 CA         -1.6310  -25.7017  -49.6793 C.3       14 UNK         0.1400 
     81 CB         -0.1650  -25.2970  -49.8987 C.3       14 UNK        -0.1800 
     82 C          -2.5216  -25.1668  -50.8144 C.2       14 UNK         0.5000 
     83 O          -2.7775  -25.8855  -51.7797 O.2       14 UNK        -0.5000 
     84 N          -3.0139  -23.9317  -50.6476 N.am      15 UNK        -0.5000 
     85 CA         -3.9757  -23.2777  -51.5367 C.3       15 UNK         0.1400 
     86 CB         -3.9283  -21.7636  -51.2771 C.3       15 UNK        -0.1800 
     87 C          -5.4189  -23.8070  -51.3884 C.2       15 UNK         0.5000 
     88 O          -6.2964  -23.3544  -52.1225 O.2       15 UNK        -0.5000 
     89 N          -5.6593  -24.7158  -50.4306 N.am      16 UNK        -0.5000 
     90 CA         -6.9453  -25.3387  -50.1001 C.3       16 UNK         0.1400 
     91 CB         -7.3911  -26.2816  -51.2377 C.3       16 UNK        -0.1800 
     92 C          -8.0203  -24.2993  -49.7189 C.2       16 UNK         0.5000 
     93 O          -9.1281  -24.3256  -50.2550 O.2       16 UNK        -0.5000 
     94 N          -7.6438  -23.3673  -48.8311 N.am      17 UNK        -0.5000 
     95 CA         -8.4159  -22.1976  -48.3935 C.3       17 UNK         0.1400 
     96 CB         -9.6929  -22.6182  -47.6360 C.3       17 UNK        -0.1800 
     97 C          -8.6850  -21.2072  -49.5474 C.2       17 UNK         0.5000 
     98 O          -9.7581  -20.6063  -49.6172 O.2       17 UNK        -0.5000 
     99 N          -7.6863  -21.0710  -50.4324 N.am      18 UNK        -0.5000 
    100 CA        -7.6562  -20.2427  -51.6428 C.3       18 UNK         0.1400 
    101 CB        -7.8085  -18.7455  -51.3018 C.3       18 UNK        -0.1800 
    102 C         -8.6212  -20.7132  -52.7525 C.2       18 UNK         0.5000 
    103 O         -8.9681  -19.9240  -53.6334 O.2       18 UNK        -0.5000 
    104 N         -9.0144  -21.9944  -52.7209 N.am      19 UNK        -0.5000 
    105 CA        -9.7572  -22.6544  -53.7966 C.3       19 UNK         0.1400 
    106 CB       -10.4496  -23.9072  -53.2409 C.3       19 UNK        -0.1800 
    107 C         -8.8484  -23.0257  -54.9854 C.2       19 UNK         0.5000 
    108 O         -9.3372  -23.1361  -56.1107 O.2       19 UNK        -0.5000 
    109 N         -7.5513  -23.2055  -54.7150 N.am      20 UNK        -0.5000 
    110 CA        -6.4926  -23.4805  -55.6777 C.3       20 UNK         0.1400 
    111 CB        -5.9884  -24.9151  -55.4386 C.3       20 UNK        -0.1800 
    112 C         -5.3576  -22.4576  -55.4934 C.2       20 UNK         0.5000 
    113 O         -5.4031  -21.6279  -54.5810 O.2       20 UNK        -0.5000 
    114 N         -4.3432  -22.5380  -56.3622 N.am      21 UNK        -0.5000 
    115 CA        -3.0900  -21.7963  -56.2226 C.3       21 UNK         0.1400 
    116 CB        -2.3192  -21.8602  -57.5502 C.3       21 UNK        -0.1800 
    117 C         -2.2385  -22.3697  -55.0735 C.2       21 UNK         0.5000 
    118 O         -2.2690  -23.5798  -54.8360 O.2       21 UNK        -0.5000 
    119 N         -1.4906  -21.4940  -54.3947 N.am      22 UNK        -0.5000 
    120 CA        -0.5564  -21.8448  -53.3149 C.3       22 UNK         0.1400 
    121 C          0.6359  -22.7387  -53.7661 C.2       22 UNK         0.5000 
    122 N          1.2548  -23.4636  -52.8430 N.am      22 UNK        -0.7600 
    123 O          1.0302  -22.7585  -54.9302 O.2       22 UNK        -0.5000 
    124 C124       -0.0822  -20.5851  -52.5423 C.3       23 UNK        -0.0398 
    125 S125        0.6502  -19.2618  -53.5759 S.3       23 UNK        -0.2404 
    126 C126        2.4349  -19.6363  -53.5365 C.3       23 UNK        -0.0205 
    127 H127       -0.8427  -11.7316  -48.7304 H         1 UNK         0.0600 
    128 H128       -0.8458  -13.2403  -49.6502 H         1 UNK         0.0600 
    129 H129       -0.0081  -11.8208  -50.2846 H         1 UNK         0.0600 
    130 H130        2.1931  -11.9577  -50.0486 H         1 UNK         0.3000 
    131 H131        4.2324  -12.4007  -49.3803 H         1 UNK         0.0600 
    132 H132        3.2405  -14.8152  -47.8040 H         1 UNK         0.0800 
    133 H133        4.8616  -14.5291  -48.3864 H         1 UNK         0.0800 
    134 H134        5.1759  -16.6171  -49.2179 H         1 UNK         0.0800 
    135 H135        5.4477  -16.2705  -50.9069 H         1 UNK         0.0800 
    136 H136        3.4166  -17.3108  -52.4958 H         1 UNK         0.1150 
    137 H137        2.8915  -21.4627  -51.5685 H         1 UNK         0.1150 
    138 H138        4.7274  -18.8539  -48.7144 H         1 UNK         0.1150 
    139 H139        3.8188  -22.4028  -49.5900 H         1 UNK         0.0800 
    140 H140        5.0635  -21.4854  -48.7835 H         1 UNK         0.0800 
    141 H141        1.2039  -22.8102  -48.2192 H         1 UNK         0.0800 
    142 H142        1.2520  -21.4275  -49.2848 H         1 UNK         0.0800 
    143 H143        0.3521  -21.3484  -46.3591 H         1 UNK         0.0600 
    144 H144        0.4648  -19.1492  -46.5004 H         1 UNK         0.3000 
    145 H145        0.8701  -16.8174  -48.9168 H         1 UNK         0.0600 
    146 H146       -1.1612  -15.5295  -48.2374 H         1 UNK         0.0600 
    147 H147       -1.9372  -17.0188  -47.6993 H         1 UNK         0.0600 
    148 H148       -1.5658  -16.7803  -49.4037 H         1 UNK         0.0600 
    149 H149       -0.0420  -16.5603  -46.1921 H         1 UNK         0.3000 
    150 H150        3.2981  -16.6717  -44.8366 H         1 UNK         0.0600 
    151 H151        2.5898  -14.4082  -45.5485 H         1 UNK         0.0600 
    152 H152        2.1681  -14.6348  -43.8618 H         1 UNK         0.0600 
    153 H153        0.9327  -14.7356  -45.1035 H         1 UNK         0.0600 
    154 H154        0.8679  -16.6744  -43.4343 H         1 UNK         0.3000 
    155 H155        0.4701  -20.1832  -42.9263 H         1 UNK         0.0600 
    156 H156        2.1513  -19.4267  -41.2558 H         1 UNK         0.0600 
    157 H157        0.5330  -19.3629  -40.5753 H         1 UNK         0.0600 
    158 H158        1.3342  -17.8797  -41.0899 H         1 UNK         0.0600 
    159 H159       -0.9150  -17.7608  -42.1244 H         1 UNK         0.3000 
    160 H160       -3.3312  -17.8269  -44.7225 H         1 UNK         0.0600 
    161 H161       -3.5926  -18.4836  -41.7373 H         1 UNK         0.0600 
    162 H162       -4.1614  -19.5051  -43.0506 H         1 UNK         0.0600 
    163 H163       -4.8848  -17.9250  -42.7999 H         1 UNK         0.0600 
    164 H164       -2.9937  -16.1821  -42.4048 H         1 UNK         0.3000 
    165 H165       -0.8208  -13.7778  -43.8742 H         1 UNK         0.0600 
    166 H166       -2.6905  -12.2555  -43.3384 H         1 UNK         0.0600 
    167 H167       -3.0771  -13.1948  -44.7706 H         1 UNK         0.0600 
    168 H168       -3.8103  -13.6142  -43.2268 H         1 UNK         0.0600 
    169 H169       -2.1195  -13.7356  -41.3815 H         1 UNK         0.3000 
    170 H170       -0.7522  -13.8063  -39.5444 H         1 UNK         0.0600 
    171 H171       -0.6739  -16.8864  -39.4601 H         1 UNK         0.0600 
    172 H172       -1.0133  -15.8371  -38.0858 H         1 UNK         0.0600 
    173 H173       -2.1359  -15.9055  -39.4347 H         1 UNK         0.0600 
    174 H174        1.6742  -15.2832  -40.1741 H         1 UNK         0.3000 
    175 H175        3.5454  -13.3471  -37.9417 H         1 UNK         0.0600 
    176 H176        3.2119  -16.3712  -37.5598 H         1 UNK         0.0600 
    177 H177        4.6080  -15.4116  -37.0654 H         1 UNK         0.0600 
    178 H178        3.0508  -15.1592  -36.2948 H         1 UNK         0.0600 
    179 H179        4.3153  -15.5432  -39.5954 H         1 UNK         0.3000 
    180 H180        5.8417  -14.3424  -41.5721 H         1 UNK         0.0600 
    181 H181        3.2539  -15.8573  -42.2737 H         1 UNK         0.0600 
    182 H182        4.6368  -16.4868  -41.4013 H         1 UNK         0.0600 
    183 H183        4.7889  -16.1337  -43.0988 H         1 UNK         0.0600 
    184 H184        3.9876  -12.6164  -42.6363 H         1 UNK         0.3000 
    185 H185        3.8423  -11.7657  -44.6809 H         1 UNK         0.0600 
    186 H186        6.8262  -11.5837  -45.4084 H         1 UNK         0.0600 
    187 H187        5.6344  -10.3034  -45.6284 H         1 UNK         0.0600 
    188 H188        6.0764  -10.8219  -44.0099 H         1 UNK         0.0600 
    189 H189        4.9444  -13.6194  -46.5880 H         1 UNK         0.3000 
    190 H190       -1.9526  -20.4106  -46.2332 H         1 UNK         0.3000 
    191 H191       -3.8645  -20.8370  -48.2326 H         1 UNK         0.0600 
    192 H192       -4.2390  -19.3497  -46.3202 H         1 UNK         0.0600 
    193 H193       -4.2028  -20.7111  -45.1967 H         1 UNK         0.0600 
    194 H194       -5.5127  -20.5564  -46.3626 H         1 UNK         0.0600 
    195 H195       -2.5880  -23.1575  -45.9078 H         1 UNK         0.3000 
    196 H196       -4.5959  -25.1836  -46.2089 H         1 UNK         0.0600 
    197 H197       -3.0268  -25.1434  -44.2906 H         1 UNK         0.0600 
    198 H198       -1.6526  -25.3879  -45.3688 H         1 UNK         0.0600 
    199 H199       -2.8600  -26.6527  -45.1729 H         1 UNK         0.0600 
    200 H200       -1.5803  -24.4429  -47.9768 H         1 UNK         0.3000 
    201 H201       -1.6876  -26.7924  -49.6925 H         1 UNK         0.0600 
    202 H202        0.4755  -25.6901  -49.1091 H         1 UNK         0.0600 
    203 H203       -0.0425  -24.2145  -49.9229 H         1 UNK         0.0600 
    204 H204        0.2075  -25.6911  -50.8451 H         1 UNK         0.0600 
    205 H205       -2.6994  -23.3967  -49.8450 H         1 UNK         0.3000 
    206 H206       -3.6687  -23.4593  -52.5672 H         1 UNK         0.0600 
    207 H207       -2.9047  -21.3936  -51.2295 H         1 UNK         0.0600 
    208 H208       -4.4224  -21.5017  -50.3427 H         1 UNK         0.0600 
    209 H209       -4.4297  -21.2190  -52.0767 H         1 UNK         0.0600 
    210 H210       -4.8827  -24.9907  -49.8456 H         1 UNK         0.3000 
    211 H211       -6.7759  -25.9473  -49.2107 H         1 UNK         0.0600 
    212 H212       -7.5926  -25.7385  -52.1616 H         1 UNK         0.0600 
    213 H213       -8.3015  -26.8178  -50.9678 H         1 UNK         0.0600 
    214 H214       -6.6259  -27.0280  -51.4506 H         1 UNK         0.0600 
    215 H215       -6.6870  -23.4041  -48.4795 H         1 UNK         0.3000 
    216 H216       -7.7783  -21.6664  -47.6854 H         1 UNK         0.0600 
    217 H217      -10.1784  -21.7537  -47.1819 H         1 UNK         0.0600 
    218 H218       -9.4621  -23.3185  -46.8333 H         1 UNK         0.0600 
    219 H219      -10.4217  -23.0905  -48.2951 H         1 UNK         0.0600 
    220 H220       -6.8778  -21.6612  -50.3011 H         1 UNK         0.3000 
    221 H221       -6.6585  -20.3741  -52.0622 H         1 UNK         0.0600 
    222 H222       -8.8153  -18.5068  -50.9586 H         1 UNK         0.0600 
    223 H223       -7.1068  -18.4445  -50.5239 H         1 UNK         0.0600 
    224 H224       -7.6075  -18.1237  -52.1749 H         1 UNK         0.0600 
    225 H225       -8.6756  -22.5868  -51.9737 H         1 UNK         0.3000 
    226 H226      -10.5291  -21.9739  -54.1622 H         1 UNK         0.0600 
    227 H227      -11.0970  -23.6611  -52.3989 H         1 UNK         0.0600 
    228 H228      -11.0700  -24.3802  -54.0030 H         1 UNK         0.0600 
    229 H229       -9.7257  -24.6487  -52.9017 H         1 UNK         0.0600 
    230 H230       -7.2212  -23.0585  -53.7633 H         1 UNK         0.3000 
    231 H231       -6.8656  -23.3902  -56.6998 H         1 UNK         0.0600 
    232 H232       -5.2253  -25.1966  -56.1648 H         1 UNK         0.0600 
    233 H233       -6.8004  -25.6369  -55.5281 H         1 UNK         0.0600 
    234 H234       -5.5526  -25.0260  -54.4445 H         1 UNK         0.0600 
    235 H235       -4.3572  -23.2611  -57.0661 H         1 UNK         0.3000 
    236 H236       -3.3235  -20.7515  -56.0057 H         1 UNK         0.0600 
    237 H237       -2.0645  -22.8863  -57.8188 H         1 UNK         0.0600 
    238 H238       -2.9018  -21.4329  -58.3665 H         1 UNK         0.0600 
    239 H239       -1.3868  -21.2976  -57.4871 H         1 UNK         0.0600 
    240 H240       -1.4843  -20.5241  -54.6751 H         1 UNK         0.3000 
    241 H241       -1.1280  -22.4518  -52.6101 H         1 UNK         0.0600 
    242 H242        2.0315  -24.0413  -53.1248 H         1 UNK         0.3800 
    243 H243        0.9564  -23.4712  -51.8825 H         1 UNK         0.3800 
    244 H244        0.5929  -20.8537  -51.7317 H         1 UNK         0.0800 
    245 H245       -0.9434  -20.1423  -52.0410 H         1 UNK         0.0800 
    246 H246        2.9344  -19.0026  -54.2706 H         1 UNK         0.0800 
    247 H247        2.6091  -20.6604  -53.8667 H         1 UNK         0.0800 
@<TRIPOS>BOND
     1    1    2 1    
     2    1  127 1    
     3    1  128 1    
     4    1  129 1    
     5    2    3 2    
     6    2    4 am   BACKBONE|DICT|INTERRES
     7    4    5 1    
     8    4  130 1    
     9    5    6 1    
    10    5   65 1    
    11    5  131 1    
    12    6    7 1    
    13    6  132 1    
    14    6  133 1    
    15    7    8 1    
    16    8    9 1    
    17    8  134 1    
    18    8  135 1    
    19    9   10 ar   
    20    9   14 ar   
    21   10   11 ar   
    22   10  136 1    
    23   11   12 ar   
    24   11  126 1    
    25   12   13 ar   
    26   12  137 1    
    27   13   14 ar   
    28   13   15 1    
    29   14  138 1    
    30   15   16 1    
    31   15  139 1    
    32   15  140 1    
    33   16   17 1    
    34   17   18 1    
    35   17  141 1    
    36   17  142 1    
    37   18   19 1    
    38   18   67 1    
    39   18  143 1    
    40   19   20 am   BACKBONE|DICT|INTERRES
    41   19  144 1    
    42   20   21 2    
    43   20   22 1    
    44   22   23 1    
    45   22   24 1    
    46   22  145 1    
    47   23  146 1    
    48   23  147 1    
    49   23  148 1    
    50   24   25 am   BACKBONE|DICT|INTERRES
    51   24  149 1    
    52   25   26 2    
    53   25   27 1    
    54   27   28 1    
    55   27   29 1    
    56   27  150 1    
    57   28  151 1    
    58   28  152 1    
    59   28  153 1    
    60   29   30 am   BACKBONE|DICT|INTERRES
    61   29  154 1    
    62   30   31 2    
    63   30   32 1    
    64   32   33 1    
    65   32   34 1    
    66   32  155 1    
    67   33  156 1    
    68   33  157 1    
    69   33  158 1    
    70   34   35 am   BACKBONE|DICT|INTERRES
    71   34  159 1    
    72   35   36 2    
    73   35   37 1    
    74   37   38 1    
    75   37   39 1    
    76   37  160 1    
    77   38  161 1    
    78   38  162 1    
    79   38  163 1    
    80   39   40 am   BACKBONE|DICT|INTERRES
    81   39  164 1    
    82   40   41 2    
    83   40   42 1    
    84   42   43 1    
    85   42   44 1    
    86   42  165 1    
    87   43  166 1    
    88   43  167 1    
    89   43  168 1    
    90   44   45 am   BACKBONE|DICT|INTERRES
    91   44  169 1    
    92   45   46 2    
    93   45   47 1    
    94   47   48 1    
    95   47   49 1    
    96   47  170 1    
    97   48  171 1    
    98   48  172 1    
    99   48  173 1    
   100   49   50 am   BACKBONE|DICT|INTERRES
   101   49  174 1    
   102   50   51 2    
   103   50   52 1    
   104   52   53 1    
   105   52   54 1    
   106   52  175 1    
   107   53  176 1    
   108   53  177 1    
   109   53  178 1    
   110   54   55 am   BACKBONE|DICT|INTERRES
   111   54  179 1    
   112   55   56 2    
   113   55   57 1    
   114   57   58 1    
   115   57   59 1    
   116   57  180 1    
   117   58  181 1    
   118   58  182 1    
   119   58  183 1    
   120   59   60 am   BACKBONE|DICT|INTERRES
   121   59  184 1    
   122   60   61 2    
   123   60   62 1    
   124   62   63 1    
   125   62   64 1    
   126   62  185 1    
   127   63  186 1    
   128   63  187 1    
   129   63  188 1    
   130   64   65 am   BACKBONE|DICT|INTERRES
   131   64  189 1    
   132   65   66 2    
   133   67   68 2    
   134   67   69 am   BACKBONE|DICT|INTERRES
   135   69   70 1    
   136   69  190 1    
   137   70   71 1    
   138   70   72 1    
   139   70  191 1    
   140   71  192 1    
   141   71  193 1    
   142   71  194 1    
   143   72   73 2    
   144   72   74 am   BACKBONE|DICT|INTERRES
   145   74   75 1    
   146   74  195 1    
   147   75   76 1    
   148   75   77 1    
   149   75  196 1    
   150   76  197 1    
   151   76  198 1    
   152   76  199 1    
   153   77   78 2    
   154   77   79 am   BACKBONE|DICT|INTERRES
   155   79   80 1    
   156   79  200 1    
   157   80   81 1    
   158   80   82 1    
   159   80  201 1    
   160   81  202 1    
   161   81  203 1    
   162   81  204 1    
   163   82   83 2    
   164   82   84 am   BACKBONE|DICT|INTERRES
   165   84   85 1    
   166   84  205 1    
   167   85   86 1    
   168   85   87 1    
   169   85  206 1    
   170   86  207 1    
   171   86  208 1    
   172   86  209 1    
   173   87   88 2    
   174   87   89 am   BACKBONE|DICT|INTERRES
   175   89   90 1    
   176   89  210 1    
   177   90   91 1    
   178   90   92 1    
   179   90  211 1    
   180   91  212 1    
   181   91  213 1    
   182   91  214 1    
   183   92   93 2    
   184   92   94 am   BACKBONE|DICT|INTERRES
   185   94   95 1    
   186   94  215 1    
   187   95   96 1    
   188   95   97 1    
   189   95  216 1    
   190   96  217 1    
   191   96  218 1    
   192   96  219 1    
   193   97   98 2    
   194   97   99 am   BACKBONE|DICT|INTERRES
   195   99  100 1    
   196   99  220 1    
   197  100  101 1    
   198  100  102 1    
   199  100  221 1    
   200  101  222 1    
   201  101  223 1    
   202  101  224 1    
   203  102  103 2    
   204  102  104 am   BACKBONE|DICT|INTERRES
   205  104  105 1    
   206  104  225 1    
   207  105  106 1    
   208  105  107 1    
   209  105  226 1    
   210  106  227 1    
   211  106  228 1    
   212  106  229 1    
   213  107  108 2    
   214  107  109 am   BACKBONE|DICT|INTERRES
   215  109  110 1    
   216  109  230 1    
   217  110  111 1    
   218  110  112 1    
   219  110  231 1    
   220  111  232 1    
   221  111  233 1    
   222  111  234 1    
   223  112  113 2    
   224  112  114 am   BACKBONE|DICT|INTERRES
   225  114  115 1    
   226  114  235 1    
   227  115  116 1    
   228  115  117 1    
   229  115  236 1    
   230  116  237 1    
   231  116  238 1    
   232  116  239 1    
   233  117  118 2    
   234  117  119 am   BACKBONE|DICT|INTERRES
   235  119  120 1    
   236  119  240 1    
   237  120  121 1    
   238  120  124 1    
   239  120  241 1    
   240  121  122 am   BACKBONE|DICT|INTERRES
   241  121  123 2    
   242  122  242 1    
   243  122  243 1    
   244  124  125 1    
   245  124  244 1    
   246  124  245 1    
   247  125  126 1    
   248  126  246 1    
   249  126  247 1    
@<TRIPOS>SUBSTRUCTURE
     1 UNK         1 GROUP             0       ****    0 ROOT    
