@<TRIPOS>MOLECULE
3R540
247   249    1
SMALL
USER_CHARGES


@<TRIPOS>ATOM
      1 CA         -5.4056  -16.9558  -47.7906 C.3       0 UNK        -0.1800 
      2 C          -4.4426  -15.7918  -47.6044 C.2       0 UNK         0.5000 
      3 O          -4.8773  -14.6794  -47.3033 O.2       0 UNK        -0.5000 
      4 N          -3.1381  -16.0377  -47.7808 N.am      1 UNK        -0.5000 
      5 CA         -2.0642  -15.0503  -47.6331 C.3       1 UNK         0.1400 
      6 C6         -0.7926  -15.4466  -48.4249 C.3       23 UNK        -0.0398 
      7 S7         -1.0612  -15.3373  -50.2250 S.3       23 UNK        -0.2404 
      8 C8          0.6032  -15.7118  -50.8608 C.3       23 UNK        -0.0205 
      9 C9          0.9252  -17.1910  -50.7295 C.ar      23 UNK        -0.0193 
     10 C10         0.3975  -18.1032  -51.6478 C.ar      23 UNK        -0.1150 
     11 C11         0.6442  -19.4720  -51.5107 C.ar      23 UNK        -0.0193 
     12 C12         1.4314  -19.9213  -50.4474 C.ar      23 UNK        -0.1150 
     13 C13         1.9577  -19.0207  -49.5171 C.ar      23 UNK        -0.0193 
     14 C14         1.7185  -17.6525  -49.6753 C.ar      23 UNK        -0.1150 
     15 C15         2.7411  -19.5385  -48.3174 C.3       23 UNK        -0.0205 
     16 S16         1.9729  -19.1320  -46.7077 S.3       23 UNK        -0.2404 
     17 C17         0.1946  -19.4364  -46.9866 C.3       23 UNK        -0.0398 
     18 CA         -0.1972  -20.9328  -47.0139 C.3       11 UNK         0.1400 
     19 N           0.0492  -21.6356  -45.7529 N.am      11 UNK        -0.5000 
     20 C          -0.1400  -22.9529  -45.5826 C.2       10 UNK         0.5000 
     21 O          -0.4119  -23.7275  -46.4990 O.2       10 UNK        -0.5000 
     22 CA         -0.0874  -23.4895  -44.1436 C.3       10 UNK         0.1400 
     23 CB          1.3479  -23.8580  -43.7416 C.3       10 UNK        -0.1800 
     24 N          -0.6526  -22.5343  -43.1899 N.am      10 UNK        -0.5000 
     25 C          -1.9598  -22.2477  -43.0972 C.2       9 UNK         0.5000 
     26 O          -2.8290  -22.7960  -43.7753 O.2       9 UNK        -0.5000 
     27 CA         -2.3572  -21.1305  -42.1142 C.3       9 UNK         0.1400 
     28 CB         -2.4774  -21.6822  -40.6861 C.3       9 UNK        -0.1800 
     29 N          -1.4134  -20.0117  -42.1265 N.am      9 UNK        -0.5000 
     30 C          -1.2338  -19.1883  -43.1689 C.2       8 UNK         0.5000 
     31 O          -1.8975  -19.2483  -44.2029 O.2       8 UNK        -0.5000 
     32 CA         -0.0921  -18.1588  -43.0607 C.3       8 UNK         0.1400 
     33 CB         -0.6170  -16.8314  -42.4989 C.3       8 UNK        -0.1800 
     34 N           1.0456  -18.6122  -42.2547 N.am      8 UNK        -0.5000 
     35 C           1.8008  -19.6874  -42.5257 C.2       7 UNK         0.5000 
     36 O           1.5599  -20.4603  -43.4533 O.2       7 UNK        -0.5000 
     37 CA          2.9918  -19.9633  -41.5806 C.3       7 UNK         0.1400 
     38 CB          4.1053  -20.7919  -42.2550 C.3       7 UNK        -0.1800 
     39 N           3.5459  -18.7548  -40.9531 N.am      7 UNK        -0.5000 
     40 C           4.1109  -17.7102  -41.5769 C.2       6 UNK         0.5000 
     41 O           4.2224  -17.6236  -42.8018 O.2       6 UNK        -0.5000 
     42 CA          4.5850  -16.5646  -40.6576 C.3       6 UNK         0.1400 
     43 CB          5.6934  -17.0166  -39.6827 C.3       6 UNK        -0.1800 
     44 N           4.9760  -15.3684  -41.4099 N.am      6 UNK        -0.5000 
     45 C           6.0496  -15.1813  -42.1897 C.2       5 UNK         0.5000 
     46 O           6.9886  -15.9735  -42.2918 O.2       5 UNK        -0.5000 
     47 CA          6.0325  -13.8868  -43.0287 C.3       5 UNK         0.1400 
     48 CB          7.4022  -13.5652  -43.6537 C.3       5 UNK        -0.1800 
     49 N           5.0343  -13.9620  -44.0978 N.am      5 UNK        -0.5000 
     50 C           3.7098  -13.8474  -43.9376 C.2       4 UNK         0.5000 
     51 O           3.1667  -13.6518  -42.8461 O.2       4 UNK        -0.5000 
     52 CA          2.8543  -14.0008  -45.2112 C.3       4 UNK         0.1400 
     53 CB          2.4498  -15.4710  -45.4065 C.3       4 UNK        -0.1800 
     54 N           1.6504  -13.1647  -45.1870 N.am      4 UNK        -0.5000 
     55 C           1.6525  -11.8231  -45.1169 C.2       3 UNK         0.5000 
     56 O           2.6849  -11.1501  -45.1336 O.2       3 UNK        -0.5000 
     57 CA          0.2956  -11.0883  -45.0430 C.3       3 UNK         0.1400 
     58 CB          0.1188  -10.1516  -46.2502 C.3       3 UNK        -0.1800 
     59 N          -0.8618  -11.9795  -44.9846 N.am      3 UNK        -0.5000 
     60 C          -1.3092  -12.6189  -43.8956 C.2       2 UNK         0.5000 
     61 O          -0.8109  -12.4973  -42.7770 O.2       2 UNK        -0.5000 
     62 CA         -2.5104  -13.5671  -44.1001 C.3       2 UNK         0.1400 
     63 CB         -3.8165  -12.8808  -43.6732 C.3       2 UNK        -0.1800 
     64 N          -2.6547  -14.0426  -45.4808 N.am      2 UNK        -0.5000 
     65 C          -1.7642  -14.7935  -46.1421 C.2       1 UNK         0.5000 
     66 O          -0.7415  -15.2427  -45.6252 O.2       1 UNK        -0.5000 
     67 C          -1.6691  -21.0875  -47.4470 C.2       11 UNK         0.5000 
     68 O          -1.9323  -21.5585  -48.5526 O.2       11 UNK        -0.5000 
     69 N          -2.5974  -20.7031  -46.5598 N.am      12 UNK        -0.5000 
     70 CA         -4.0393  -20.7248  -46.7912 C.3       12 UNK         0.1400 
     71 CB         -4.7681  -20.0993  -45.5927 C.3       12 UNK        -0.1800 
     72 C          -4.5977  -22.1180  -47.1165 C.2       12 UNK         0.5000 
     73 O          -5.2584  -22.2647  -48.1453 O.2       12 UNK        -0.5000 
     74 N          -4.3308  -23.0950  -46.2409 N.am      13 UNK        -0.5000 
     75 CA         -4.9023  -24.4354  -46.3232 C.3       13 UNK         0.1400 
     76 CB         -5.0795  -25.0078  -44.9061 C.3       13 UNK        -0.1800 
     77 C          -4.0694  -25.3763  -47.2069 C.2       13 UNK         0.5000 
     78 O          -4.5669  -25.8371  -48.2340 O.2       13 UNK        -0.5000 
     79 N          -2.8367  -25.6793  -46.7759 N.am      14 UNK        -0.5000 
     80 CA         -2.0043  -26.7390  -47.3529 C.3       14 UNK         0.1400 
     81 CB         -0.8683  -27.1045  -46.3836 C.3       14 UNK        -0.1800 
     82 C          -1.4627  -26.3978  -48.7508 C.2       14 UNK         0.5000 
     83 O          -1.5396  -27.2367  -49.6494 O.2       14 UNK        -0.5000 
     84 N          -0.9524  -25.1711  -48.9194 N.am      15 UNK        -0.5000 
     85 CA         -0.4882  -24.6513  -50.2100 C.3       15 UNK         0.1400 
     86 CB          0.5938  -23.5907  -49.9744 C.3       15 UNK        -0.1800 
     87 C          -1.6370  -24.0915  -51.0749 C.2       15 UNK         0.5000 
     88 O          -1.4180  -23.8130  -52.2534 O.2       15 UNK        -0.5000 
     89 N          -2.8333  -23.9624  -50.4838 N.am      16 UNK        -0.5000 
     90 CA         -4.0994  -23.5674  -51.1005 C.3       16 UNK         0.1400 
     91 CB         -4.5470  -24.6063  -52.1488 C.3       16 UNK        -0.1800 
     92 C          -4.1210  -22.1138  -51.6177 C.2       16 UNK         0.5000 
     93 O          -4.7293  -21.8325  -52.6537 O.2       16 UNK        -0.5000 
     94 N          -3.5165  -21.1844  -50.8613 N.am      17 UNK        -0.5000 
     95 CA         -3.6018  -19.7409  -51.1134 C.3       17 UNK         0.1400 
     96 CB         -2.6579  -18.9734  -50.1780 C.3       17 UNK        -0.1800 
     97 C          -5.0330  -19.1913  -50.9743 C.2       17 UNK         0.5000 
     98 O          -5.3672  -18.2174  -51.6464 O.2       17 UNK        -0.5000 
     99 N          -5.8711  -19.8503  -50.1583 N.am      18 UNK        -0.5000 
    100 CA        -7.2982  -19.5461  -50.0181 C.3       18 UNK         0.1400 
    101 CB        -7.8617  -20.3180  -48.8164 C.3       18 UNK        -0.1800 
    102 C         -8.1136  -19.8480  -51.2937 C.2       18 UNK         0.5000 
    103 O         -9.1588  -19.2316  -51.5013 O.2       18 UNK        -0.5000 
    104 N         -7.6095  -20.7631  -52.1338 N.am      19 UNK        -0.5000 
    105 CA        -8.1475  -21.0833  -53.4572 C.3       19 UNK         0.1400 
    106 CB        -8.0487  -22.6035  -53.6674 C.3       19 UNK        -0.1800 
    107 C         -7.4026  -20.3332  -54.5821 C.2       19 UNK         0.5000 
    108 O         -7.7484  -20.5148  -55.7501 O.2       19 UNK        -0.5000 
    109 N         -6.3917  -19.5259  -54.2197 N.am      20 UNK        -0.5000 
    110 CA        -5.4724  -18.7886  -55.0917 C.3       20 UNK         0.1400 
    111 CB        -6.2145  -17.6589  -55.8357 C.3       20 UNK        -0.1800 
    112 C         -4.6678  -19.7135  -56.0303 C.2       20 UNK         0.5000 
    113 O         -4.4973  -19.3998  -57.2098 O.2       20 UNK        -0.5000 
    114 N         -4.2038  -20.8529  -55.4938 N.am      21 UNK        -0.5000 
    115 CA        -3.4793  -21.8809  -56.2458 C.3       21 UNK         0.1400 
    116 CB        -3.3850  -23.1534  -55.3946 C.3       21 UNK        -0.1800 
    117 C         -2.0786  -21.4441  -56.7186 C.2       21 UNK         0.5000 
    118 O         -1.6350  -21.8913  -57.7774 O.2       21 UNK        -0.5000 
    119 N         -1.4107  -20.5870  -55.9365 N.am      22 UNK        -0.5000 
    120 CA        -0.1097  -19.9938  -56.2801 C.3       22 UNK         0.1400 
    121 C         -0.2767  -18.8403  -57.3050 C.2       22 UNK         0.5000 
    122 N          0.4928  -18.8383  -58.3848 N.am      22 UNK        -0.7600 
    123 O         -1.0690  -17.9226  -57.1047 O.2       22 UNK        -0.5000 
    124 C124        0.6553  -19.4980  -55.0274 C.3       23 UNK        -0.0398 
    125 S125        1.0675  -20.8570  -53.8796 S.3       23 UNK        -0.2404 
    126 C126        0.0017  -20.4752  -52.4579 C.3       23 UNK        -0.0205 
    127 H127       -5.9444  -17.1516  -46.8636 H         1 UNK         0.0600 
    128 H128       -4.8880  -17.8674  -48.0819 H         1 UNK         0.0600 
    129 H129       -6.1329  -16.7172  -48.5663 H         1 UNK         0.0600 
    130 H130       -2.8365  -16.9706  -48.0144 H         1 UNK         0.3000 
    131 H131       -2.4123  -14.0999  -48.0446 H         1 UNK         0.0600 
    132 H132       -0.4708  -16.4553  -48.1622 H         1 UNK         0.0800 
    133 H133        0.0381  -14.7826  -48.1778 H         1 UNK         0.0800 
    134 H134        0.6529  -15.4230  -51.9116 H         1 UNK         0.0800 
    135 H135        1.3452  -15.1031  -50.3416 H         1 UNK         0.0800 
    136 H136       -0.2356  -17.7450  -52.4464 H         1 UNK         0.1150 
    137 H137        1.6142  -20.9787  -50.3308 H         1 UNK         0.1150 
    138 H138        2.1155  -16.9542  -48.9518 H         1 UNK         0.1150 
    139 H139        2.8605  -20.6214  -48.3759 H         1 UNK         0.0800 
    140 H140        3.7479  -19.1200  -48.3423 H         1 UNK         0.0800 
    141 H141       -0.1096  -18.9439  -47.9103 H         1 UNK         0.0800 
    142 H142       -0.3479  -18.9122  -46.2020 H         1 UNK         0.0800 
    143 H143        0.4202  -21.4154  -47.7707 H         1 UNK         0.0600 
    144 H144        0.3529  -21.0785  -44.9610 H         1 UNK         0.3000 
    145 H145       -0.6886  -24.4006  -44.1064 H         1 UNK         0.0600 
    146 H146        1.3893  -24.2340  -42.7193 H         1 UNK         0.0600 
    147 H147        1.7410  -24.6401  -44.3923 H         1 UNK         0.0600 
    148 H148        2.0231  -23.0063  -43.8158 H         1 UNK         0.0600 
    149 H149        0.0081  -21.9810  -42.6634 H         1 UNK         0.3000 
    150 H150       -3.3362  -20.7532  -42.4172 H         1 UNK         0.0600 
    151 H151       -3.1891  -22.5080  -40.6463 H         1 UNK         0.0600 
    152 H152       -2.8318  -20.9161  -39.9963 H         1 UNK         0.0600 
    153 H153       -1.5219  -22.0539  -40.3140 H         1 UNK         0.0600 
    154 H154       -0.8302  -19.8922  -41.3117 H         1 UNK         0.3000 
    155 H155        0.2761  -17.9734  -44.0716 H         1 UNK         0.0600 
    156 H156        0.1380  -16.0472  -42.5630 H         1 UNK         0.0600 
    157 H157       -0.9247  -16.9246  -41.4569 H         1 UNK         0.0600 
    158 H158       -1.4826  -16.4946  -43.0687 H         1 UNK         0.0600 
    159 H159        1.3040  -18.0336  -41.4697 H         1 UNK         0.3000 
    160 H160        2.5881  -20.5666  -40.7663 H         1 UNK         0.0600 
    161 H161        4.4973  -20.2956  -43.1433 H         1 UNK         0.0600 
    162 H162        3.7339  -21.7686  -42.5656 H         1 UNK         0.0600 
    163 H163        4.9370  -20.9659  -41.5725 H         1 UNK         0.0600 
    164 H164        3.4838  -18.7293  -39.9445 H         1 UNK         0.3000 
    165 H165        3.7217  -16.2623  -40.0629 H         1 UNK         0.0600 
    166 H166        6.5366  -17.4706  -40.2038 H         1 UNK         0.0600 
    167 H167        6.0715  -16.1782  -39.0976 H         1 UNK         0.0600 
    168 H168        5.3175  -17.7569  -38.9761 H         1 UNK         0.0600 
    169 H169        4.2391  -14.6772  -41.5146 H         1 UNK         0.3000 
    170 H170        5.7726  -13.0624  -42.3610 H         1 UNK         0.0600 
    171 H171        8.1736  -13.4924  -42.8861 H         1 UNK         0.0600 
    172 H172        7.7146  -14.3329  -44.3627 H         1 UNK         0.0600 
    173 H173        7.3800  -12.6113  -44.1811 H         1 UNK         0.0600 
    174 H174        5.3946  -14.1612  -45.0197 H         1 UNK         0.3000 
    175 H175        3.4529  -13.6906  -46.0701 H         1 UNK         0.0600 
    176 H176        1.8127  -15.8234  -44.5944 H         1 UNK         0.0600 
    177 H177        1.9102  -15.6148  -46.3427 H         1 UNK         0.0600 
    178 H178        3.3252  -16.1214  -45.4359 H         1 UNK         0.0600 
    179 H179        0.7669  -13.6564  -45.1524 H         1 UNK         0.3000 
    180 H180        0.3106  -10.4770  -44.1383 H         1 UNK         0.0600 
    181 H181        0.1087  -10.7048  -47.1902 H         1 UNK         0.0600 
    182 H182        0.9295   -9.4239  -46.3065 H         1 UNK         0.0600 
    183 H183       -0.8125   -9.5892  -46.1806 H         1 UNK         0.0600 
    184 H184       -1.3476  -12.1372  -45.8546 H         1 UNK         0.3000 
    185 H185       -2.3566  -14.4335  -43.4569 H         1 UNK         0.0600 
    186 H186       -3.7592  -12.5389  -42.6389 H         1 UNK         0.0600 
    187 H187       -4.0360  -12.0120  -44.2951 H         1 UNK         0.0600 
    188 H188       -4.6622  -13.5653  -43.7416 H         1 UNK         0.0600 
    189 H189       -3.5071  -13.7864  -45.9672 H         1 UNK         0.3000 
    190 H190       -2.2959  -20.3146  -45.6687 H         1 UNK         0.3000 
    191 H191       -4.2414  -20.0969  -47.6573 H         1 UNK         0.0600 
    192 H192       -4.5658  -20.6428  -44.6694 H         1 UNK         0.0600 
    193 H193       -5.8480  -20.0990  -45.7457 H         1 UNK         0.0600 
    194 H194       -4.4614  -19.0638  -45.4431 H         1 UNK         0.0600 
    195 H195       -3.7587  -22.8921  -45.4244 H         1 UNK         0.3000 
    196 H196       -5.8988  -24.3686  -46.7662 H         1 UNK         0.0600 
    197 H197       -5.5224  -26.0040  -44.9405 H         1 UNK         0.0600 
    198 H198       -5.7413  -24.3789  -44.3104 H         1 UNK         0.0600 
    199 H199       -4.1322  -25.0888  -44.3725 H         1 UNK         0.0600 
    200 H200       -2.4708  -25.2056  -45.9633 H         1 UNK         0.3000 
    201 H201       -2.6337  -27.6253  -47.4598 H         1 UNK         0.0600 
    202 H202       -1.2599  -27.4025  -45.4109 H         1 UNK         0.0600 
    203 H203       -0.1772  -26.2772  -46.2274 H         1 UNK         0.0600 
    204 H204       -0.2868  -27.9428  -46.7689 H         1 UNK         0.0600 
    205 H205       -0.8816  -24.5525  -48.1132 H         1 UNK         0.3000 
    206 H206       -0.0279  -25.4669  -50.7715 H         1 UNK         0.0600 
    207 H207        1.3588  -23.9419  -49.2818 H         1 UNK         0.0600 
    208 H208        1.0913  -23.3338  -50.9103 H         1 UNK         0.0600 
    209 H209        0.1646  -22.6769  -49.5732 H         1 UNK         0.0600 
    210 H210       -2.8851  -24.2001  -49.5036 H         1 UNK         0.3000 
    211 H211       -4.8391  -23.6022  -50.3017 H         1 UNK         0.0600 
    212 H212       -3.8618  -24.6565  -52.9935 H         1 UNK         0.0600 
    213 H213       -5.5369  -24.3725  -52.5398 H         1 UNK         0.0600 
    214 H214       -4.6038  -25.6020  -51.7087 H         1 UNK         0.0600 
    215 H215       -3.0030  -21.4742  -50.0301 H         1 UNK         0.3000 
    216 H216       -3.2774  -19.5671  -52.1411 H         1 UNK         0.0600 
    217 H217       -1.6647  -19.4144  -50.1643 H         1 UNK         0.0600 
    218 H218       -3.0189  -18.9571  -49.1528 H         1 UNK         0.0600 
    219 H219       -2.5538  -17.9380  -50.5025 H         1 UNK         0.0600 
    220 H220       -5.5310  -20.6597  -49.6523 H         1 UNK         0.3000 
    221 H221       -7.3981  -18.4784  -49.8133 H         1 UNK         0.0600 
    222 H222       -7.7847  -21.3966  -48.9597 H         1 UNK         0.0600 
    223 H223       -7.3308  -20.0622  -47.8994 H         1 UNK         0.0600 
    224 H224       -8.9147  -20.0818  -48.6587 H         1 UNK         0.0600 
    225 H225       -6.7294  -21.2058  -51.9033 H         1 UNK         0.3000 
    226 H226       -9.2003  -20.7998  -53.5136 H         1 UNK         0.0600 
    227 H227       -8.5361  -23.1489  -52.8592 H         1 UNK         0.0600 
    228 H228       -8.5333  -22.9016  -54.5979 H         1 UNK         0.0600 
    229 H229       -7.0114  -22.9339  -53.7209 H         1 UNK         0.0600 
    230 H230       -6.2132  -19.4173  -53.2300 H         1 UNK         0.3000 
    231 H231       -4.7400  -18.3188  -54.4338 H         1 UNK         0.0600 
    232 H232       -5.5148  -17.0279  -56.3851 H         1 UNK         0.0600 
    233 H233       -6.7510  -17.0154  -55.1384 H         1 UNK         0.0600 
    234 H234       -6.9352  -18.0502  -56.5541 H         1 UNK         0.0600 
    235 H235       -4.4193  -21.0699  -54.5254 H         1 UNK         0.3000 
    236 H236       -4.0659  -22.1164  -57.1363 H         1 UNK         0.0600 
    237 H237       -4.3754  -23.5123  -55.1140 H         1 UNK         0.0600 
    238 H238       -2.8890  -23.9567  -55.9407 H         1 UNK         0.0600 
    239 H239       -2.8171  -22.9786  -54.4802 H         1 UNK         0.0600 
    240 H240       -1.8601  -20.2452  -55.1021 H         1 UNK         0.3000 
    241 H241        0.5006  -20.7723  -56.7434 H         1 UNK         0.0600 
    242 H242        1.1516  -19.5802  -58.5668 H         1 UNK         0.3800 
    243 H243        0.4028  -18.0849  -59.0491 H         1 UNK         0.3800 
    244 H244        1.5967  -19.0301  -55.3209 H         1 UNK         0.0800 
    245 H245        0.0846  -18.7246  -54.5136 H         1 UNK         0.0800 
    246 H246       -0.2060  -21.3999  -51.9195 H         1 UNK         0.0800 
    247 H247       -0.9671  -20.1138  -52.8028 H         1 UNK         0.0800 
@<TRIPOS>BOND
     1    1    2 1    
     2    1  127 1    
     3    1  128 1    
     4    1  129 1    
     5    2    3 2    
     6    2    4 am   BACKBONE|DICT|INTERRES
     7    4    5 1    
     8    4  130 1    
     9    5    6 1    
    10    5   65 1    
    11    5  131 1    
    12    6    7 1    
    13    6  132 1    
    14    6  133 1    
    15    7    8 1    
    16    8    9 1    
    17    8  134 1    
    18    8  135 1    
    19    9   10 ar   
    20    9   14 ar   
    21   10   11 ar   
    22   10  136 1    
    23   11   12 ar   
    24   11  126 1    
    25   12   13 ar   
    26   12  137 1    
    27   13   14 ar   
    28   13   15 1    
    29   14  138 1    
    30   15   16 1    
    31   15  139 1    
    32   15  140 1    
    33   16   17 1    
    34   17   18 1    
    35   17  141 1    
    36   17  142 1    
    37   18   19 1    
    38   18   67 1    
    39   18  143 1    
    40   19   20 am   BACKBONE|DICT|INTERRES
    41   19  144 1    
    42   20   21 2    
    43   20   22 1    
    44   22   23 1    
    45   22   24 1    
    46   22  145 1    
    47   23  146 1    
    48   23  147 1    
    49   23  148 1    
    50   24   25 am   BACKBONE|DICT|INTERRES
    51   24  149 1    
    52   25   26 2    
    53   25   27 1    
    54   27   28 1    
    55   27   29 1    
    56   27  150 1    
    57   28  151 1    
    58   28  152 1    
    59   28  153 1    
    60   29   30 am   BACKBONE|DICT|INTERRES
    61   29  154 1    
    62   30   31 2    
    63   30   32 1    
    64   32   33 1    
    65   32   34 1    
    66   32  155 1    
    67   33  156 1    
    68   33  157 1    
    69   33  158 1    
    70   34   35 am   BACKBONE|DICT|INTERRES
    71   34  159 1    
    72   35   36 2    
    73   35   37 1    
    74   37   38 1    
    75   37   39 1    
    76   37  160 1    
    77   38  161 1    
    78   38  162 1    
    79   38  163 1    
    80   39   40 am   BACKBONE|DICT|INTERRES
    81   39  164 1    
    82   40   41 2    
    83   40   42 1    
    84   42   43 1    
    85   42   44 1    
    86   42  165 1    
    87   43  166 1    
    88   43  167 1    
    89   43  168 1    
    90   44   45 am   BACKBONE|DICT|INTERRES
    91   44  169 1    
    92   45   46 2    
    93   45   47 1    
    94   47   48 1    
    95   47   49 1    
    96   47  170 1    
    97   48  171 1    
    98   48  172 1    
    99   48  173 1    
   100   49   50 am   BACKBONE|DICT|INTERRES
   101   49  174 1    
   102   50   51 2    
   103   50   52 1    
   104   52   53 1    
   105   52   54 1    
   106   52  175 1    
   107   53  176 1    
   108   53  177 1    
   109   53  178 1    
   110   54   55 am   BACKBONE|DICT|INTERRES
   111   54  179 1    
   112   55   56 2    
   113   55   57 1    
   114   57   58 1    
   115   57   59 1    
   116   57  180 1    
   117   58  181 1    
   118   58  182 1    
   119   58  183 1    
   120   59   60 am   BACKBONE|DICT|INTERRES
   121   59  184 1    
   122   60   61 2    
   123   60   62 1    
   124   62   63 1    
   125   62   64 1    
   126   62  185 1    
   127   63  186 1    
   128   63  187 1    
   129   63  188 1    
   130   64   65 am   BACKBONE|DICT|INTERRES
   131   64  189 1    
   132   65   66 2    
   133   67   68 2    
   134   67   69 am   BACKBONE|DICT|INTERRES
   135   69   70 1    
   136   69  190 1    
   137   70   71 1    
   138   70   72 1    
   139   70  191 1    
   140   71  192 1    
   141   71  193 1    
   142   71  194 1    
   143   72   73 2    
   144   72   74 am   BACKBONE|DICT|INTERRES
   145   74   75 1    
   146   74  195 1    
   147   75   76 1    
   148   75   77 1    
   149   75  196 1    
   150   76  197 1    
   151   76  198 1    
   152   76  199 1    
   153   77   78 2    
   154   77   79 am   BACKBONE|DICT|INTERRES
   155   79   80 1    
   156   79  200 1    
   157   80   81 1    
   158   80   82 1    
   159   80  201 1    
   160   81  202 1    
   161   81  203 1    
   162   81  204 1    
   163   82   83 2    
   164   82   84 am   BACKBONE|DICT|INTERRES
   165   84   85 1    
   166   84  205 1    
   167   85   86 1    
   168   85   87 1    
   169   85  206 1    
   170   86  207 1    
   171   86  208 1    
   172   86  209 1    
   173   87   88 2    
   174   87   89 am   BACKBONE|DICT|INTERRES
   175   89   90 1    
   176   89  210 1    
   177   90   91 1    
   178   90   92 1    
   179   90  211 1    
   180   91  212 1    
   181   91  213 1    
   182   91  214 1    
   183   92   93 2    
   184   92   94 am   BACKBONE|DICT|INTERRES
   185   94   95 1    
   186   94  215 1    
   187   95   96 1    
   188   95   97 1    
   189   95  216 1    
   190   96  217 1    
   191   96  218 1    
   192   96  219 1    
   193   97   98 2    
   194   97   99 am   BACKBONE|DICT|INTERRES
   195   99  100 1    
   196   99  220 1    
   197  100  101 1    
   198  100  102 1    
   199  100  221 1    
   200  101  222 1    
   201  101  223 1    
   202  101  224 1    
   203  102  103 2    
   204  102  104 am   BACKBONE|DICT|INTERRES
   205  104  105 1    
   206  104  225 1    
   207  105  106 1    
   208  105  107 1    
   209  105  226 1    
   210  106  227 1    
   211  106  228 1    
   212  106  229 1    
   213  107  108 2    
   214  107  109 am   BACKBONE|DICT|INTERRES
   215  109  110 1    
   216  109  230 1    
   217  110  111 1    
   218  110  112 1    
   219  110  231 1    
   220  111  232 1    
   221  111  233 1    
   222  111  234 1    
   223  112  113 2    
   224  112  114 am   BACKBONE|DICT|INTERRES
   225  114  115 1    
   226  114  235 1    
   227  115  116 1    
   228  115  117 1    
   229  115  236 1    
   230  116  237 1    
   231  116  238 1    
   232  116  239 1    
   233  117  118 2    
   234  117  119 am   BACKBONE|DICT|INTERRES
   235  119  120 1    
   236  119  240 1    
   237  120  121 1    
   238  120  124 1    
   239  120  241 1    
   240  121  122 am   BACKBONE|DICT|INTERRES
   241  121  123 2    
   242  122  242 1    
   243  122  243 1    
   244  124  125 1    
   245  124  244 1    
   246  124  245 1    
   247  125  126 1    
   248  126  246 1    
   249  126  247 1    
@<TRIPOS>SUBSTRUCTURE
     1 UNK         1 GROUP             0       ****    0 ROOT    
