@<TRIPOS>MOLECULE
3R540
247   249    1
SMALL
USER_CHARGES


@<TRIPOS>ATOM
      1 CA         -2.4733  -12.6387  -50.9335 C.3       0 UNK        -0.1800 
      2 C          -1.6146  -13.8980  -51.0314 C.2       0 UNK         0.5000 
      3 O          -2.1648  -14.9951  -51.0653 O.2       0 UNK        -0.5000 
      4 N          -0.2777  -13.7963  -51.0872 N.am      1 UNK        -0.5000 
      5 CA          0.5185  -12.5614  -51.0357 C.3       1 UNK         0.1400 
      6 C6          1.8878  -12.7254  -51.7606 C.3       23 UNK        -0.0398 
      7 S7          3.2983  -13.3563  -50.7737 S.3       23 UNK        -0.2404 
      8 C8          3.3922  -15.1058  -51.2679 C.3       23 UNK        -0.0205 
      9 C9          2.2247  -15.9168  -50.7283 C.ar      23 UNK        -0.0193 
     10 C10         1.3579  -16.5747  -51.6055 C.ar      23 UNK        -0.1150 
     11 C11         0.2732  -17.3065  -51.1135 C.ar      23 UNK        -0.0193 
     12 C12         0.0626  -17.3827  -49.7343 C.ar      23 UNK        -0.1150 
     13 C13         0.9328  -16.7427  -48.8482 C.ar      23 UNK        -0.0193 
     14 C14         2.0124  -16.0128  -49.3495 C.ar      23 UNK        -0.1150 
     15 C15         0.7097  -16.8524  -47.3515 C.3       23 UNK        -0.0205 
     16 S16         1.6360  -18.2571  -46.6727 S.3       23 UNK        -0.2404 
     17 C17         0.5815  -18.6950  -45.2557 C.3       23 UNK        -0.0398 
     18 CA         -0.5128  -19.7098  -45.6607 C.3       11 UNK         0.1400 
     19 N           0.0356  -20.9401  -46.2370 N.am      11 UNK        -0.5000 
     20 C          -0.6701  -21.8470  -46.9238 C.2       10 UNK         0.5000 
     21 O          -1.8780  -21.7567  -47.1358 O.2       10 UNK        -0.5000 
     22 CA          0.0959  -23.0793  -47.4321 C.3       10 UNK         0.1400 
     23 CB          0.7913  -22.7653  -48.7648 C.3       10 UNK        -0.1800 
     24 N           1.0773  -23.5639  -46.4597 N.am      10 UNK        -0.5000 
     25 C           0.7524  -24.1070  -45.2774 C.2       9 UNK         0.5000 
     26 O          -0.4058  -24.2885  -44.9039 O.2       9 UNK        -0.5000 
     27 CA          1.9156  -24.4589  -44.3323 C.3       9 UNK         0.1400 
     28 CB          2.5060  -25.8315  -44.6884 C.3       9 UNK        -0.1800 
     29 N           2.9876  -23.4577  -44.3075 N.am      9 UNK        -0.5000 
     30 C           2.8243  -22.1730  -43.9660 C.2       8 UNK         0.5000 
     31 O           1.7269  -21.6619  -43.7281 O.2       8 UNK        -0.5000 
     32 CA          4.0938  -21.3051  -43.9107 C.3       8 UNK         0.1400 
     33 CB          4.4125  -20.7225  -45.2945 C.3       8 UNK        -0.1800 
     34 N           3.9228  -20.2093  -42.9575 N.am      8 UNK        -0.5000 
     35 C           3.9419  -20.3597  -41.6272 C.2       7 UNK         0.5000 
     36 O           4.2453  -21.4197  -41.0762 O.2       7 UNK        -0.5000 
     37 CA          3.5184  -19.1582  -40.7566 C.3       7 UNK         0.1400 
     38 CB          4.5051  -18.9059  -39.5977 C.3       7 UNK        -0.1800 
     39 N           3.2332  -17.9120  -41.4796 N.am      7 UNK        -0.5000 
     40 C           4.0948  -17.1053  -42.1213 C.2       6 UNK         0.5000 
     41 O           5.2766  -17.3849  -42.3215 O.2       6 UNK        -0.5000 
     42 CA          3.5510  -15.7444  -42.6130 C.3       6 UNK         0.1400 
     43 CB          3.2467  -15.7997  -44.1175 C.3       6 UNK        -0.1800 
     44 N           2.3477  -15.3028  -41.9012 N.am      6 UNK        -0.5000 
     45 C           2.2923  -15.0058  -40.5920 C.2       5 UNK         0.5000 
     46 O           3.2896  -14.9244  -39.8741 O.2       5 UNK        -0.5000 
     47 CA          0.8975  -14.8028  -39.9584 C.3       5 UNK         0.1400 
     48 CB          0.6372  -13.3101  -39.7037 C.3       5 UNK        -0.1800 
     49 N          -0.2145  -15.3417  -40.7459 N.am      5 UNK        -0.5000 
     50 C          -0.3797  -16.6151  -41.1341 C.2       4 UNK         0.5000 
     51 O           0.3630  -17.5359  -40.7929 O.2       4 UNK        -0.5000 
     52 CA         -1.5214  -16.8933  -42.1346 C.3       4 UNK         0.1400 
     53 CB         -2.7302  -17.5121  -41.4179 C.3       4 UNK        -0.1800 
     54 N          -1.9617  -15.7176  -42.8991 N.am      4 UNK        -0.5000 
     55 C          -1.1832  -14.9618  -43.6880 C.2       3 UNK         0.5000 
     56 O           0.0134  -15.1938  -43.8795 O.2       3 UNK        -0.5000 
     57 CA         -1.8443  -13.7033  -44.2861 C.3       3 UNK         0.1400 
     58 CB         -2.2690  -12.7301  -43.1716 C.3       3 UNK        -0.1800 
     59 N          -0.9425  -12.9894  -45.1890 N.am      3 UNK        -0.5000 
     60 C          -0.6831  -13.3453  -46.4505 C.2       2 UNK         0.5000 
     61 O          -1.2443  -14.2773  -47.0329 O.2       2 UNK        -0.5000 
     62 CA          0.3836  -12.5112  -47.1756 C.3       2 UNK         0.1400 
     63 CB          1.7939  -12.7857  -46.6217 C.3       2 UNK        -0.1800 
     64 N           0.3532  -12.8313  -48.5959 N.am      2 UNK        -0.5000 
     65 C           0.6412  -11.9966  -49.6005 C.2       1 UNK         0.5000 
     66 O           0.9770  -10.8226  -49.4383 O.2       1 UNK        -0.5000 
     67 C          -1.4449  -20.0190  -44.4785 C.2       11 UNK         0.5000 
     68 O          -2.5414  -19.4642  -44.4114 O.2       11 UNK        -0.5000 
     69 N          -1.0215  -20.9426  -43.6047 N.am      12 UNK        -0.5000 
     70 CA         -1.8119  -21.4732  -42.4915 C.3       12 UNK         0.1400 
     71 CB         -0.9269  -22.4019  -41.6475 C.3       12 UNK        -0.1800 
     72 C          -3.0885  -22.2035  -42.9559 C.2       12 UNK         0.5000 
     73 O          -4.1068  -22.1506  -42.2667 O.2       12 UNK        -0.5000 
     74 N          -3.0208  -22.8252  -44.1401 N.am      13 UNK        -0.5000 
     75 CA         -4.1376  -23.4555  -44.8420 C.3       13 UNK         0.1400 
     76 CB         -3.5886  -24.6116  -45.6950 C.3       13 UNK        -0.1800 
     77 C          -4.9638  -22.4685  -45.6974 C.2       13 UNK         0.5000 
     78 O          -5.7898  -22.9239  -46.4875 O.2       13 UNK        -0.5000 
     79 N          -4.7392  -21.1529  -45.5493 N.am      14 UNK        -0.5000 
     80 CA         -5.4243  -20.0525  -46.2374 C.3       14 UNK         0.1400 
     81 CB         -6.9113  -19.9901  -45.8293 C.3       14 UNK        -0.1800 
     82 C          -5.2189  -20.1036  -47.7637 C.2       14 UNK         0.5000 
     83 O          -6.1813  -20.2393  -48.5219 O.2       14 UNK        -0.5000 
     84 N          -3.9447  -20.0387  -48.1739 N.am      15 UNK        -0.5000 
     85 CA         -3.4500  -20.1622  -49.5504 C.3       15 UNK         0.1400 
     86 CB         -3.9288  -18.9805  -50.4201 C.3       15 UNK        -0.1800 
     87 C          -3.7761  -21.5423  -50.1556 C.2       15 UNK         0.5000 
     88 O          -4.1944  -21.6305  -51.3103 O.2       15 UNK        -0.5000 
     89 N          -3.6122  -22.5890  -49.3317 N.am      16 UNK        -0.5000 
     90 CA         -3.9542  -23.9903  -49.5990 C.3       16 UNK         0.1400 
     91 CB         -2.9691  -24.5944  -50.6204 C.3       16 UNK        -0.1800 
     92 C          -5.4373  -24.1653  -49.9956 C.2       16 UNK         0.5000 
     93 O          -5.7398  -24.7928  -51.0110 O.2       16 UNK        -0.5000 
     94 N          -6.3275  -23.5723  -49.1865 N.am      17 UNK        -0.5000 
     95 CA         -7.7726  -23.4396  -49.3895 C.3       17 UNK         0.1400 
     96 CB         -8.4698  -24.8147  -49.3226 C.3       17 UNK        -0.1800 
     97 C          -8.1110  -22.6375  -50.6641 C.2       17 UNK         0.5000 
     98 O          -8.9489  -23.0636  -51.4617 O.2       17 UNK        -0.5000 
     99 N          -7.4399  -21.4858  -50.8192 N.am      18 UNK        -0.5000 
    100 CA        -7.5288  -20.5391  -51.9358 C.3       18 UNK         0.1400 
    101 CB        -8.8781  -19.7926  -51.8970 C.3       18 UNK        -0.1800 
    102 C         -7.2307  -21.1852  -53.3062 C.2       18 UNK         0.5000 
    103 O         -7.9965  -21.0109  -54.2573 O.2       18 UNK        -0.5000 
    104 N         -6.1276  -21.9395  -53.3783 N.am      19 UNK        -0.5000 
    105 CA        -5.6690  -22.6171  -54.5870 C.3       19 UNK         0.1400 
    106 CB        -4.6190  -23.6735  -54.2111 C.3       19 UNK        -0.1800 
    107 C         -5.0687  -21.6243  -55.5940 C.2       19 UNK         0.5000 
    108 O         -4.2781  -20.7606  -55.2080 O.2       19 UNK        -0.5000 
    109 N         -5.3871  -21.8173  -56.8805 N.am      20 UNK        -0.5000 
    110 CA        -4.8201  -21.0586  -58.0017 C.3       20 UNK         0.1400 
    111 CB        -5.6255  -21.3696  -59.2726 C.3       20 UNK        -0.1800 
    112 C         -3.3193  -21.3382  -58.2294 C.2       20 UNK         0.5000 
    113 O         -2.6335  -20.5220  -58.8450 O.2       20 UNK        -0.5000 
    114 N         -2.8379  -22.4796  -57.7173 N.am      21 UNK        -0.5000 
    115 CA        -1.4331  -22.8837  -57.7142 C.3       21 UNK         0.1400 
    116 CB        -1.3587  -24.3896  -57.4157 C.3       21 UNK        -0.1800 
    117 C         -0.5667  -22.0942  -56.7109 C.2       21 UNK         0.5000 
    118 O          0.6579  -22.1121  -56.8438 O.2       21 UNK        -0.5000 
    119 N         -1.1929  -21.4347  -55.7246 N.am      22 UNK        -0.5000 
    120 CA        -0.5155  -20.5708  -54.7490 C.3       22 UNK         0.1400 
    121 C          0.0211  -19.2690  -55.4103 C.2       22 UNK         0.5000 
    122 N          1.2681  -18.8975  -55.1540 N.am      22 UNK        -0.7600 
    123 O         -0.6974  -18.5751  -56.1258 O.2       22 UNK        -0.5000 
    124 C124       -1.4345  -20.2657  -53.5371 C.3       23 UNK        -0.0398 
    125 S125       -0.4817  -19.7990  -52.0518 S.3       23 UNK        -0.2404 
    126 C126       -0.6867  -17.9902  -52.0720 C.3       23 UNK        -0.0205 
    127 H127       -2.3380  -12.0061  -51.8105 H         1 UNK         0.0600 
    128 H128       -2.2312  -12.0643  -50.0399 H         1 UNK         0.0600 
    129 H129       -3.5295  -12.9029  -50.8774 H         1 UNK         0.0600 
    130 H130        0.2623  -14.6509  -51.1276 H         1 UNK         0.3000 
    131 H131       -0.0253  -11.8064  -51.6057 H         1 UNK         0.0600 
    132 H132        1.7710  -13.3328  -52.6592 H         1 UNK         0.0800 
    133 H133        2.1983  -11.7456  -52.1267 H         1 UNK         0.0800 
    134 H134        4.3197  -15.5300  -50.8812 H         1 UNK         0.0800 
    135 H135        3.4541  -15.1731  -52.3552 H         1 UNK         0.0800 
    136 H136        1.5209  -16.5109  -52.6725 H         1 UNK         0.1150 
    137 H137       -0.7761  -17.9477  -49.3526 H         1 UNK         0.1150 
    138 H138        2.6873  -15.5158  -48.6666 H         1 UNK         0.1150 
    139 H139        1.0232  -15.9400  -46.8443 H         1 UNK         0.0800 
    140 H140       -0.3566  -16.9640  -47.1492 H         1 UNK         0.0800 
    141 H141        0.1400  -17.7824  -44.8528 H         1 UNK         0.0800 
    142 H142        1.2182  -19.1002  -44.4678 H         1 UNK         0.0800 
    143 H143       -1.1278  -19.2394  -46.4311 H         1 UNK         0.0600 
    144 H144        1.0157  -21.1115  -46.0708 H         1 UNK         0.3000 
    145 H145       -0.6320  -23.8742  -47.6083 H         1 UNK         0.0600 
    146 H146        1.5472  -21.9867  -48.6537 H         1 UNK         0.0600 
    147 H147        1.2777  -23.6508  -49.1740 H         1 UNK         0.0600 
    148 H148        0.0711  -22.4188  -49.5080 H         1 UNK         0.0600 
    149 H149        2.0533  -23.4463  -46.6884 H         1 UNK         0.3000 
    150 H150        1.5044  -24.5196  -43.3225 H         1 UNK         0.0600 
    151 H151        1.7311  -26.5994  -44.6976 H         1 UNK         0.0600 
    152 H152        3.2566  -26.1393  -43.9602 H         1 UNK         0.0600 
    153 H153        2.9749  -25.8263  -45.6731 H         1 UNK         0.0600 
    154 H154        3.9187  -23.7958  -44.5040 H         1 UNK         0.3000 
    155 H155        4.9339  -21.9249  -43.5903 H         1 UNK         0.0600 
    156 H156        4.5884  -21.5144  -46.0235 H         1 UNK         0.0600 
    157 H157        5.3096  -20.1037  -45.2648 H         1 UNK         0.0600 
    158 H158        3.5957  -20.1083  -45.6694 H         1 UNK         0.0600 
    159 H159        3.6487  -19.3141  -43.3313 H         1 UNK         0.3000 
    160 H160        2.5669  -19.4498  -40.3095 H         1 UNK         0.0600 
    161 H161        4.1730  -18.0778  -38.9712 H         1 UNK         0.0600 
    162 H162        5.5062  -18.6724  -39.9606 H         1 UNK         0.0600 
    163 H163        4.5890  -19.7830  -38.9552 H         1 UNK         0.0600 
    164 H164        2.2730  -17.5951  -41.3858 H         1 UNK         0.3000 
    165 H165        4.3324  -15.0001  -42.4475 H         1 UNK         0.0600 
    166 H166        2.4484  -16.5084  -44.3359 H         1 UNK         0.0600 
    167 H167        2.9371  -14.8247  -44.4935 H         1 UNK         0.0600 
    168 H168        4.1243  -16.1057  -44.6882 H         1 UNK         0.0600 
    169 H169        1.4866  -15.3081  -42.4382 H         1 UNK         0.3000 
    170 H170        0.9015  -15.3220  -38.9980 H         1 UNK         0.0600 
    171 H171        0.5983  -12.7449  -40.6359 H         1 UNK         0.0600 
    172 H172       -0.3051  -13.1568  -39.1772 H         1 UNK         0.0600 
    173 H173        1.4253  -12.8741  -39.0882 H         1 UNK         0.0600 
    174 H174       -0.8805  -14.6653  -41.0868 H         1 UNK         0.3000 
    175 H175       -1.1391  -17.6233  -42.8469 H         1 UNK         0.0600 
    176 H176       -3.1980  -16.8040  -40.7329 H         1 UNK         0.0600 
    177 H177       -3.4849  -17.8411  -42.1327 H         1 UNK         0.0600 
    178 H178       -2.4359  -18.3861  -40.8354 H         1 UNK         0.0600 
    179 H179       -2.9315  -15.4588  -42.7870 H         1 UNK         0.3000 
    180 H180       -2.7323  -14.0151  -44.8401 H         1 UNK         0.0600 
    181 H181       -1.4197  -12.4215  -42.5604 H         1 UNK         0.0600 
    182 H182       -3.0074  -13.1787  -42.5064 H         1 UNK         0.0600 
    183 H183       -2.7234  -11.8308  -43.5882 H         1 UNK         0.0600 
    184 H184       -0.4108  -12.2363  -44.7783 H         1 UNK         0.3000 
    185 H185        0.1344  -11.4577  -47.0324 H         1 UNK         0.0600 
    186 H186        2.5387  -12.1638  -47.1185 H         1 UNK         0.0600 
    187 H187        1.8519  -12.5691  -45.5545 H         1 UNK         0.0600 
    188 H188        2.0860  -13.8262  -46.7618 H         1 UNK         0.0600 
    189 H189        0.0118  -13.7607  -48.8087 H         1 UNK         0.3000 
    190 H190       -0.0841  -21.3252  -43.7169 H         1 UNK         0.3000 
    191 H191       -2.1194  -20.6312  -41.8689 H         1 UNK         0.0600 
    192 H192       -0.5732  -23.2549  -42.2279 H         1 UNK         0.0600 
    193 H193       -0.0531  -21.8732  -41.2656 H         1 UNK         0.0600 
    194 H194       -1.4748  -22.7913  -40.7886 H         1 UNK         0.0600 
    195 H195       -2.1261  -22.8577  -44.6130 H         1 UNK         0.3000 
    196 H196       -4.8224  -23.8820  -44.1065 H         1 UNK         0.0600 
    197 H197       -3.0612  -25.3380  -45.0765 H         1 UNK         0.0600 
    198 H198       -2.8914  -24.2538  -46.4521 H         1 UNK         0.0600 
    199 H199       -4.3897  -25.1472  -46.2055 H         1 UNK         0.0600 
    200 H200       -4.0049  -20.8639  -44.9137 H         1 UNK         0.3000 
    201 H201       -4.9533  -19.1311  -45.8916 H         1 UNK         0.0600 
    202 H202       -7.3962  -19.1157  -46.2646 H         1 UNK         0.0600 
    203 H203       -7.0192  -19.9166  -44.7472 H         1 UNK         0.0600 
    204 H204       -7.4659  -20.8678  -46.1625 H         1 UNK         0.0600 
    205 H205       -3.2262  -20.0639  -47.4620 H         1 UNK         0.3000 
    206 H206       -2.3616  -20.1103  -49.4970 H         1 UNK         0.0600 
    207 H207       -5.0145  -18.9121  -50.4610 H         1 UNK         0.0600 
    208 H208       -3.5758  -19.0789  -51.4467 H         1 UNK         0.0600 
    209 H209       -3.5506  -18.0336  -50.0348 H         1 UNK         0.0600 
    210 H210       -3.2363  -22.3889  -48.4098 H         1 UNK         0.3000 
    211 H211       -3.8249  -24.5299  -48.6611 H         1 UNK         0.0600 
    212 H212       -1.9390  -24.4949  -50.2781 H         1 UNK         0.0600 
    213 H213       -3.1616  -25.6575  -50.7684 H         1 UNK         0.0600 
    214 H214       -3.0456  -24.1090  -51.5929 H         1 UNK         0.0600 
    215 H215       -5.9831  -23.1292  -48.3376 H         1 UNK         0.3000 
    216 H216       -8.1396  -22.8460  -48.5508 H         1 UNK         0.0600 
    217 H217       -9.5543  -24.7020  -49.3462 H         1 UNK         0.0600 
    218 H218       -8.1906  -25.4551  -50.1595 H         1 UNK         0.0600 
    219 H219       -8.2183  -25.3383  -48.4003 H         1 UNK         0.0600 
    220 H220       -6.8037  -21.2103  -50.0752 H         1 UNK         0.3000 
    221 H221       -6.7426  -19.8017  -51.7747 H         1 UNK         0.0600 
    222 H222       -9.7182  -20.4644  -52.0757 H         1 UNK         0.0600 
    223 H223       -9.0329  -19.3113  -50.9313 H         1 UNK         0.0600 
    224 H224       -8.9150  -19.0117  -52.6574 H         1 UNK         0.0600 
    225 H225       -5.5023  -21.9714  -52.5750 H         1 UNK         0.3000 
    226 H226       -6.5212  -23.1249  -55.0436 H         1 UNK         0.0600 
    227 H227       -4.2619  -24.2064  -55.0930 H         1 UNK         0.0600 
    228 H228       -3.7526  -23.2218  -53.7263 H         1 UNK         0.0600 
    229 H229       -5.0341  -24.4174  -53.5322 H         1 UNK         0.0600 
    230 H230       -6.0421  -22.5479  -57.1206 H         1 UNK         0.3000 
    231 H231       -4.9247  -19.9944  -57.7802 H         1 UNK         0.0600 
    232 H232       -5.2501  -20.7983  -60.1228 H         1 UNK         0.0600 
    233 H233       -6.6767  -21.1092  -59.1475 H         1 UNK         0.0600 
    234 H234       -5.5690  -22.4263  -59.5369 H         1 UNK         0.0600 
    235 H235       -3.4844  -23.0972  -57.2504 H         1 UNK         0.3000 
    236 H236       -1.0221  -22.7104  -58.7110 H         1 UNK         0.0600 
    237 H237       -1.9136  -24.9670  -58.1554 H         1 UNK         0.0600 
    238 H238       -0.3267  -24.7426  -57.4387 H         1 UNK         0.0600 
    239 H239       -1.7640  -24.6253  -56.4308 H         1 UNK         0.0600 
    240 H240       -2.2043  -21.4104  -55.7120 H         1 UNK         0.3000 
    241 H241        0.3390  -21.1416  -54.3788 H         1 UNK         0.0600 
    242 H242        1.6243  -18.0536  -55.5740 H         1 UNK         0.3800 
    243 H243        1.8691  -19.4472  -54.5599 H         1 UNK         0.3800 
    244 H244       -2.1771  -19.5022  -53.7769 H         1 UNK         0.0800 
    245 H245       -2.0067  -21.1559  -53.2703 H         1 UNK         0.0800 
    246 H246       -1.7095  -17.7279  -51.8037 H         1 UNK         0.0800 
    247 H247       -0.5352  -17.6126  -53.0836 H         1 UNK         0.0800 
@<TRIPOS>BOND
     1    1    2 1    
     2    1  127 1    
     3    1  128 1    
     4    1  129 1    
     5    2    3 2    
     6    2    4 am   BACKBONE|DICT|INTERRES
     7    4    5 1    
     8    4  130 1    
     9    5    6 1    
    10    5   65 1    
    11    5  131 1    
    12    6    7 1    
    13    6  132 1    
    14    6  133 1    
    15    7    8 1    
    16    8    9 1    
    17    8  134 1    
    18    8  135 1    
    19    9   10 ar   
    20    9   14 ar   
    21   10   11 ar   
    22   10  136 1    
    23   11   12 ar   
    24   11  126 1    
    25   12   13 ar   
    26   12  137 1    
    27   13   14 ar   
    28   13   15 1    
    29   14  138 1    
    30   15   16 1    
    31   15  139 1    
    32   15  140 1    
    33   16   17 1    
    34   17   18 1    
    35   17  141 1    
    36   17  142 1    
    37   18   19 1    
    38   18   67 1    
    39   18  143 1    
    40   19   20 am   BACKBONE|DICT|INTERRES
    41   19  144 1    
    42   20   21 2    
    43   20   22 1    
    44   22   23 1    
    45   22   24 1    
    46   22  145 1    
    47   23  146 1    
    48   23  147 1    
    49   23  148 1    
    50   24   25 am   BACKBONE|DICT|INTERRES
    51   24  149 1    
    52   25   26 2    
    53   25   27 1    
    54   27   28 1    
    55   27   29 1    
    56   27  150 1    
    57   28  151 1    
    58   28  152 1    
    59   28  153 1    
    60   29   30 am   BACKBONE|DICT|INTERRES
    61   29  154 1    
    62   30   31 2    
    63   30   32 1    
    64   32   33 1    
    65   32   34 1    
    66   32  155 1    
    67   33  156 1    
    68   33  157 1    
    69   33  158 1    
    70   34   35 am   BACKBONE|DICT|INTERRES
    71   34  159 1    
    72   35   36 2    
    73   35   37 1    
    74   37   38 1    
    75   37   39 1    
    76   37  160 1    
    77   38  161 1    
    78   38  162 1    
    79   38  163 1    
    80   39   40 am   BACKBONE|DICT|INTERRES
    81   39  164 1    
    82   40   41 2    
    83   40   42 1    
    84   42   43 1    
    85   42   44 1    
    86   42  165 1    
    87   43  166 1    
    88   43  167 1    
    89   43  168 1    
    90   44   45 am   BACKBONE|DICT|INTERRES
    91   44  169 1    
    92   45   46 2    
    93   45   47 1    
    94   47   48 1    
    95   47   49 1    
    96   47  170 1    
    97   48  171 1    
    98   48  172 1    
    99   48  173 1    
   100   49   50 am   BACKBONE|DICT|INTERRES
   101   49  174 1    
   102   50   51 2    
   103   50   52 1    
   104   52   53 1    
   105   52   54 1    
   106   52  175 1    
   107   53  176 1    
   108   53  177 1    
   109   53  178 1    
   110   54   55 am   BACKBONE|DICT|INTERRES
   111   54  179 1    
   112   55   56 2    
   113   55   57 1    
   114   57   58 1    
   115   57   59 1    
   116   57  180 1    
   117   58  181 1    
   118   58  182 1    
   119   58  183 1    
   120   59   60 am   BACKBONE|DICT|INTERRES
   121   59  184 1    
   122   60   61 2    
   123   60   62 1    
   124   62   63 1    
   125   62   64 1    
   126   62  185 1    
   127   63  186 1    
   128   63  187 1    
   129   63  188 1    
   130   64   65 am   BACKBONE|DICT|INTERRES
   131   64  189 1    
   132   65   66 2    
   133   67   68 2    
   134   67   69 am   BACKBONE|DICT|INTERRES
   135   69   70 1    
   136   69  190 1    
   137   70   71 1    
   138   70   72 1    
   139   70  191 1    
   140   71  192 1    
   141   71  193 1    
   142   71  194 1    
   143   72   73 2    
   144   72   74 am   BACKBONE|DICT|INTERRES
   145   74   75 1    
   146   74  195 1    
   147   75   76 1    
   148   75   77 1    
   149   75  196 1    
   150   76  197 1    
   151   76  198 1    
   152   76  199 1    
   153   77   78 2    
   154   77   79 am   BACKBONE|DICT|INTERRES
   155   79   80 1    
   156   79  200 1    
   157   80   81 1    
   158   80   82 1    
   159   80  201 1    
   160   81  202 1    
   161   81  203 1    
   162   81  204 1    
   163   82   83 2    
   164   82   84 am   BACKBONE|DICT|INTERRES
   165   84   85 1    
   166   84  205 1    
   167   85   86 1    
   168   85   87 1    
   169   85  206 1    
   170   86  207 1    
   171   86  208 1    
   172   86  209 1    
   173   87   88 2    
   174   87   89 am   BACKBONE|DICT|INTERRES
   175   89   90 1    
   176   89  210 1    
   177   90   91 1    
   178   90   92 1    
   179   90  211 1    
   180   91  212 1    
   181   91  213 1    
   182   91  214 1    
   183   92   93 2    
   184   92   94 am   BACKBONE|DICT|INTERRES
   185   94   95 1    
   186   94  215 1    
   187   95   96 1    
   188   95   97 1    
   189   95  216 1    
   190   96  217 1    
   191   96  218 1    
   192   96  219 1    
   193   97   98 2    
   194   97   99 am   BACKBONE|DICT|INTERRES
   195   99  100 1    
   196   99  220 1    
   197  100  101 1    
   198  100  102 1    
   199  100  221 1    
   200  101  222 1    
   201  101  223 1    
   202  101  224 1    
   203  102  103 2    
   204  102  104 am   BACKBONE|DICT|INTERRES
   205  104  105 1    
   206  104  225 1    
   207  105  106 1    
   208  105  107 1    
   209  105  226 1    
   210  106  227 1    
   211  106  228 1    
   212  106  229 1    
   213  107  108 2    
   214  107  109 am   BACKBONE|DICT|INTERRES
   215  109  110 1    
   216  109  230 1    
   217  110  111 1    
   218  110  112 1    
   219  110  231 1    
   220  111  232 1    
   221  111  233 1    
   222  111  234 1    
   223  112  113 2    
   224  112  114 am   BACKBONE|DICT|INTERRES
   225  114  115 1    
   226  114  235 1    
   227  115  116 1    
   228  115  117 1    
   229  115  236 1    
   230  116  237 1    
   231  116  238 1    
   232  116  239 1    
   233  117  118 2    
   234  117  119 am   BACKBONE|DICT|INTERRES
   235  119  120 1    
   236  119  240 1    
   237  120  121 1    
   238  120  124 1    
   239  120  241 1    
   240  121  122 am   BACKBONE|DICT|INTERRES
   241  121  123 2    
   242  122  242 1    
   243  122  243 1    
   244  124  125 1    
   245  124  244 1    
   246  124  245 1    
   247  125  126 1    
   248  126  246 1    
   249  126  247 1    
@<TRIPOS>SUBSTRUCTURE
     1 UNK         1 GROUP             0       ****    0 ROOT    
