@<TRIPOS>MOLECULE
3R540
247   249    1
SMALL
USER_CHARGES


@<TRIPOS>ATOM
      1 CA         -2.6528  -18.7022  -43.9182 C.3       0 UNK        -0.1800 
      2 C          -3.3168  -17.7338  -44.8868 C.2       0 UNK         0.5000 
      3 O          -4.4849  -17.3940  -44.6996 O.2       0 UNK        -0.5000 
      4 N          -2.5794  -17.2898  -45.9169 N.am      1 UNK        -0.5000 
      5 CA         -3.0419  -16.3368  -46.9434 C.3       1 UNK         0.1400 
      6 C6         -2.0130  -16.1042  -48.0794 C.3       23 UNK        -0.0398 
      7 S7         -1.4359  -17.6325  -48.8888 S.3       23 UNK        -0.2404 
      8 C8          0.2420  -17.1268  -49.3876 C.3       23 UNK        -0.0205 
      9 C9          0.8653  -18.1488  -50.3219 C.ar      23 UNK        -0.0193 
     10 C10         0.5033  -18.1630  -51.6685 C.ar      23 UNK        -0.1150 
     11 C11         1.0139  -19.1192  -52.5494 C.ar      23 UNK        -0.0193 
     12 C12         1.9244  -20.0639  -52.0554 C.ar      23 UNK        -0.1150 
     13 C13         2.2960  -20.0684  -50.7062 C.ar      23 UNK        -0.0193 
     14 C14         1.7799  -19.0903  -49.8485 C.ar      23 UNK        -0.1150 
     15 C15         3.2288  -21.1586  -50.1852 C.3       23 UNK        -0.0205 
     16 S16         2.6725  -21.9415  -48.6291 S.3       23 UNK        -0.2404 
     17 C17         0.9046  -22.2819  -48.9601 C.3       23 UNK        -0.0398 
     18 CA          0.1296  -22.8056  -47.7260 C.3       11 UNK         0.1400 
     19 N           0.4341  -22.0277  -46.5170 N.am      11 UNK        -0.5000 
     20 C          -0.0908  -22.1769  -45.2939 C.2       10 UNK         0.5000 
     21 O          -0.9850  -22.9801  -45.0316 O.2       10 UNK        -0.5000 
     22 CA          0.4707  -21.2903  -44.1639 C.3       10 UNK         0.1400 
     23 CB          1.3490  -22.1440  -43.2346 C.3       10 UNK        -0.1800 
     24 N           1.2507  -20.1238  -44.5913 N.am      10 UNK        -0.5000 
     25 C           0.8441  -19.1160  -45.3747 C.2       9 UNK         0.5000 
     26 O          -0.2545  -19.0906  -45.9296 O.2       9 UNK        -0.5000 
     27 CA          1.8072  -17.9240  -45.5583 C.3       9 UNK         0.1400 
     28 CB          1.0472  -16.5873  -45.5104 C.3       9 UNK        -0.1800 
     29 N           2.8827  -17.8714  -44.5660 N.am      9 UNK        -0.5000 
     30 C           4.0280  -18.5648  -44.6010 C.2       8 UNK         0.5000 
     31 O           4.2907  -19.3983  -45.4669 O.2       8 UNK        -0.5000 
     32 CA          5.0309  -18.3040  -43.4646 C.3       8 UNK         0.1400 
     33 CB          5.8967  -17.0775  -43.7922 C.3       8 UNK        -0.1800 
     34 N           4.3437  -18.0729  -42.1929 N.am      8 UNK        -0.5000 
     35 C           4.3369  -18.9168  -41.1520 C.2       7 UNK         0.5000 
     36 O           4.9429  -19.9888  -41.1345 O.2       7 UNK        -0.5000 
     37 CA          3.5107  -18.4986  -39.9165 C.3       7 UNK         0.1400 
     38 CB          4.3924  -17.7395  -38.9134 C.3       7 UNK        -0.1800 
     39 N           2.3505  -17.6709  -40.2521 N.am      7 UNK        -0.5000 
     40 C           1.2808  -18.1068  -40.9297 C.2       6 UNK         0.5000 
     41 O           1.1098  -19.2842  -41.2405 O.2       6 UNK        -0.5000 
     42 CA          0.2334  -17.0644  -41.3656 C.3       6 UNK         0.1400 
     43 CB         -1.0322  -17.1727  -40.5029 C.3       6 UNK        -0.1800 
     44 N           0.6719  -15.6643  -41.3955 N.am      6 UNK        -0.5000 
     45 C           1.6965  -15.1622  -42.1000 C.2       5 UNK         0.5000 
     46 O           2.5480  -15.8622  -42.6484 O.2       5 UNK        -0.5000 
     47 CA          1.7810  -13.6338  -42.2549 C.3       5 UNK         0.1400 
     48 CB          1.7232  -13.2523  -43.7434 C.3       5 UNK        -0.1800 
     49 N           0.6927  -12.9406  -41.5642 N.am      5 UNK        -0.5000 
     50 C           0.8295  -12.2046  -40.4534 C.2       4 UNK         0.5000 
     51 O           1.8963  -12.0620  -39.8549 O.2       4 UNK        -0.5000 
     52 CA         -0.4309  -11.4928  -39.9212 C.3       4 UNK         0.1400 
     53 CB         -0.4165  -10.0103  -40.3251 C.3       4 UNK        -0.1800 
     54 N          -1.6827  -12.0933  -40.3863 N.am      4 UNK        -0.5000 
     55 C          -2.1737  -13.2618  -39.9534 C.2       3 UNK         0.5000 
     56 O          -1.6240  -13.9619  -39.1033 O.2       3 UNK        -0.5000 
     57 CA         -3.4806  -13.7445  -40.6107 C.3       3 UNK         0.1400 
     58 CB         -4.6979  -13.2056  -39.8443 C.3       3 UNK        -0.1800 
     59 N          -3.6058  -13.3869  -42.0289 N.am      3 UNK        -0.5000 
     60 C          -2.7729  -13.7947  -42.9947 C.2       2 UNK         0.5000 
     61 O          -1.7414  -14.4378  -42.7867 O.2       2 UNK        -0.5000 
     62 CA         -3.1338  -13.4161  -44.4341 C.3       2 UNK         0.1400 
     63 CB         -2.3457  -12.1804  -44.8976 C.3       2 UNK        -0.1800 
     64 N          -2.7974  -14.5628  -45.2650 N.am      2 UNK        -0.5000 
     65 C          -3.4612  -14.9708  -46.3517 C.2       1 UNK         0.5000 
     66 O          -4.3739  -14.3321  -46.8774 O.2       1 UNK        -0.5000 
     67 C          -1.3791  -22.8844  -48.0507 C.2       11 UNK         0.5000 
     68 O          -1.8418  -23.9107  -48.5512 O.2       11 UNK        -0.5000 
     69 N          -2.1322  -21.8273  -47.7105 N.am      12 UNK        -0.5000 
     70 CA         -3.5870  -21.7530  -47.8536 C.3       12 UNK         0.1400 
     71 CB         -4.0634  -20.3467  -47.4693 C.3       12 UNK        -0.1800 
     72 C          -4.3557  -22.8197  -47.0472 C.2       12 UNK         0.5000 
     73 O          -5.4478  -23.2050  -47.4635 O.2       12 UNK        -0.5000 
     74 N          -3.7699  -23.3241  -45.9492 N.am      13 UNK        -0.5000 
     75 CA         -4.3216  -24.4281  -45.1556 C.3       13 UNK         0.1400 
     76 CB         -3.5941  -24.5054  -43.8050 C.3       13 UNK        -0.1800 
     77 C          -4.2537  -25.7852  -45.8866 C.2       13 UNK         0.5000 
     78 O          -5.0436  -26.6777  -45.5784 O.2       13 UNK        -0.5000 
     79 N          -3.3431  -25.9025  -46.8630 N.am      14 UNK        -0.5000 
     80 CA         -3.2233  -27.0306  -47.7882 C.3       14 UNK         0.1400 
     81 CB         -1.7295  -27.3349  -47.9992 C.3       14 UNK        -0.1800 
     82 C          -3.9371  -26.7440  -49.1283 C.2       14 UNK         0.5000 
     83 O          -3.7137  -27.4683  -50.0983 O.2       14 UNK        -0.5000 
     84 N          -4.7619  -25.6845  -49.1642 N.am      15 UNK        -0.5000 
     85 CA         -5.5265  -25.1506  -50.2973 C.3       15 UNK         0.1400 
     86 CB         -6.4726  -26.2114  -50.8966 C.3       15 UNK        -0.1800 
     87 C          -4.6712  -24.4543  -51.3758 C.2       15 UNK         0.5000 
     88 O          -5.2235  -24.0099  -52.3817 O.2       15 UNK        -0.5000 
     89 N          -3.3602  -24.3074  -51.1464 N.am      16 UNK        -0.5000 
     90 CA         -2.4173  -23.6239  -52.0306 C.3       16 UNK         0.1400 
     91 CB         -1.0510  -24.3254  -51.9246 C.3       16 UNK        -0.1800 
     92 C          -2.3658  -22.1211  -51.6921 C.2       16 UNK         0.5000 
     93 O          -1.3106  -21.5948  -51.3437 O.2       16 UNK        -0.5000 
     94 N          -3.5352  -21.4747  -51.7468 N.am      17 UNK        -0.5000 
     95 CA         -3.7411  -20.0656  -51.4243 C.3       17 UNK         0.1400 
     96 CB         -5.2329  -19.8597  -51.1157 C.3       17 UNK        -0.1800 
     97 C          -3.2856  -19.1187  -52.5508 C.2       17 UNK         0.5000 
     98 O          -3.0815  -19.5439  -53.6908 O.2       17 UNK        -0.5000 
     99 N          -3.1891  -17.8278  -52.2054 N.am      18 UNK        -0.5000 
    100 CA        -2.7310  -16.7238  -53.0555 C.3       18 UNK         0.1400 
    101 CB        -2.5680  -15.4686  -52.1837 C.3       18 UNK        -0.1800 
    102 C         -3.5922  -16.4177  -54.2949 C.2       18 UNK         0.5000 
    103 O         -3.1215  -15.7054  -55.1824 O.2       18 UNK        -0.5000 
    104 N         -4.8031  -16.9827  -54.3825 N.am      19 UNK        -0.5000 
    105 CA        -5.7061  -16.9043  -55.5376 C.3       19 UNK         0.1400 
    106 CB        -7.1339  -17.2253  -55.0597 C.3       19 UNK        -0.1800 
    107 C         -5.2577  -17.8068  -56.7151 C.2       19 UNK         0.5000 
    108 O         -6.0856  -18.4913  -57.3176 O.2       19 UNK        -0.5000 
    109 N         -3.9446  -17.8187  -56.9915 N.am      20 UNK        -0.5000 
    110 CA        -3.2074  -18.6203  -57.9782 C.3       20 UNK         0.1400 
    111 CB        -3.6453  -18.2552  -59.4110 C.3       20 UNK        -0.1800 
    112 C         -3.2492  -20.1460  -57.7350 C.2       20 UNK         0.5000 
    113 O         -2.7747  -20.9084  -58.5795 O.2       20 UNK        -0.5000 
    114 N         -3.7900  -20.5793  -56.5887 N.am      21 UNK        -0.5000 
    115 CA        -4.0435  -21.9819  -56.2641 C.3       21 UNK         0.1400 
    116 CB        -5.0688  -22.0581  -55.1254 C.3       21 UNK        -0.1800 
    117 C         -2.7696  -22.7804  -55.9354 C.2       21 UNK         0.5000 
    118 O         -2.7970  -24.0082  -56.0260 O.2       21 UNK        -0.5000 
    119 N         -1.6735  -22.0874  -55.5948 N.am      22 UNK        -0.5000 
    120 CA        -0.3339  -22.6853  -55.4803 C.3       22 UNK         0.1400 
    121 C          0.3492  -23.0267  -56.8411 C.2       22 UNK         0.5000 
    122 N         -0.1966  -22.6324  -57.9874 N.am      22 UNK        -0.7600 
    123 O          1.3886  -23.6803  -56.8568 O.2       22 UNK        -0.5000 
    124 C124        0.5903  -21.8903  -54.5215 C.3       23 UNK        -0.0398 
    125 S125        1.2337  -20.3011  -55.1598 S.3       23 UNK        -0.2404 
    126 C126        0.5144  -19.0885  -53.9988 C.3       23 UNK        -0.0205 
    127 H127       -1.6230  -18.4098  -43.7220 H         1 UNK         0.0600 
    128 H128       -2.6538  -19.7123  -44.3274 H         1 UNK         0.0600 
    129 H129       -3.1814  -18.7171  -42.9650 H         1 UNK         0.0600 
    130 H130       -1.6599  -17.6966  -46.0634 H         1 UNK         0.3000 
    131 H131       -3.9355  -16.7753  -47.3925 H         1 UNK         0.0600 
    132 H132       -1.1520  -15.5491  -47.7057 H         1 UNK         0.0800 
    133 H133       -2.4530  -15.4759  -48.8561 H         1 UNK         0.0800 
    134 H134        0.8657  -16.9936  -48.5042 H         1 UNK         0.0800 
    135 H135        0.1998  -16.1575  -49.8865 H         1 UNK         0.0800 
    136 H136       -0.1988  -17.4271  -52.0216 H         1 UNK         0.1150 
    137 H137        2.3375  -20.8173  -52.7075 H         1 UNK         0.1150 
    138 H138        2.0583  -19.0899  -48.8046 H         1 UNK         0.1150 
    139 H139        4.2187  -20.7285  -50.0286 H         1 UNK         0.0800 
    140 H140        3.3492  -21.9447  -50.9322 H         1 UNK         0.0800 
    141 H141        0.4335  -21.3653  -49.3160 H         1 UNK         0.0800 
    142 H142        0.8422  -22.9935  -49.7838 H         1 UNK         0.0800 
    143 H143        0.4643  -23.8253  -47.5267 H         1 UNK         0.0600 
    144 H144        1.1639  -21.3387  -46.6261 H         1 UNK         0.3000 
    145 H145       -0.3807  -20.9195  -43.5904 H         1 UNK         0.0600 
    146 H146        0.7924  -22.9956  -42.8409 H         1 UNK         0.0600 
    147 H147        1.7045  -21.5707  -42.3792 H         1 UNK         0.0600 
    148 H148        2.2219  -22.5358  -43.7583 H         1 UNK         0.0600 
    149 H149        2.1754  -20.0475  -44.1947 H         1 UNK         0.3000 
    150 H150        2.2528  -18.0246  -46.5495 H         1 UNK         0.0600 
    151 H151        0.5347  -16.4460  -44.5594 H         1 UNK         0.0600 
    152 H152        0.2925  -16.5366  -46.2904 H         1 UNK         0.0600 
    153 H153        1.7208  -15.7437  -45.6599 H         1 UNK         0.0600 
    154 H154        2.7583  -17.1861  -43.8241 H         1 UNK         0.3000 
    155 H155        5.6874  -19.1738  -43.3957 H         1 UNK         0.0600 
    156 H156        6.6492  -16.9116  -43.0211 H         1 UNK         0.0600 
    157 H157        5.2967  -16.1700  -43.8743 H         1 UNK         0.0600 
    158 H158        6.4236  -17.2115  -44.7378 H         1 UNK         0.0600 
    159 H159        3.7852  -17.2266  -42.1344 H         1 UNK         0.3000 
    160 H160        3.1511  -19.4103  -39.4345 H         1 UNK         0.0600 
    161 H161        3.8405  -17.5015  -38.0038 H         1 UNK         0.0600 
    162 H162        4.7677  -16.8055  -39.3337 H         1 UNK         0.0600 
    163 H163        5.2559  -18.3385  -38.6211 H         1 UNK         0.0600 
    164 H164        2.4114  -16.6863  -40.0391 H         1 UNK         0.3000 
    165 H165       -0.0403  -17.3234  -42.3887 H         1 UNK         0.0600 
    166 H166       -1.8391  -16.5685  -40.9163 H         1 UNK         0.0600 
    167 H167       -1.3935  -18.2010  -40.4571 H         1 UNK         0.0600 
    168 H168       -0.8505  -16.8395  -39.4804 H         1 UNK         0.0600 
    169 H169        0.0305  -15.0018  -40.9836 H         1 UNK         0.3000 
    170 H170        2.7505  -13.3234  -41.8607 H         1 UNK         0.0600 
    171 H171        1.7826  -12.1721  -43.8768 H         1 UNK         0.0600 
    172 H172        0.8003  -13.5983  -44.2107 H         1 UNK         0.0600 
    173 H173        2.5554  -13.6918  -44.2949 H         1 UNK         0.0600 
    174 H174       -0.2284  -13.0487  -41.9704 H         1 UNK         0.3000 
    175 H175       -0.4046  -11.5500  -38.8309 H         1 UNK         0.0600 
    176 H176        0.4886   -9.5164  -39.9690 H         1 UNK         0.0600 
    177 H177       -0.4526   -9.8879  -41.4084 H         1 UNK         0.0600 
    178 H178       -1.2653   -9.4763  -39.8974 H         1 UNK         0.0600 
    179 H179       -2.1990  -11.5858  -41.0898 H         1 UNK         0.3000 
    180 H180       -3.4959  -14.8339  -40.5438 H         1 UNK         0.0600 
    181 H181       -4.7626  -12.1184  -39.9034 H         1 UNK         0.0600 
    182 H182       -4.6454  -13.4745  -38.7883 H         1 UNK         0.0600 
    183 H183       -5.6268  -13.6198  -40.2368 H         1 UNK         0.0600 
    184 H184       -4.4227  -12.8499  -42.2826 H         1 UNK         0.3000 
    185 H185       -4.2055  -13.2144  -44.4919 H         1 UNK         0.0600 
    186 H186       -2.5754  -11.3144  -44.2758 H         1 UNK         0.0600 
    187 H187       -1.2691  -12.3464  -44.8476 H         1 UNK         0.0600 
    188 H188       -2.5953  -11.9184  -45.9258 H         1 UNK         0.0600 
    189 H189       -2.0940  -15.1690  -44.8622 H         1 UNK         0.3000 
    190 H190       -1.6731  -21.0295  -47.2913 H         1 UNK         0.3000 
    191 H191       -3.8194  -21.9170  -48.9069 H         1 UNK         0.0600 
    192 H192       -3.5612  -19.5794  -48.0570 H         1 UNK         0.0600 
    193 H193       -5.1350  -20.2359  -47.6392 H         1 UNK         0.0600 
    194 H194       -3.8764  -20.1416  -46.4164 H         1 UNK         0.0600 
    195 H195       -2.8434  -23.0018  -45.6836 H         1 UNK         0.3000 
    196 H196       -5.3737  -24.2108  -44.9597 H         1 UNK         0.0600 
    197 H197       -2.5505  -24.7975  -43.9252 H         1 UNK         0.0600 
    198 H198       -4.0643  -25.2421  -43.1527 H         1 UNK         0.0600 
    199 H199       -3.6182  -23.5474  -43.2854 H         1 UNK         0.0600 
    200 H200       -2.7557  -25.1045  -47.0769 H         1 UNK         0.3000 
    201 H201       -3.6904  -27.9185  -47.3578 H         1 UNK         0.0600 
    202 H202       -1.5930  -28.2260  -48.6129 H         1 UNK         0.0600 
    203 H203       -1.2269  -27.5180  -47.0494 H         1 UNK         0.0600 
    204 H204       -1.2150  -26.5128  -48.4974 H         1 UNK         0.0600 
    205 H205       -4.8620  -25.1480  -48.3116 H         1 UNK         0.3000 
    206 H206       -6.1553  -24.3652  -49.8760 H         1 UNK         0.0600 
    207 H207       -7.0743  -26.6873  -50.1223 H         1 UNK         0.0600 
    208 H208       -7.1630  -25.7589  -51.6094 H         1 UNK         0.0600 
    209 H209       -5.9274  -26.9915  -51.4281 H         1 UNK         0.0600 
    210 H210       -2.9859  -24.6086  -50.2547 H         1 UNK         0.3000 
    211 H211       -2.7507  -23.7105  -53.0662 H         1 UNK         0.0600 
    212 H212       -0.2920  -23.8195  -52.5193 H         1 UNK         0.0600 
    213 H213       -1.1131  -25.3519  -52.2857 H         1 UNK         0.0600 
    214 H214       -0.6925  -24.3600  -50.8972 H         1 UNK         0.0600 
    215 H215       -4.3448  -21.9931  -52.0623 H         1 UNK         0.3000 
    216 H216       -3.1605  -19.8296  -50.5299 H         1 UNK         0.0600 
    217 H217       -5.4362  -18.8371  -50.7956 H         1 UNK         0.0600 
    218 H218       -5.5640  -20.5175  -50.3117 H         1 UNK         0.0600 
    219 H219       -5.8551  -20.0616  -51.9888 H         1 UNK         0.0600 
    220 H220       -3.3917  -17.5780  -51.2483 H         1 UNK         0.3000 
    221 H221       -1.7534  -16.9966  -53.4519 H         1 UNK         0.0600 
    222 H222       -1.8508  -15.6352  -51.3805 H         1 UNK         0.0600 
    223 H223       -2.2013  -14.6251  -52.7703 H         1 UNK         0.0600 
    224 H224       -3.5144  -15.1681  -51.7326 H         1 UNK         0.0600 
    225 H225       -5.0960  -17.5812  -53.6252 H         1 UNK         0.3000 
    226 H226       -5.7042  -15.8775  -55.9092 H         1 UNK         0.0600 
    227 H227       -7.4405  -16.5565  -54.2553 H         1 UNK         0.0600 
    228 H228       -7.2138  -18.2498  -54.6938 H         1 UNK         0.0600 
    229 H229       -7.8561  -17.1063  -55.8684 H         1 UNK         0.0600 
    230 H230       -3.3742  -17.1861  -56.4389 H         1 UNK         0.3000 
    231 H231       -2.1606  -18.3328  -57.8714 H         1 UNK         0.0600 
    232 H232       -4.6680  -18.5730  -59.6157 H         1 UNK         0.0600 
    233 H233       -3.0024  -18.7322  -60.1516 H         1 UNK         0.0600 
    234 H234       -3.5875  -17.1798  -59.5793 H         1 UNK         0.0600 
    235 H235       -4.0845  -19.8967  -55.9043 H         1 UNK         0.3000 
    236 H236       -4.4929  -22.4506  -57.1423 H         1 UNK         0.0600 
    237 H237       -4.6909  -21.6058  -54.2112 H         1 UNK         0.0600 
    238 H238       -5.9945  -21.5482  -55.3929 H         1 UNK         0.0600 
    239 H239       -5.3232  -23.0945  -54.9017 H         1 UNK         0.0600 
    240 H240       -1.7357  -21.0817  -55.5242 H         1 UNK         0.3000 
    241 H241       -0.4744  -23.6566  -55.0022 H         1 UNK         0.0600 
    242 H242       -1.0561  -22.0985  -58.0078 H         1 UNK         0.3800 
    243 H243        0.2584  -22.8697  -58.8546 H         1 UNK         0.3800 
    244 H244        1.4509  -22.5067  -54.2570 H         1 UNK         0.0800 
    245 H245        0.0669  -21.7094  -53.5837 H         1 UNK         0.0800 
    246 H246        0.6989  -18.0929  -54.4045 H         1 UNK         0.0800 
    247 H247       -0.5657  -19.2226  -53.9986 H         1 UNK         0.0800 
@<TRIPOS>BOND
     1    1    2 1    
     2    1  127 1    
     3    1  128 1    
     4    1  129 1    
     5    2    3 2    
     6    2    4 am   BACKBONE|DICT|INTERRES
     7    4    5 1    
     8    4  130 1    
     9    5    6 1    
    10    5   65 1    
    11    5  131 1    
    12    6    7 1    
    13    6  132 1    
    14    6  133 1    
    15    7    8 1    
    16    8    9 1    
    17    8  134 1    
    18    8  135 1    
    19    9   10 ar   
    20    9   14 ar   
    21   10   11 ar   
    22   10  136 1    
    23   11   12 ar   
    24   11  126 1    
    25   12   13 ar   
    26   12  137 1    
    27   13   14 ar   
    28   13   15 1    
    29   14  138 1    
    30   15   16 1    
    31   15  139 1    
    32   15  140 1    
    33   16   17 1    
    34   17   18 1    
    35   17  141 1    
    36   17  142 1    
    37   18   19 1    
    38   18   67 1    
    39   18  143 1    
    40   19   20 am   BACKBONE|DICT|INTERRES
    41   19  144 1    
    42   20   21 2    
    43   20   22 1    
    44   22   23 1    
    45   22   24 1    
    46   22  145 1    
    47   23  146 1    
    48   23  147 1    
    49   23  148 1    
    50   24   25 am   BACKBONE|DICT|INTERRES
    51   24  149 1    
    52   25   26 2    
    53   25   27 1    
    54   27   28 1    
    55   27   29 1    
    56   27  150 1    
    57   28  151 1    
    58   28  152 1    
    59   28  153 1    
    60   29   30 am   BACKBONE|DICT|INTERRES
    61   29  154 1    
    62   30   31 2    
    63   30   32 1    
    64   32   33 1    
    65   32   34 1    
    66   32  155 1    
    67   33  156 1    
    68   33  157 1    
    69   33  158 1    
    70   34   35 am   BACKBONE|DICT|INTERRES
    71   34  159 1    
    72   35   36 2    
    73   35   37 1    
    74   37   38 1    
    75   37   39 1    
    76   37  160 1    
    77   38  161 1    
    78   38  162 1    
    79   38  163 1    
    80   39   40 am   BACKBONE|DICT|INTERRES
    81   39  164 1    
    82   40   41 2    
    83   40   42 1    
    84   42   43 1    
    85   42   44 1    
    86   42  165 1    
    87   43  166 1    
    88   43  167 1    
    89   43  168 1    
    90   44   45 am   BACKBONE|DICT|INTERRES
    91   44  169 1    
    92   45   46 2    
    93   45   47 1    
    94   47   48 1    
    95   47   49 1    
    96   47  170 1    
    97   48  171 1    
    98   48  172 1    
    99   48  173 1    
   100   49   50 am   BACKBONE|DICT|INTERRES
   101   49  174 1    
   102   50   51 2    
   103   50   52 1    
   104   52   53 1    
   105   52   54 1    
   106   52  175 1    
   107   53  176 1    
   108   53  177 1    
   109   53  178 1    
   110   54   55 am   BACKBONE|DICT|INTERRES
   111   54  179 1    
   112   55   56 2    
   113   55   57 1    
   114   57   58 1    
   115   57   59 1    
   116   57  180 1    
   117   58  181 1    
   118   58  182 1    
   119   58  183 1    
   120   59   60 am   BACKBONE|DICT|INTERRES
   121   59  184 1    
   122   60   61 2    
   123   60   62 1    
   124   62   63 1    
   125   62   64 1    
   126   62  185 1    
   127   63  186 1    
   128   63  187 1    
   129   63  188 1    
   130   64   65 am   BACKBONE|DICT|INTERRES
   131   64  189 1    
   132   65   66 2    
   133   67   68 2    
   134   67   69 am   BACKBONE|DICT|INTERRES
   135   69   70 1    
   136   69  190 1    
   137   70   71 1    
   138   70   72 1    
   139   70  191 1    
   140   71  192 1    
   141   71  193 1    
   142   71  194 1    
   143   72   73 2    
   144   72   74 am   BACKBONE|DICT|INTERRES
   145   74   75 1    
   146   74  195 1    
   147   75   76 1    
   148   75   77 1    
   149   75  196 1    
   150   76  197 1    
   151   76  198 1    
   152   76  199 1    
   153   77   78 2    
   154   77   79 am   BACKBONE|DICT|INTERRES
   155   79   80 1    
   156   79  200 1    
   157   80   81 1    
   158   80   82 1    
   159   80  201 1    
   160   81  202 1    
   161   81  203 1    
   162   81  204 1    
   163   82   83 2    
   164   82   84 am   BACKBONE|DICT|INTERRES
   165   84   85 1    
   166   84  205 1    
   167   85   86 1    
   168   85   87 1    
   169   85  206 1    
   170   86  207 1    
   171   86  208 1    
   172   86  209 1    
   173   87   88 2    
   174   87   89 am   BACKBONE|DICT|INTERRES
   175   89   90 1    
   176   89  210 1    
   177   90   91 1    
   178   90   92 1    
   179   90  211 1    
   180   91  212 1    
   181   91  213 1    
   182   91  214 1    
   183   92   93 2    
   184   92   94 am   BACKBONE|DICT|INTERRES
   185   94   95 1    
   186   94  215 1    
   187   95   96 1    
   188   95   97 1    
   189   95  216 1    
   190   96  217 1    
   191   96  218 1    
   192   96  219 1    
   193   97   98 2    
   194   97   99 am   BACKBONE|DICT|INTERRES
   195   99  100 1    
   196   99  220 1    
   197  100  101 1    
   198  100  102 1    
   199  100  221 1    
   200  101  222 1    
   201  101  223 1    
   202  101  224 1    
   203  102  103 2    
   204  102  104 am   BACKBONE|DICT|INTERRES
   205  104  105 1    
   206  104  225 1    
   207  105  106 1    
   208  105  107 1    
   209  105  226 1    
   210  106  227 1    
   211  106  228 1    
   212  106  229 1    
   213  107  108 2    
   214  107  109 am   BACKBONE|DICT|INTERRES
   215  109  110 1    
   216  109  230 1    
   217  110  111 1    
   218  110  112 1    
   219  110  231 1    
   220  111  232 1    
   221  111  233 1    
   222  111  234 1    
   223  112  113 2    
   224  112  114 am   BACKBONE|DICT|INTERRES
   225  114  115 1    
   226  114  235 1    
   227  115  116 1    
   228  115  117 1    
   229  115  236 1    
   230  116  237 1    
   231  116  238 1    
   232  116  239 1    
   233  117  118 2    
   234  117  119 am   BACKBONE|DICT|INTERRES
   235  119  120 1    
   236  119  240 1    
   237  120  121 1    
   238  120  124 1    
   239  120  241 1    
   240  121  122 am   BACKBONE|DICT|INTERRES
   241  121  123 2    
   242  122  242 1    
   243  122  243 1    
   244  124  125 1    
   245  124  244 1    
   246  124  245 1    
   247  125  126 1    
   248  126  246 1    
   249  126  247 1    
@<TRIPOS>SUBSTRUCTURE
     1 UNK         1 GROUP             0       ****    0 ROOT    
