@<TRIPOS>MOLECULE
3R540
247   249    1
SMALL
USER_CHARGES


@<TRIPOS>ATOM
      1 CA          5.6322  -17.7091  -43.1006 C.3       0 UNK        -0.1800 
      2 C           4.5044  -17.0031  -43.8392 C.2       0 UNK         0.5000 
      3 O           3.3346  -17.2339  -43.5328 O.2       0 UNK        -0.5000 
      4 N           4.8511  -16.1675  -44.8238 N.am      1 UNK        -0.5000 
      5 CA          3.9167  -15.3311  -45.5759 C.3       1 UNK         0.1400 
      6 C6          4.3708  -15.1172  -47.0403 C.3       23 UNK        -0.0398 
      7 S7          4.1683  -16.6176  -48.0574 S.3       23 UNK        -0.2404 
      8 C8          2.7649  -16.1100  -49.1087 C.3       23 UNK        -0.0205 
      9 C9          2.3493  -17.1241  -50.1731 C.ar      23 UNK        -0.0193 
     10 C10         1.7737  -16.6501  -51.3538 C.ar      23 UNK        -0.1150 
     11 C11         1.3342  -17.5295  -52.3473 C.ar      23 UNK        -0.0193 
     12 C12         1.4976  -18.9059  -52.1604 C.ar      23 UNK        -0.1150 
     13 C13         2.0805  -19.4033  -50.9888 C.ar      23 UNK        -0.0193 
     14 C14         2.4946  -18.5058  -49.9989 C.ar      23 UNK        -0.1150 
     15 C15         2.3442  -20.8961  -50.8094 C.3       23 UNK        -0.0205 
     16 S16         0.9407  -21.9769  -51.2499 S.3       23 UNK        -0.2404 
     17 C17        -0.1634  -21.8132  -49.8095 C.3       23 UNK        -0.0398 
     18 CA          0.0168  -22.9630  -48.7880 C.3       11 UNK         0.1400 
     19 N           1.3459  -22.9786  -48.1710 N.am      11 UNK        -0.5000 
     20 C           1.8401  -24.0052  -47.4651 C.2       10 UNK         0.5000 
     21 O           1.2266  -25.0515  -47.2636 O.2       10 UNK        -0.5000 
     22 CA          3.2431  -23.8344  -46.8563 C.3       10 UNK         0.1400 
     23 CB          4.3113  -24.3519  -47.8309 C.3       10 UNK        -0.1800 
     24 N           3.5634  -22.4572  -46.4865 N.am      10 UNK        -0.5000 
     25 C           2.9181  -21.7194  -45.5727 C.2       9 UNK         0.5000 
     26 O           1.9505  -22.1265  -44.9257 O.2       9 UNK        -0.5000 
     27 CA          3.4286  -20.2756  -45.3602 C.3       9 UNK         0.1400 
     28 CB          4.6113  -19.8945  -46.2802 C.3       9 UNK        -0.1800 
     29 N           2.3834  -19.2525  -45.4747 N.am      9 UNK        -0.5000 
     30 C           1.4631  -19.1319  -46.4416 C.2       8 UNK         0.5000 
     31 O           1.2676  -19.9780  -47.3161 O.2       8 UNK        -0.5000 
     32 CA          0.6024  -17.8600  -46.3925 C.3       8 UNK         0.1400 
     33 CB         -0.4674  -17.8198  -47.4983 C.3       8 UNK        -0.1800 
     34 N          -0.0519  -17.7650  -45.0933 N.am      8 UNK        -0.5000 
     35 C          -0.0179  -16.7206  -44.2609 C.2       7 UNK         0.5000 
     36 O           0.6028  -15.6773  -44.4743 O.2       7 UNK        -0.5000 
     37 CA         -0.8919  -16.8733  -43.0083 C.3       7 UNK         0.1400 
     38 CB         -0.7494  -15.7141  -42.0078 C.3       7 UNK        -0.1800 
     39 N          -2.2820  -16.9689  -43.4395 N.am      7 UNK        -0.5000 
     40 C          -3.2097  -17.7793  -42.9157 C.2       6 UNK         0.5000 
     41 O          -2.9808  -18.5664  -41.9969 O.2       6 UNK        -0.5000 
     42 CA         -4.6391  -17.6997  -43.4952 C.3       6 UNK         0.1400 
     43 CB         -5.5800  -16.9998  -42.5019 C.3       6 UNK        -0.1800 
     44 N          -4.7135  -16.9977  -44.7777 N.am      6 UNK        -0.5000 
     45 C          -4.3034  -17.4969  -45.9512 C.2       5 UNK         0.5000 
     46 O          -3.8962  -18.6487  -46.0900 O.2       5 UNK        -0.5000 
     47 CA         -4.3280  -16.5444  -47.1669 C.3       5 UNK         0.1400 
     48 CB         -5.5477  -16.8341  -48.0562 C.3       5 UNK        -0.1800 
     49 N          -4.3154  -15.1171  -46.8188 N.am      5 UNK        -0.5000 
     50 C          -3.3215  -14.4950  -46.1700 C.2       4 UNK         0.5000 
     51 O          -2.3223  -15.0721  -45.7417 O.2       4 UNK        -0.5000 
     52 CA         -3.5203  -12.9986  -45.8768 C.3       4 UNK         0.1400 
     53 CB         -4.3117  -12.8210  -44.5710 C.3       4 UNK        -0.1800 
     54 N          -2.2479  -12.2871  -45.7501 N.am      4 UNK        -0.5000 
     55 C          -1.4283  -11.9945  -46.7693 C.2       3 UNK         0.5000 
     56 O          -1.6506  -12.2960  -47.9422 O.2       3 UNK        -0.5000 
     57 CA         -0.1529  -11.2203  -46.4093 C.3       3 UNK         0.1400 
     58 CB         -0.5163   -9.7614  -46.0523 C.3       3 UNK        -0.1800 
     59 N           0.5494  -11.9038  -45.3200 N.am      3 UNK        -0.5000 
     60 C           1.6929  -11.5144  -44.7382 C.2       2 UNK         0.5000 
     61 O           2.3183  -10.4988  -45.0433 O.2       2 UNK        -0.5000 
     62 CA          2.2558  -12.4484  -43.6550 C.3       2 UNK         0.1400 
     63 CB          1.2558  -12.6581  -42.5069 C.3       2 UNK        -0.1800 
     64 N           2.6119  -13.7346  -44.2491 N.am      2 UNK        -0.5000 
     65 C           3.7822  -13.9843  -44.8469 C.2       1 UNK         0.5000 
     66 O           4.7373  -13.2043  -44.8438 O.2       1 UNK        -0.5000 
     67 C          -1.0791  -22.9285  -47.7072 C.2       11 UNK         0.5000 
     68 O          -2.0330  -23.7034  -47.7826 O.2       11 UNK        -0.5000 
     69 N          -0.8900  -22.0786  -46.6883 N.am      12 UNK        -0.5000 
     70 CA         -1.7608  -22.0100  -45.5154 C.3       12 UNK         0.1400 
     71 CB         -1.4426  -20.7535  -44.6980 C.3       12 UNK        -0.1800 
     72 C          -1.6693  -23.2707  -44.6394 C.2       12 UNK         0.5000 
     73 O          -2.7045  -23.7722  -44.2022 O.2       12 UNK        -0.5000 
     74 N          -0.4468  -23.7820  -44.4291 N.am      13 UNK        -0.5000 
     75 CA         -0.1771  -24.9937  -43.6478 C.3       13 UNK         0.1400 
     76 CB          1.3380  -25.1701  -43.4745 C.3       13 UNK        -0.1800 
     77 C          -0.8047  -26.2641  -44.2542 C.2       13 UNK         0.5000 
     78 O          -1.3181  -27.1018  -43.5120 O.2       13 UNK        -0.5000 
     79 N          -0.7852  -26.3672  -45.5900 N.am      14 UNK        -0.5000 
     80 CA         -1.4313  -27.4353  -46.3562 C.3       14 UNK         0.1400 
     81 CB         -0.7996  -27.4877  -47.7568 C.3       14 UNK        -0.1800 
     82 C          -2.9602  -27.2694  -46.4754 C.2       14 UNK         0.5000 
     83 O          -3.6247  -28.1992  -46.9348 O.2       14 UNK        -0.5000 
     84 N          -3.4826  -26.0917  -46.0980 N.am      15 UNK        -0.5000 
     85 CA         -4.8656  -25.6319  -46.2668 C.3       15 UNK         0.1400 
     86 CB         -5.8412  -26.4707  -45.4158 C.3       15 UNK        -0.1800 
     87 C          -5.2781  -25.5366  -47.7518 C.2       15 UNK         0.5000 
     88 O          -6.4401  -25.7629  -48.0959 O.2       15 UNK        -0.5000 
     89 N          -4.3119  -25.1885  -48.6102 N.am      16 UNK        -0.5000 
     90 CA         -4.4710  -25.0048  -50.0461 C.3       16 UNK         0.1400 
     91 CB         -3.1402  -25.3503  -50.7384 C.3       16 UNK        -0.1800 
     92 C          -4.9194  -23.5606  -50.3135 C.2       16 UNK         0.5000 
     93 O          -4.1246  -22.7384  -50.7708 O.2       16 UNK        -0.5000 
     94 N          -6.1860  -23.2694  -49.9888 N.am      17 UNK        -0.5000 
     95 CA         -6.7989  -21.9392  -50.0524 C.3       17 UNK         0.1400 
     96 CB         -8.2609  -22.0321  -49.5923 C.3       17 UNK        -0.1800 
     97 C          -6.7080  -21.2674  -51.4352 C.2       17 UNK         0.5000 
     98 O          -6.4808  -20.0613  -51.5074 O.2       17 UNK        -0.5000 
     99 N          -6.8380  -22.0649  -52.5043 N.am      18 UNK        -0.5000 
    100 CA        -6.7016  -21.6171  -53.8914 C.3       18 UNK         0.1400 
    101 CB        -7.1822  -22.7336  -54.8305 C.3       18 UNK        -0.1800 
    102 C         -5.2659  -21.1881  -54.2522 C.2       18 UNK         0.5000 
    103 O         -5.0938  -20.2639  -55.0467 O.2       18 UNK        -0.5000 
    104 N         -4.2657  -21.8506  -53.6546 N.am      19 UNK        -0.5000 
    105 CA        -2.8516  -21.5136  -53.8110 C.3       19 UNK         0.1400 
    106 CB        -1.9848  -22.7408  -53.4904 C.3       19 UNK        -0.1800 
    107 C         -2.4675  -20.3194  -52.9240 C.2       19 UNK         0.5000 
    108 O         -1.7551  -19.4313  -53.3853 O.2       19 UNK        -0.5000 
    109 N         -2.9839  -20.3003  -51.6874 N.am      20 UNK        -0.5000 
    110 CA        -2.7735  -19.2452  -50.6951 C.3       20 UNK         0.1400 
    111 CB        -3.3365  -19.7191  -49.3488 C.3       20 UNK        -0.1800 
    112 C         -3.3934  -17.8903  -51.0907 C.2       20 UNK         0.5000 
    113 O         -2.8773  -16.8492  -50.6870 O.2       20 UNK        -0.5000 
    114 N         -4.4795  -17.9243  -51.8759 N.am      21 UNK        -0.5000 
    115 CA        -5.1014  -16.7534  -52.4992 C.3       21 UNK         0.1400 
    116 CB        -6.5199  -17.1262  -52.9569 C.3       21 UNK        -0.1800 
    117 C         -4.2845  -16.1898  -53.6817 C.2       21 UNK         0.5000 
    118 O         -4.4785  -15.0288  -54.0461 O.2       21 UNK        -0.5000 
    119 N         -3.3836  -17.0103  -54.2379 N.am      22 UNK        -0.5000 
    120 CA        -2.4380  -16.6993  -55.3215 C.3       22 UNK         0.1400 
    121 C         -3.1147  -16.4383  -56.7032 C.2       22 UNK         0.5000 
    122 N         -2.3584  -16.0367  -57.7174 N.am      22 UNK        -0.7600 
    123 O         -4.3139  -16.6323  -56.8922 O.2       22 UNK        -0.5000 
    124 C124       -1.3997  -15.6032  -54.9327 C.3       23 UNK        -0.0398 
    125 S125       -0.6626  -15.8384  -53.2782 S.3       23 UNK        -0.2404 
    126 C126        0.7042  -16.9909  -53.6274 C.3       23 UNK        -0.0205 
    127 H127        6.6115  -17.4194  -43.4828 H         1 UNK         0.0600 
    128 H128        5.5329  -18.7892  -43.2058 H         1 UNK         0.0600 
    129 H129        5.5951  -17.4641  -42.0391 H         1 UNK         0.0600 
    130 H130        5.8292  -16.0050  -45.0163 H         1 UNK         0.3000 
    131 H131        2.9372  -15.8065  -45.6007 H         1 UNK         0.0600 
    132 H132        5.4181  -14.8125  -47.0796 H         1 UNK         0.0800 
    133 H133        3.8097  -14.3021  -47.5014 H         1 UNK         0.0800 
    134 H134        1.9006  -15.8897  -48.4824 H         1 UNK         0.0800 
    135 H135        3.0372  -15.1731  -49.5976 H         1 UNK         0.0800 
    136 H136        1.6520  -15.5857  -51.4983 H         1 UNK         0.1150 
    137 H137        1.1780  -19.5922  -52.9319 H         1 UNK         0.1150 
    138 H138        2.9425  -18.8887  -49.0944 H         1 UNK         0.1150 
    139 H139        3.1894  -21.1639  -51.4443 H         1 UNK         0.0800 
    140 H140        2.6558  -21.1118  -49.7873 H         1 UNK         0.0800 
    141 H141       -1.1811  -21.8308  -50.2005 H         1 UNK         0.0800 
    142 H142       -0.0307  -20.8335  -49.3499 H         1 UNK         0.0800 
    143 H143       -0.1039  -23.9050  -49.3279 H         1 UNK         0.0600 
    144 H144        1.8724  -22.1178  -48.2166 H         1 UNK         0.3000 
    145 H145        3.2902  -24.4394  -45.9501 H         1 UNK         0.0600 
    146 H146        5.3049  -24.3170  -47.3838 H         1 UNK         0.0600 
    147 H147        4.1175  -25.3893  -48.1074 H         1 UNK         0.0600 
    148 H148        4.3347  -23.7662  -48.7509 H         1 UNK         0.0600 
    149 H149        4.3410  -22.0348  -46.9721 H         1 UNK         0.3000 
    150 H150        3.7820  -20.2351  -44.3295 H         1 UNK         0.0600 
    151 H151        5.4625  -20.5612  -46.1371 H         1 UNK         0.0600 
    152 H152        4.3323  -19.9196  -47.3343 H         1 UNK         0.0600 
    153 H153        4.9663  -18.8875  -46.0659 H         1 UNK         0.0600 
    154 H154        2.4329  -18.5193  -44.7735 H         1 UNK         0.3000 
    155 H155        1.2751  -17.0172  -46.5423 H         1 UNK         0.0600 
    156 H156       -1.1800  -18.6369  -47.3904 H         1 UNK         0.0600 
    157 H157       -0.0196  -17.9024  -48.4891 H         1 UNK         0.0600 
    158 H158       -1.0214  -16.8820  -47.4715 H         1 UNK         0.0600 
    159 H159       -0.5983  -18.5691  -44.8215 H         1 UNK         0.3000 
    160 H160       -0.5781  -17.7954  -42.5143 H         1 UNK         0.0600 
    161 H161       -1.1496  -14.7870  -42.4178 H         1 UNK         0.0600 
    162 H162        0.2954  -15.5464  -41.7441 H         1 UNK         0.0600 
    163 H163       -1.2886  -15.9269  -41.0848 H         1 UNK         0.0600 
    164 H164       -2.5209  -16.3787  -44.2316 H         1 UNK         0.3000 
    165 H165       -4.9913  -18.7234  -43.6384 H         1 UNK         0.0600 
    166 H166       -6.6068  -16.9930  -42.8683 H         1 UNK         0.0600 
    167 H167       -5.5843  -17.5118  -41.5388 H         1 UNK         0.0600 
    168 H168       -5.2793  -15.9666  -42.3230 H         1 UNK         0.0600 
    169 H169       -5.0429  -16.0445  -44.7538 H         1 UNK         0.3000 
    170 H170       -3.4285  -16.7448  -47.7513 H         1 UNK         0.0600 
    171 H171       -5.5874  -17.8865  -48.3399 H         1 UNK         0.0600 
    172 H172       -6.4826  -16.5971  -47.5471 H         1 UNK         0.0600 
    173 H173       -5.5086  -16.2552  -48.9792 H         1 UNK         0.0600 
    174 H174       -5.1159  -14.5788  -47.1178 H         1 UNK         0.3000 
    175 H175       -4.0867  -12.5518  -46.6967 H         1 UNK         0.0600 
    176 H176       -3.7865  -13.2564  -43.7194 H         1 UNK         0.0600 
    177 H177       -4.4846  -11.7665  -44.3548 H         1 UNK         0.0600 
    178 H178       -5.2891  -13.3010  -44.6340 H         1 UNK         0.0600 
    179 H179       -1.9844  -12.0036  -44.8184 H         1 UNK         0.3000 
    180 H180        0.4979  -11.2186  -47.2859 H         1 UNK         0.0600 
    181 H181        0.3649   -9.1226  -46.0081 H         1 UNK         0.0600 
    182 H182       -1.0263   -9.6954  -45.0907 H         1 UNK         0.0600 
    183 H183       -1.1770   -9.3271  -46.8040 H         1 UNK         0.0600 
    184 H184        0.1505  -12.7924  -45.0458 H         1 UNK         0.3000 
    185 H185        3.1475  -11.9810  -43.2315 H         1 UNK         0.0600 
    186 H186        1.6723  -13.3078  -41.7370 H         1 UNK         0.0600 
    187 H187        1.0052  -11.7089  -42.0320 H         1 UNK         0.0600 
    188 H188        0.3260  -13.1050  -42.8544 H         1 UNK         0.0600 
    189 H189        1.8770  -14.4415  -44.2905 H         1 UNK         0.3000 
    190 H190       -0.0646  -21.4896  -46.6947 H         1 UNK         0.3000 
    191 H191       -2.7922  -21.9262  -45.8657 H         1 UNK         0.0600 
    192 H192       -2.0459  -20.7132  -43.7900 H         1 UNK         0.0600 
    193 H193       -1.6769  -19.8637  -45.2774 H         1 UNK         0.0600 
    194 H194       -0.3939  -20.7155  -44.4012 H         1 UNK         0.0600 
    195 H195        0.3609  -23.2776  -44.7837 H         1 UNK         0.3000 
    196 H196       -0.6153  -24.8485  -42.6582 H         1 UNK         0.0600 
    197 H197        1.8286  -25.3621  -44.4277 H         1 UNK         0.0600 
    198 H198        1.7937  -24.2842  -43.0317 H         1 UNK         0.0600 
    199 H199        1.5587  -26.0130  -42.8185 H         1 UNK         0.0600 
    200 H200       -0.2780  -25.6723  -46.1302 H         1 UNK         0.3000 
    201 H201       -1.2412  -28.3886  -45.8589 H         1 UNK         0.0600 
    202 H202       -0.9571  -26.5556  -48.3018 H         1 UNK         0.0600 
    203 H203       -1.2285  -28.2935  -48.3537 H         1 UNK         0.0600 
    204 H204        0.2745  -27.6647  -47.6988 H         1 UNK         0.0600 
    205 H205       -2.8487  -25.4010  -45.7167 H         1 UNK         0.3000 
    206 H206       -4.8909  -24.6111  -45.8832 H         1 UNK         0.0600 
    207 H207       -5.5163  -26.5170  -44.3763 H         1 UNK         0.0600 
    208 H208       -6.8401  -26.0332  -45.4235 H         1 UNK         0.0600 
    209 H209       -5.9307  -27.4921  -45.7862 H         1 UNK         0.0600 
    210 H210       -3.4144  -24.8968  -48.2299 H         1 UNK         0.3000 
    211 H211       -5.2378  -25.6817  -50.4283 H         1 UNK         0.0600 
    212 H212       -3.2237  -25.2405  -51.8202 H         1 UNK         0.0600 
    213 H213       -2.8494  -26.3814  -50.5372 H         1 UNK         0.0600 
    214 H214       -2.3275  -24.7049  -50.4032 H         1 UNK         0.0600 
    215 H215       -6.7476  -24.0063  -49.5812 H         1 UNK         0.3000 
    216 H216       -6.2643  -21.3041  -49.3445 H         1 UNK         0.0600 
    217 H217       -8.8445  -22.6914  -50.2359 H         1 UNK         0.0600 
    218 H218       -8.7382  -21.0512  -49.6065 H         1 UNK         0.0600 
    219 H219       -8.3301  -22.4108  -48.5723 H         1 UNK         0.0600 
    220 H220       -7.0199  -23.0463  -52.3542 H         1 UNK         0.3000 
    221 H221       -7.3502  -20.7497  -54.0320 H         1 UNK         0.0600 
    222 H222       -8.2236  -22.9913  -54.6366 H         1 UNK         0.0600 
    223 H223       -6.5847  -23.6393  -54.7192 H         1 UNK         0.0600 
    224 H224       -7.1147  -22.4219  -55.8737 H         1 UNK         0.0600 
    225 H225       -4.4885  -22.5458  -52.9556 H         1 UNK         0.3000 
    226 H226       -2.6667  -21.2369  -54.8513 H         1 UNK         0.0600 
    227 H227       -2.0626  -23.0337  -52.4436 H         1 UNK         0.0600 
    228 H228       -2.2685  -23.5974  -54.1018 H         1 UNK         0.0600 
    229 H229       -0.9335  -22.5320  -53.6913 H         1 UNK         0.0600 
    230 H230       -3.5303  -21.1033  -51.3844 H         1 UNK         0.3000 
    231 H231       -1.6965  -19.0967  -50.5883 H         1 UNK         0.0600 
    232 H232       -4.4145  -19.8672  -49.3971 H         1 UNK         0.0600 
    233 H233       -3.1438  -18.9813  -48.5738 H         1 UNK         0.0600 
    234 H234       -2.8849  -20.6554  -49.0237 H         1 UNK         0.0600 
    235 H235       -4.9125  -18.8211  -52.0663 H         1 UNK         0.3000 
    236 H236       -5.1812  -15.9643  -51.7488 H         1 UNK         0.0600 
    237 H237       -7.1372  -17.4354  -52.1133 H         1 UNK         0.0600 
    238 H238       -7.0166  -16.2772  -53.4281 H         1 UNK         0.0600 
    239 H239       -6.5054  -17.9428  -53.6801 H         1 UNK         0.0600 
    240 H240       -3.2763  -17.9343  -53.8414 H         1 UNK         0.3000 
    241 H241       -1.8851  -17.6276  -55.4646 H         1 UNK         0.0600 
    242 H242       -2.7937  -15.8827  -58.6141 H         1 UNK         0.3800 
    243 H243       -1.3651  -15.8949  -57.6242 H         1 UNK         0.3800 
    244 H244       -1.8734  -14.6204  -54.9439 H         1 UNK         0.0800 
    245 H245       -0.5904  -15.5564  -55.6621 H         1 UNK         0.0800 
    246 H246        1.4675  -16.4822  -54.2172 H         1 UNK         0.0800 
    247 H247        0.3271  -17.8123  -54.2381 H         1 UNK         0.0800 
@<TRIPOS>BOND
     1    1    2 1    
     2    1  127 1    
     3    1  128 1    
     4    1  129 1    
     5    2    3 2    
     6    2    4 am   BACKBONE|DICT|INTERRES
     7    4    5 1    
     8    4  130 1    
     9    5    6 1    
    10    5   65 1    
    11    5  131 1    
    12    6    7 1    
    13    6  132 1    
    14    6  133 1    
    15    7    8 1    
    16    8    9 1    
    17    8  134 1    
    18    8  135 1    
    19    9   10 ar   
    20    9   14 ar   
    21   10   11 ar   
    22   10  136 1    
    23   11   12 ar   
    24   11  126 1    
    25   12   13 ar   
    26   12  137 1    
    27   13   14 ar   
    28   13   15 1    
    29   14  138 1    
    30   15   16 1    
    31   15  139 1    
    32   15  140 1    
    33   16   17 1    
    34   17   18 1    
    35   17  141 1    
    36   17  142 1    
    37   18   19 1    
    38   18   67 1    
    39   18  143 1    
    40   19   20 am   BACKBONE|DICT|INTERRES
    41   19  144 1    
    42   20   21 2    
    43   20   22 1    
    44   22   23 1    
    45   22   24 1    
    46   22  145 1    
    47   23  146 1    
    48   23  147 1    
    49   23  148 1    
    50   24   25 am   BACKBONE|DICT|INTERRES
    51   24  149 1    
    52   25   26 2    
    53   25   27 1    
    54   27   28 1    
    55   27   29 1    
    56   27  150 1    
    57   28  151 1    
    58   28  152 1    
    59   28  153 1    
    60   29   30 am   BACKBONE|DICT|INTERRES
    61   29  154 1    
    62   30   31 2    
    63   30   32 1    
    64   32   33 1    
    65   32   34 1    
    66   32  155 1    
    67   33  156 1    
    68   33  157 1    
    69   33  158 1    
    70   34   35 am   BACKBONE|DICT|INTERRES
    71   34  159 1    
    72   35   36 2    
    73   35   37 1    
    74   37   38 1    
    75   37   39 1    
    76   37  160 1    
    77   38  161 1    
    78   38  162 1    
    79   38  163 1    
    80   39   40 am   BACKBONE|DICT|INTERRES
    81   39  164 1    
    82   40   41 2    
    83   40   42 1    
    84   42   43 1    
    85   42   44 1    
    86   42  165 1    
    87   43  166 1    
    88   43  167 1    
    89   43  168 1    
    90   44   45 am   BACKBONE|DICT|INTERRES
    91   44  169 1    
    92   45   46 2    
    93   45   47 1    
    94   47   48 1    
    95   47   49 1    
    96   47  170 1    
    97   48  171 1    
    98   48  172 1    
    99   48  173 1    
   100   49   50 am   BACKBONE|DICT|INTERRES
   101   49  174 1    
   102   50   51 2    
   103   50   52 1    
   104   52   53 1    
   105   52   54 1    
   106   52  175 1    
   107   53  176 1    
   108   53  177 1    
   109   53  178 1    
   110   54   55 am   BACKBONE|DICT|INTERRES
   111   54  179 1    
   112   55   56 2    
   113   55   57 1    
   114   57   58 1    
   115   57   59 1    
   116   57  180 1    
   117   58  181 1    
   118   58  182 1    
   119   58  183 1    
   120   59   60 am   BACKBONE|DICT|INTERRES
   121   59  184 1    
   122   60   61 2    
   123   60   62 1    
   124   62   63 1    
   125   62   64 1    
   126   62  185 1    
   127   63  186 1    
   128   63  187 1    
   129   63  188 1    
   130   64   65 am   BACKBONE|DICT|INTERRES
   131   64  189 1    
   132   65   66 2    
   133   67   68 2    
   134   67   69 am   BACKBONE|DICT|INTERRES
   135   69   70 1    
   136   69  190 1    
   137   70   71 1    
   138   70   72 1    
   139   70  191 1    
   140   71  192 1    
   141   71  193 1    
   142   71  194 1    
   143   72   73 2    
   144   72   74 am   BACKBONE|DICT|INTERRES
   145   74   75 1    
   146   74  195 1    
   147   75   76 1    
   148   75   77 1    
   149   75  196 1    
   150   76  197 1    
   151   76  198 1    
   152   76  199 1    
   153   77   78 2    
   154   77   79 am   BACKBONE|DICT|INTERRES
   155   79   80 1    
   156   79  200 1    
   157   80   81 1    
   158   80   82 1    
   159   80  201 1    
   160   81  202 1    
   161   81  203 1    
   162   81  204 1    
   163   82   83 2    
   164   82   84 am   BACKBONE|DICT|INTERRES
   165   84   85 1    
   166   84  205 1    
   167   85   86 1    
   168   85   87 1    
   169   85  206 1    
   170   86  207 1    
   171   86  208 1    
   172   86  209 1    
   173   87   88 2    
   174   87   89 am   BACKBONE|DICT|INTERRES
   175   89   90 1    
   176   89  210 1    
   177   90   91 1    
   178   90   92 1    
   179   90  211 1    
   180   91  212 1    
   181   91  213 1    
   182   91  214 1    
   183   92   93 2    
   184   92   94 am   BACKBONE|DICT|INTERRES
   185   94   95 1    
   186   94  215 1    
   187   95   96 1    
   188   95   97 1    
   189   95  216 1    
   190   96  217 1    
   191   96  218 1    
   192   96  219 1    
   193   97   98 2    
   194   97   99 am   BACKBONE|DICT|INTERRES
   195   99  100 1    
   196   99  220 1    
   197  100  101 1    
   198  100  102 1    
   199  100  221 1    
   200  101  222 1    
   201  101  223 1    
   202  101  224 1    
   203  102  103 2    
   204  102  104 am   BACKBONE|DICT|INTERRES
   205  104  105 1    
   206  104  225 1    
   207  105  106 1    
   208  105  107 1    
   209  105  226 1    
   210  106  227 1    
   211  106  228 1    
   212  106  229 1    
   213  107  108 2    
   214  107  109 am   BACKBONE|DICT|INTERRES
   215  109  110 1    
   216  109  230 1    
   217  110  111 1    
   218  110  112 1    
   219  110  231 1    
   220  111  232 1    
   221  111  233 1    
   222  111  234 1    
   223  112  113 2    
   224  112  114 am   BACKBONE|DICT|INTERRES
   225  114  115 1    
   226  114  235 1    
   227  115  116 1    
   228  115  117 1    
   229  115  236 1    
   230  116  237 1    
   231  116  238 1    
   232  116  239 1    
   233  117  118 2    
   234  117  119 am   BACKBONE|DICT|INTERRES
   235  119  120 1    
   236  119  240 1    
   237  120  121 1    
   238  120  124 1    
   239  120  241 1    
   240  121  122 am   BACKBONE|DICT|INTERRES
   241  121  123 2    
   242  122  242 1    
   243  122  243 1    
   244  124  125 1    
   245  124  244 1    
   246  124  245 1    
   247  125  126 1    
   248  126  246 1    
   249  126  247 1    
@<TRIPOS>SUBSTRUCTURE
     1 UNK         1 GROUP             0       ****    0 ROOT    
