@<TRIPOS>MOLECULE
3R540
247   249    1
SMALL
USER_CHARGES


@<TRIPOS>ATOM
      1 CA          4.0013  -10.5903  -51.1638 C.3       0 UNK        -0.1800 
      2 C           3.4015  -11.3612  -49.9962 C.2       0 UNK         0.5000 
      3 O           3.2599  -10.8068  -48.9064 O.2       0 UNK        -0.5000 
      4 N           3.0561  -12.6361  -50.2202 N.am      1 UNK        -0.5000 
      5 CA          2.4314  -13.5260  -49.2334 C.3       1 UNK         0.1400 
      6 C6          2.4625  -15.0016  -49.7169 C.3       23 UNK        -0.0398 
      7 S7          2.3805  -16.2085  -48.3501 S.3       23 UNK        -0.2404 
      8 C8          4.0331  -16.9833  -48.4001 C.3       23 UNK        -0.0205 
      9 C9          4.1415  -18.2063  -49.3129 C.ar      23 UNK        -0.0193 
     10 C10         3.4122  -18.3154  -50.5055 C.ar      23 UNK        -0.1150 
     11 C11         3.5384  -19.4437  -51.3197 C.ar      23 UNK        -0.0193 
     12 C12         4.4177  -20.4628  -50.9482 C.ar      23 UNK        -0.1150 
     13 C13         5.1531  -20.3737  -49.7633 C.ar      23 UNK        -0.0193 
     14 C14         5.0125  -19.2427  -48.9539 C.ar      23 UNK        -0.1150 
     15 C15         6.0848  -21.5118  -49.3597 C.3       23 UNK        -0.0205 
     16 S16         5.3431  -22.6357  -48.1252 S.3       23 UNK        -0.2404 
     17 C17         3.7047  -22.9469  -48.8660 C.3       23 UNK        -0.0398 
     18 CA          2.8674  -24.0763  -48.2110 C.3       11 UNK         0.1400 
     19 N           2.9042  -24.0163  -46.7473 N.am      11 UNK        -0.5000 
     20 C           2.2031  -24.7681  -45.8867 C.2       10 UNK         0.5000 
     21 O           1.4619  -25.6926  -46.2181 O.2       10 UNK        -0.5000 
     22 CA          2.3052  -24.3839  -44.3982 C.3       10 UNK         0.1400 
     23 CB          3.3153  -25.2908  -43.6802 C.3       10 UNK        -0.1800 
     24 N           2.6611  -22.9810  -44.1511 N.am      10 UNK        -0.5000 
     25 C           2.0010  -21.9084  -44.6102 C.2       9 UNK         0.5000 
     26 O           1.0361  -21.9688  -45.3762 O.2       9 UNK        -0.5000 
     27 CA          2.5396  -20.5384  -44.1704 C.3       9 UNK         0.1400 
     28 CB          2.9783  -19.7118  -45.3912 C.3       9 UNK        -0.1800 
     29 N           1.5451  -19.7898  -43.4058 N.am      9 UNK        -0.5000 
     30 C           1.0668  -20.1361  -42.2022 C.2       8 UNK         0.5000 
     31 O           1.4228  -21.1431  -41.5889 O.2       8 UNK        -0.5000 
     32 CA          0.0302  -19.1958  -41.5641 C.3       8 UNK         0.1400 
     33 CB          0.7252  -17.9914  -40.9090 C.3       8 UNK        -0.1800 
     34 N          -0.9356  -18.7124  -42.5494 N.am      8 UNK        -0.5000 
     35 C          -2.1869  -19.1734  -42.6852 C.2       7 UNK         0.5000 
     36 O          -2.6760  -20.0414  -41.9614 O.2       7 UNK        -0.5000 
     37 CA         -3.0534  -18.5663  -43.8091 C.3       7 UNK         0.1400 
     38 CB         -4.0368  -17.5346  -43.2370 C.3       7 UNK        -0.1800 
     39 N          -2.2724  -17.9337  -44.8715 N.am      7 UNK        -0.5000 
     40 C          -1.5130  -18.6008  -45.7506 C.2       6 UNK         0.5000 
     41 O          -1.4734  -19.8265  -45.8149 O.2       6 UNK        -0.5000 
     42 CA         -0.6218  -17.7639  -46.6868 C.3       6 UNK         0.1400 
     43 CB         -1.2979  -17.5623  -48.0478 C.3       6 UNK        -0.1800 
     44 N          -0.2450  -16.4630  -46.1254 N.am      6 UNK        -0.5000 
     45 C           0.5124  -16.3026  -45.0300 C.2       5 UNK         0.5000 
     46 O           0.9485  -17.2414  -44.3672 O.2       5 UNK        -0.5000 
     47 CA          0.7839  -14.8685  -44.5515 C.3       5 UNK         0.1400 
     48 CB          2.1355  -14.3508  -45.0621 C.3       5 UNK        -0.1800 
     49 N          -0.2945  -13.9536  -44.9292 N.am      5 UNK        -0.5000 
     50 C          -1.4417  -13.8735  -44.2392 C.2       4 UNK         0.5000 
     51 O          -1.6840  -14.5499  -43.2387 O.2       4 UNK        -0.5000 
     52 CA         -2.5011  -12.8843  -44.7489 C.3       4 UNK         0.1400 
     53 CB         -2.0041  -11.4337  -44.6364 C.3       4 UNK        -0.1800 
     54 N          -2.9349  -13.1396  -46.1203 N.am      4 UNK        -0.5000 
     55 C          -3.5227  -14.2571  -46.5757 C.2       3 UNK         0.5000 
     56 O          -3.6836  -15.2755  -45.9042 O.2       3 UNK        -0.5000 
     57 CA         -4.0207  -14.2198  -48.0351 C.3       3 UNK         0.1400 
     58 CB         -5.5076  -13.8412  -48.0938 C.3       3 UNK        -0.1800 
     59 N          -3.2488  -13.2717  -48.8438 N.am      3 UNK        -0.5000 
     60 C          -2.0363  -13.5574  -49.3313 C.2       2 UNK         0.5000 
     61 O          -1.5760  -14.6989  -49.3356 O.2       2 UNK        -0.5000 
     62 CA         -1.2016  -12.3899  -49.9062 C.3       2 UNK         0.1400 
     63 CB         -1.4388  -11.0520  -49.1708 C.3       2 UNK        -0.1800 
     64 N           0.2309  -12.7074  -49.9336 N.am      2 UNK        -0.5000 
     65 C           0.9939  -13.0727  -48.8889 C.2       1 UNK         0.5000 
     66 O           0.6120  -13.0569  -47.7154 O.2       1 UNK        -0.5000 
     67 C           1.4332  -23.9746  -48.7721 C.2       11 UNK         0.5000 
     68 O           1.0933  -24.6861  -49.7180 O.2       11 UNK        -0.5000 
     69 N           0.6445  -23.0645  -48.1846 N.am      12 UNK        -0.5000 
     70 CA         -0.6970  -22.7119  -48.6298 C.3       12 UNK         0.1400 
     71 CB         -0.7485  -21.2044  -48.9046 C.3       12 UNK        -0.1800 
     72 C          -1.7627  -23.1055  -47.6022 C.2       12 UNK         0.5000 
     73 O          -2.8606  -23.4840  -48.0101 O.2       12 UNK        -0.5000 
     74 N          -1.4371  -23.0357  -46.3038 N.am      13 UNK        -0.5000 
     75 CA         -2.3586  -23.3228  -45.2044 C.3       13 UNK         0.1400 
     76 CB         -1.7046  -22.9333  -43.8704 C.3       13 UNK        -0.1800 
     77 C          -2.8261  -24.7885  -45.1746 C.2       13 UNK         0.5000 
     78 O          -4.0055  -25.0412  -44.9280 O.2       13 UNK        -0.5000 
     79 N          -1.9095  -25.7244  -45.4634 N.am      14 UNK        -0.5000 
     80 CA         -2.2049  -27.1579  -45.5424 C.3       14 UNK         0.1400 
     81 CB         -0.8983  -27.9540  -45.4098 C.3       14 UNK        -0.1800 
     82 C          -2.9377  -27.5403  -46.8427 C.2       14 UNK         0.5000 
     83 O          -3.6935  -28.5122  -46.8522 O.2       14 UNK        -0.5000 
     84 N          -2.7036  -26.7684  -47.9121 N.am      15 UNK        -0.5000 
     85 CA         -3.3155  -26.9504  -49.2292 C.3       15 UNK         0.1400 
     86 CB         -2.3745  -26.3494  -50.2864 C.3       15 UNK        -0.1800 
     87 C          -4.7136  -26.3105  -49.3404 C.2       15 UNK         0.5000 
     88 O          -5.4304  -26.6045  -50.2974 O.2       15 UNK        -0.5000 
     89 N          -5.0526  -25.4244  -48.3908 N.am      16 UNK        -0.5000 
     90 CA         -6.2117  -24.5241  -48.3772 C.3       16 UNK         0.1400 
     91 CB         -7.5381  -25.3098  -48.3187 C.3       16 UNK        -0.1800 
     92 C          -6.1666  -23.4863  -49.5221 C.2       16 UNK         0.5000 
     93 O          -7.2102  -23.0372  -49.9983 O.2       16 UNK        -0.5000 
     94 N          -4.9473  -23.1071  -49.9295 N.am      17 UNK        -0.5000 
     95 CA         -4.6691  -22.1522  -51.0037 C.3       17 UNK         0.1400 
     96 CB         -3.3542  -22.5418  -51.6955 C.3       17 UNK        -0.1800 
     97 C          -4.6116  -20.6977  -50.5031 C.2       17 UNK         0.5000 
     98 O          -4.4485  -19.7882  -51.3169 O.2       17 UNK        -0.5000 
     99 N          -4.7584  -20.4872  -49.1866 N.am      18 UNK        -0.5000 
    100 CA        -4.7968  -19.1747  -48.5374 C.3       18 UNK         0.1400 
    101 CB        -4.8798  -19.3666  -47.0175 C.3       18 UNK        -0.1800 
    102 C         -5.9506  -18.2862  -49.0357 C.2       18 UNK         0.5000 
    103 O         -5.7621  -17.0826  -49.2039 O.2       18 UNK        -0.5000 
    104 N         -7.0992  -18.9087  -49.3374 N.am      19 UNK        -0.5000 
    105 CA        -8.2713  -18.2652  -49.9385 C.3       19 UNK         0.1400 
    106 CB        -9.4505  -19.2489  -49.8971 C.3       19 UNK        -0.1800 
    107 C         -8.0305  -17.7731  -51.3814 C.2       19 UNK         0.5000 
    108 O         -8.7212  -16.8598  -51.8332 O.2       19 UNK        -0.5000 
    109 N         -7.0468  -18.3722  -52.0649 N.am      20 UNK        -0.5000 
    110 CA        -6.5760  -17.9934  -53.3963 C.3       20 UNK         0.1400 
    111 CB        -6.3581  -19.2770  -54.2168 C.3       20 UNK        -0.1800 
    112 C         -5.2829  -17.1544  -53.3283 C.2       20 UNK         0.5000 
    113 O         -4.6700  -16.9156  -54.3700 O.2       20 UNK        -0.5000 
    114 N         -4.8640  -16.7510  -52.1163 N.am      21 UNK        -0.5000 
    115 CA        -3.6569  -15.9772  -51.8021 C.3       21 UNK         0.1400 
    116 CB        -3.8058  -14.5338  -52.3292 C.3       21 UNK        -0.1800 
    117 C         -2.3445  -16.6533  -52.2614 C.2       21 UNK         0.5000 
    118 O         -1.3812  -15.9617  -52.5966 O.2       21 UNK        -0.5000 
    119 N         -2.3436  -17.9943  -52.3052 N.am      22 UNK        -0.5000 
    120 CA        -1.2875  -18.8311  -52.8993 C.3       22 UNK         0.1400 
    121 C         -1.1318  -18.6632  -54.4489 C.2       22 UNK         0.5000 
    122 N         -2.1058  -18.1087  -55.1628 N.am      22 UNK        -0.7600 
    123 O         -0.1275  -19.0603  -55.0323 O.2       22 UNK        -0.5000 
    124 C124        0.0523  -18.7397  -52.1094 C.3       23 UNK        -0.0398 
    125 S125        1.0689  -20.2533  -52.2599 S.3       23 UNK        -0.2404 
    126 C126        2.7243  -19.5740  -52.5982 C.3       23 UNK        -0.0205 
    127 H127        4.0756  -11.2049  -52.0614 H         1 UNK         0.0600 
    128 H128        5.0014  -10.2401  -50.9082 H         1 UNK         0.0600 
    129 H129        3.3842   -9.7225  -51.3965 H         1 UNK         0.0600 
    130 H130        3.2104  -13.0297  -51.1376 H         1 UNK         0.3000 
    131 H131        3.0278  -13.4517  -48.3215 H         1 UNK         0.0600 
    132 H132        3.3796  -15.1887  -50.2770 H         1 UNK         0.0800 
    133 H133        1.6490  -15.2100  -50.4149 H         1 UNK         0.0800 
    134 H134        4.7841  -16.2474  -48.6891 H         1 UNK         0.0800 
    135 H135        4.2755  -17.2771  -47.3776 H         1 UNK         0.0800 
    136 H136        2.7326  -17.5326  -50.8051 H         1 UNK         0.1150 
    137 H137        4.5161  -21.3375  -51.5757 H         1 UNK         0.1150 
    138 H138        5.5808  -19.1749  -48.0367 H         1 UNK         0.1150 
    139 H139        6.3728  -22.0925  -50.2374 H         1 UNK         0.0800 
    140 H140        7.0099  -21.1005  -48.9533 H         1 UNK         0.0800 
    141 H141        3.8416  -23.1646  -49.9268 H         1 UNK         0.0800 
    142 H142        3.1646  -21.9986  -48.8155 H         1 UNK         0.0800 
    143 H143        3.2833  -25.0414  -48.5061 H         1 UNK         0.0600 
    144 H144        3.4969  -23.2956  -46.3626 H         1 UNK         0.3000 
    145 H145        1.3226  -24.5533  -43.9553 H         1 UNK         0.0600 
    146 H146        3.3231  -25.1016  -42.6066 H         1 UNK         0.0600 
    147 H147        3.0650  -26.3434  -43.8204 H         1 UNK         0.0600 
    148 H148        4.3281  -25.1411  -44.0565 H         1 UNK         0.0600 
    149 H149        3.4405  -22.8311  -43.5268 H         1 UNK         0.3000 
    150 H150        3.4120  -20.6839  -43.5303 H         1 UNK         0.0600 
    151 H151        3.7512  -20.2308  -45.9599 H         1 UNK         0.0600 
    152 H152        3.3870  -18.7469  -45.0908 H         1 UNK         0.0600 
    153 H153        2.1467  -19.5233  -46.0702 H         1 UNK         0.0600 
    154 H154        1.2292  -18.9179  -43.8243 H         1 UNK         0.3000 
    155 H155       -0.4798  -19.7526  -40.7753 H         1 UNK         0.0600 
    156 H156        1.2646  -17.3863  -41.6385 H         1 UNK         0.0600 
    157 H157        1.4447  -18.3180  -40.1571 H         1 UNK         0.0600 
    158 H158        0.0029  -17.3457  -40.4091 H         1 UNK         0.0600 
    159 H159       -0.5932  -18.0297  -43.2142 H         1 UNK         0.3000 
    160 H160       -3.6318  -19.3818  -44.2474 H         1 UNK         0.0600 
    161 H161       -3.5149  -16.6801  -42.8046 H         1 UNK         0.0600 
    162 H162       -4.6559  -17.9742  -42.4539 H         1 UNK         0.0600 
    163 H163       -4.7083  -17.1602  -44.0100 H         1 UNK         0.0600 
    164 H164       -2.2981  -16.9228  -44.9157 H         1 UNK         0.3000 
    165 H165        0.2958  -18.3304  -46.8528 H         1 UNK         0.0600 
    166 H166       -0.6272  -17.0647  -48.7479 H         1 UNK         0.0600 
    167 H167       -1.5702  -18.5158  -48.4966 H         1 UNK         0.0600 
    168 H168       -2.2060  -16.9658  -47.9603 H         1 UNK         0.0600 
    169 H169       -0.5591  -15.6422  -46.6230 H         1 UNK         0.3000 
    170 H170        0.8503  -14.9009  -43.4616 H         1 UNK         0.0600 
    171 H171        2.9492  -14.9918  -44.7206 H         1 UNK         0.0600 
    172 H172        2.1789  -14.3276  -46.1479 H         1 UNK         0.0600 
    173 H173        2.3370  -13.3439  -44.6967 H         1 UNK         0.0600 
    174 H174       -0.1580  -13.4054  -45.7725 H         1 UNK         0.3000 
    175 H175       -3.3786  -12.9882  -44.1072 H         1 UNK         0.0600 
    176 H176       -1.1692  -11.2369  -45.3103 H         1 UNK         0.0600 
    177 H177       -2.7986  -10.7258  -44.8732 H         1 UNK         0.0600 
    178 H178       -1.6670  -11.2134  -43.6226 H         1 UNK         0.0600 
    179 H179       -2.8284  -12.3719  -46.7643 H         1 UNK         0.3000 
    180 H180       -3.9158  -15.2256  -48.4454 H         1 UNK         0.0600 
    181 H181       -5.6891  -12.8426  -47.6949 H         1 UNK         0.0600 
    182 H182       -6.1090  -14.5434  -47.5147 H         1 UNK         0.0600 
    183 H183       -5.8783  -13.8700  -49.1186 H         1 UNK         0.0600 
    184 H184       -3.6068  -12.3304  -48.9159 H         1 UNK         0.3000 
    185 H185       -1.5100  -12.2652  -50.9447 H         1 UNK         0.0600 
    186 H186       -2.4598  -10.6951  -49.3075 H         1 UNK         0.0600 
    187 H187       -1.2563  -11.1373  -48.0991 H         1 UNK         0.0600 
    188 H188       -0.7789  -10.2741  -49.5553 H         1 UNK         0.0600 
    189 H189        0.6432  -12.7600  -50.8534 H         1 UNK         0.3000 
    190 H190        0.9909  -22.5724  -47.3682 H         1 UNK         0.3000 
    191 H191       -0.9369  -23.2336  -49.5571 H         1 UNK         0.0600 
    192 H192       -0.1035  -20.9401  -49.7394 H         1 UNK         0.0600 
    193 H193       -1.7585  -20.8773  -49.1532 H         1 UNK         0.0600 
    194 H194       -0.4132  -20.6320  -48.0408 H         1 UNK         0.0600 
    195 H195       -0.5360  -22.6466  -46.0358 H         1 UNK         0.3000 
    196 H196       -3.2402  -22.6934  -45.3436 H         1 UNK         0.0600 
    197 H197       -2.3992  -23.0647  -43.0400 H         1 UNK         0.0600 
    198 H198       -1.3982  -21.8872  -43.8745 H         1 UNK         0.0600 
    199 H199       -0.8213  -23.5359  -43.6611 H         1 UNK         0.0600 
    200 H200       -0.9610  -25.4404  -45.6697 H         1 UNK         0.3000 
    201 H201       -2.8506  -27.4272  -44.7036 H         1 UNK         0.0600 
    202 H202       -0.3646  -27.6923  -44.4959 H         1 UNK         0.0600 
    203 H203       -0.2301  -27.7743  -46.2527 H         1 UNK         0.0600 
    204 H204       -1.0979  -29.0257  -45.3751 H         1 UNK         0.0600 
    205 H205       -2.0797  -25.9821  -47.8082 H         1 UNK         0.3000 
    206 H206       -3.4214  -28.0182  -49.4319 H         1 UNK         0.0600 
    207 H207       -1.3871  -26.8099  -50.2459 H         1 UNK         0.0600 
    208 H208       -2.7645  -26.5065  -51.2929 H         1 UNK         0.0600 
    209 H209       -2.2478  -25.2751  -50.1499 H         1 UNK         0.0600 
    210 H210       -4.3608  -25.2369  -47.6771 H         1 UNK         0.3000 
    211 H211       -6.1311  -23.9516  -47.4521 H         1 UNK         0.0600 
    212 H212       -7.7393  -25.8411  -49.2490 H         1 UNK         0.0600 
    213 H213       -8.3797  -24.6398  -48.1395 H         1 UNK         0.0600 
    214 H214       -7.5279  -26.0400  -47.5095 H         1 UNK         0.0600 
    215 H215       -4.1446  -23.4609  -49.4157 H         1 UNK         0.3000 
    216 H216       -5.4671  -22.2062  -51.7471 H         1 UNK         0.0600 
    217 H217       -3.1744  -21.9172  -52.5713 H         1 UNK         0.0600 
    218 H218       -3.3782  -23.5771  -52.0362 H         1 UNK         0.0600 
    219 H219       -2.4993  -22.4256  -51.0322 H         1 UNK         0.0600 
    220 H220       -4.8625  -21.2938  -48.5893 H         1 UNK         0.3000 
    221 H221       -3.8648  -18.6625  -48.7753 H         1 UNK         0.0600 
    222 H222       -5.8185  -19.8347  -46.7189 H         1 UNK         0.0600 
    223 H223       -4.0663  -19.9952  -46.6562 H         1 UNK         0.0600 
    224 H224       -4.8093  -18.4083  -46.5006 H         1 UNK         0.0600 
    225 H225       -7.1614  -19.9047  -49.1830 H         1 UNK         0.3000 
    226 H226       -8.5274  -17.3935  -49.3327 H         1 UNK         0.0600 
    227 H227       -9.6834  -19.5429  -48.8735 H         1 UNK         0.0600 
    228 H228      -10.3510  -18.7987  -50.3172 H         1 UNK         0.0600 
    229 H229       -9.2388  -20.1546  -50.4671 H         1 UNK         0.0600 
    230 H230       -6.4980  -19.0836  -51.6002 H         1 UNK         0.3000 
    231 H231       -7.3282  -17.3877  -53.9053 H         1 UNK         0.0600 
    232 H232       -7.2680  -19.8756  -54.2608 H         1 UNK         0.0600 
    233 H233       -5.5682  -19.8985  -53.7938 H         1 UNK         0.0600 
    234 H234       -6.0760  -19.0440  -55.2443 H         1 UNK         0.0600 
    235 H235       -5.4222  -17.0090  -51.3117 H         1 UNK         0.3000 
    236 H236       -3.6011  -15.9325  -50.7148 H         1 UNK         0.0600 
    237 H237       -2.9432  -13.9227  -52.0685 H         1 UNK         0.0600 
    238 H238       -3.8990  -14.5062  -53.4150 H         1 UNK         0.0600 
    239 H239       -4.6849  -14.0505  -51.9032 H         1 UNK         0.0600 
    240 H240       -3.1800  -18.4917  -52.0116 H         1 UNK         0.3000 
    241 H241       -1.6638  -19.8469  -52.7750 H         1 UNK         0.0600 
    242 H242       -1.9880  -18.0184  -56.1591 H         1 UNK         0.3800 
    243 H243       -2.9486  -17.7447  -54.7289 H         1 UNK         0.3800 
    244 H244       -0.1499  -18.6046  -51.0459 H         1 UNK         0.0800 
    245 H245        0.6160  -17.8582  -52.4164 H         1 UNK         0.0800 
    246 H246        2.6554  -18.6129  -53.1091 H         1 UNK         0.0800 
    247 H247        3.2336  -20.2423  -53.2941 H         1 UNK         0.0800 
@<TRIPOS>BOND
     1    1    2 1    
     2    1  127 1    
     3    1  128 1    
     4    1  129 1    
     5    2    3 2    
     6    2    4 am   BACKBONE|DICT|INTERRES
     7    4    5 1    
     8    4  130 1    
     9    5    6 1    
    10    5   65 1    
    11    5  131 1    
    12    6    7 1    
    13    6  132 1    
    14    6  133 1    
    15    7    8 1    
    16    8    9 1    
    17    8  134 1    
    18    8  135 1    
    19    9   10 ar   
    20    9   14 ar   
    21   10   11 ar   
    22   10  136 1    
    23   11   12 ar   
    24   11  126 1    
    25   12   13 ar   
    26   12  137 1    
    27   13   14 ar   
    28   13   15 1    
    29   14  138 1    
    30   15   16 1    
    31   15  139 1    
    32   15  140 1    
    33   16   17 1    
    34   17   18 1    
    35   17  141 1    
    36   17  142 1    
    37   18   19 1    
    38   18   67 1    
    39   18  143 1    
    40   19   20 am   BACKBONE|DICT|INTERRES
    41   19  144 1    
    42   20   21 2    
    43   20   22 1    
    44   22   23 1    
    45   22   24 1    
    46   22  145 1    
    47   23  146 1    
    48   23  147 1    
    49   23  148 1    
    50   24   25 am   BACKBONE|DICT|INTERRES
    51   24  149 1    
    52   25   26 2    
    53   25   27 1    
    54   27   28 1    
    55   27   29 1    
    56   27  150 1    
    57   28  151 1    
    58   28  152 1    
    59   28  153 1    
    60   29   30 am   BACKBONE|DICT|INTERRES
    61   29  154 1    
    62   30   31 2    
    63   30   32 1    
    64   32   33 1    
    65   32   34 1    
    66   32  155 1    
    67   33  156 1    
    68   33  157 1    
    69   33  158 1    
    70   34   35 am   BACKBONE|DICT|INTERRES
    71   34  159 1    
    72   35   36 2    
    73   35   37 1    
    74   37   38 1    
    75   37   39 1    
    76   37  160 1    
    77   38  161 1    
    78   38  162 1    
    79   38  163 1    
    80   39   40 am   BACKBONE|DICT|INTERRES
    81   39  164 1    
    82   40   41 2    
    83   40   42 1    
    84   42   43 1    
    85   42   44 1    
    86   42  165 1    
    87   43  166 1    
    88   43  167 1    
    89   43  168 1    
    90   44   45 am   BACKBONE|DICT|INTERRES
    91   44  169 1    
    92   45   46 2    
    93   45   47 1    
    94   47   48 1    
    95   47   49 1    
    96   47  170 1    
    97   48  171 1    
    98   48  172 1    
    99   48  173 1    
   100   49   50 am   BACKBONE|DICT|INTERRES
   101   49  174 1    
   102   50   51 2    
   103   50   52 1    
   104   52   53 1    
   105   52   54 1    
   106   52  175 1    
   107   53  176 1    
   108   53  177 1    
   109   53  178 1    
   110   54   55 am   BACKBONE|DICT|INTERRES
   111   54  179 1    
   112   55   56 2    
   113   55   57 1    
   114   57   58 1    
   115   57   59 1    
   116   57  180 1    
   117   58  181 1    
   118   58  182 1    
   119   58  183 1    
   120   59   60 am   BACKBONE|DICT|INTERRES
   121   59  184 1    
   122   60   61 2    
   123   60   62 1    
   124   62   63 1    
   125   62   64 1    
   126   62  185 1    
   127   63  186 1    
   128   63  187 1    
   129   63  188 1    
   130   64   65 am   BACKBONE|DICT|INTERRES
   131   64  189 1    
   132   65   66 2    
   133   67   68 2    
   134   67   69 am   BACKBONE|DICT|INTERRES
   135   69   70 1    
   136   69  190 1    
   137   70   71 1    
   138   70   72 1    
   139   70  191 1    
   140   71  192 1    
   141   71  193 1    
   142   71  194 1    
   143   72   73 2    
   144   72   74 am   BACKBONE|DICT|INTERRES
   145   74   75 1    
   146   74  195 1    
   147   75   76 1    
   148   75   77 1    
   149   75  196 1    
   150   76  197 1    
   151   76  198 1    
   152   76  199 1    
   153   77   78 2    
   154   77   79 am   BACKBONE|DICT|INTERRES
   155   79   80 1    
   156   79  200 1    
   157   80   81 1    
   158   80   82 1    
   159   80  201 1    
   160   81  202 1    
   161   81  203 1    
   162   81  204 1    
   163   82   83 2    
   164   82   84 am   BACKBONE|DICT|INTERRES
   165   84   85 1    
   166   84  205 1    
   167   85   86 1    
   168   85   87 1    
   169   85  206 1    
   170   86  207 1    
   171   86  208 1    
   172   86  209 1    
   173   87   88 2    
   174   87   89 am   BACKBONE|DICT|INTERRES
   175   89   90 1    
   176   89  210 1    
   177   90   91 1    
   178   90   92 1    
   179   90  211 1    
   180   91  212 1    
   181   91  213 1    
   182   91  214 1    
   183   92   93 2    
   184   92   94 am   BACKBONE|DICT|INTERRES
   185   94   95 1    
   186   94  215 1    
   187   95   96 1    
   188   95   97 1    
   189   95  216 1    
   190   96  217 1    
   191   96  218 1    
   192   96  219 1    
   193   97   98 2    
   194   97   99 am   BACKBONE|DICT|INTERRES
   195   99  100 1    
   196   99  220 1    
   197  100  101 1    
   198  100  102 1    
   199  100  221 1    
   200  101  222 1    
   201  101  223 1    
   202  101  224 1    
   203  102  103 2    
   204  102  104 am   BACKBONE|DICT|INTERRES
   205  104  105 1    
   206  104  225 1    
   207  105  106 1    
   208  105  107 1    
   209  105  226 1    
   210  106  227 1    
   211  106  228 1    
   212  106  229 1    
   213  107  108 2    
   214  107  109 am   BACKBONE|DICT|INTERRES
   215  109  110 1    
   216  109  230 1    
   217  110  111 1    
   218  110  112 1    
   219  110  231 1    
   220  111  232 1    
   221  111  233 1    
   222  111  234 1    
   223  112  113 2    
   224  112  114 am   BACKBONE|DICT|INTERRES
   225  114  115 1    
   226  114  235 1    
   227  115  116 1    
   228  115  117 1    
   229  115  236 1    
   230  116  237 1    
   231  116  238 1    
   232  116  239 1    
   233  117  118 2    
   234  117  119 am   BACKBONE|DICT|INTERRES
   235  119  120 1    
   236  119  240 1    
   237  120  121 1    
   238  120  124 1    
   239  120  241 1    
   240  121  122 am   BACKBONE|DICT|INTERRES
   241  121  123 2    
   242  122  242 1    
   243  122  243 1    
   244  124  125 1    
   245  124  244 1    
   246  124  245 1    
   247  125  126 1    
   248  126  246 1    
   249  126  247 1    
@<TRIPOS>SUBSTRUCTURE
     1 UNK         1 GROUP             0       ****    0 ROOT    
