@<TRIPOS>MOLECULE
3R540
247   249    1
SMALL
USER_CHARGES


@<TRIPOS>ATOM
      1 CA          6.6802  -18.4896  -47.1921 C.3       0 UNK        -0.1800 
      2 C           5.4715  -17.6292  -47.5311 C.2       0 UNK         0.5000 
      3 O           5.5289  -16.8373  -48.4710 O.2       0 UNK        -0.5000 
      4 N           4.3828  -17.7762  -46.7612 N.am      1 UNK        -0.5000 
      5 CA          3.1017  -17.0573  -46.8933 C.3       1 UNK         0.1400 
      6 C6          2.4703  -17.2094  -48.3080 C.3       23 UNK        -0.0398 
      7 S7          0.6880  -17.5772  -48.2591 S.3       23 UNK        -0.2404 
      8 C8         -0.0537  -16.0291  -48.8591 C.3       23 UNK        -0.0205 
      9 C9         -1.4165  -16.3064  -49.4714 C.ar      23 UNK        -0.0193 
     10 C10        -1.5441  -16.4700  -50.8538 C.ar      23 UNK        -0.1150 
     11 C11        -2.7863  -16.7643  -51.4218 C.ar      23 UNK        -0.0193 
     12 C12        -3.9003  -16.9139  -50.5922 C.ar      23 UNK        -0.1150 
     13 C13        -3.7846  -16.7769  -49.2052 C.ar      23 UNK        -0.0193 
     14 C14        -2.5441  -16.4355  -48.6559 C.ar      23 UNK        -0.1150 
     15 C15        -5.0109  -17.0057  -48.3242 C.3       23 UNK        -0.0205 
     16 S16        -4.7014  -17.9878  -46.8114 S.3       23 UNK        -0.2404 
     17 C17        -3.7861  -19.4497  -47.4160 C.3       23 UNK        -0.0398 
     18 CA         -2.3358  -19.4993  -46.8526 C.3       11 UNK         0.1400 
     19 N          -2.2722  -19.5992  -45.3917 N.am      11 UNK        -0.5000 
     20 C          -2.8029  -20.5552  -44.6177 C.2       10 UNK         0.5000 
     21 O          -3.4382  -21.5223  -45.0394 O.2       10 UNK        -0.5000 
     22 CA         -2.6072  -20.3873  -43.0996 C.3       10 UNK         0.1400 
     23 CB         -1.3010  -21.0580  -42.6477 C.3       10 UNK        -0.1800 
     24 N          -2.6123  -18.9843  -42.6760 N.am      10 UNK        -0.5000 
     25 C          -3.6910  -18.1873  -42.7098 C.2       9 UNK         0.5000 
     26 O          -4.8134  -18.5722  -43.0392 O.2       9 UNK        -0.5000 
     27 CA         -3.4933  -16.7167  -42.2993 C.3       9 UNK         0.1400 
     28 CB         -3.6437  -16.5611  -40.7783 C.3       9 UNK        -0.1800 
     29 N          -2.2024  -16.1716  -42.7217 N.am      9 UNK        -0.5000 
     30 C          -1.8817  -15.8637  -43.9867 C.2       8 UNK         0.5000 
     31 O          -2.6627  -15.9599  -44.9309 O.2       8 UNK        -0.5000 
     32 CA         -0.4402  -15.3870  -44.2513 C.3       8 UNK         0.1400 
     33 CB         -0.3044  -13.8771  -44.0074 C.3       8 UNK        -0.1800 
     34 N           0.5508  -16.0979  -43.4452 N.am      8 UNK        -0.5000 
     35 C           0.8110  -17.4078  -43.5508 C.2       7 UNK         0.5000 
     36 O           0.2674  -18.1551  -44.3647 O.2       7 UNK        -0.5000 
     37 CA          1.8183  -17.9834  -42.5418 C.3       7 UNK         0.1400 
     38 CB          3.2631  -17.6955  -42.9802 C.3       7 UNK        -0.1800 
     39 N           1.5960  -17.4561  -41.1947 N.am      7 UNK        -0.5000 
     40 C           0.5315  -17.7558  -40.4360 C.2       6 UNK         0.5000 
     41 O          -0.3618  -18.5254  -40.7859 O.2       6 UNK        -0.5000 
     42 CA          0.4246  -17.0418  -39.0766 C.3       6 UNK         0.1400 
     43 CB          1.2866  -17.7510  -38.0216 C.3       6 UNK        -0.1800 
     44 N           0.8080  -15.6319  -39.1502 N.am      6 UNK        -0.5000 
     45 C           0.1474  -14.7014  -39.8538 C.2       5 UNK         0.5000 
     46 O          -0.8782  -14.9272  -40.4920 O.2       5 UNK        -0.5000 
     47 CA          0.7636  -13.2927  -39.8913 C.3       5 UNK         0.1400 
     48 CB          0.2557  -12.4491  -38.7128 C.3       5 UNK        -0.1800 
     49 N           2.2276  -13.3074  -39.8850 N.am      5 UNK        -0.5000 
     50 C           2.9876  -13.8404  -40.8499 C.2       4 UNK         0.5000 
     51 O           2.5388  -14.4158  -41.8454 O.2       4 UNK        -0.5000 
     52 CA          4.5090  -13.7495  -40.6418 C.3       4 UNK         0.1400 
     53 CB          5.0796  -15.1277  -40.2727 C.3       4 UNK        -0.1800 
     54 N           5.1982  -13.2487  -41.8292 N.am      4 UNK        -0.5000 
     55 C           5.0150  -12.0405  -42.3815 C.2       3 UNK         0.5000 
     56 O           4.2563  -11.1871  -41.9207 O.2       3 UNK        -0.5000 
     57 CA          5.8208  -11.7169  -43.6558 C.3       3 UNK         0.1400 
     58 CB          6.8224  -10.5831  -43.3835 C.3       3 UNK        -0.1800 
     59 N           6.5638  -12.8722  -44.1731 N.am      3 UNK        -0.5000 
     60 C           6.1201  -13.8481  -44.9770 C.2       2 UNK         0.5000 
     61 O           6.8408  -14.8073  -45.2619 O.2       2 UNK        -0.5000 
     62 CA          4.7002  -13.7809  -45.5763 C.3       2 UNK         0.1400 
     63 CB          4.6777  -12.8576  -46.8136 C.3       2 UNK        -0.1800 
     64 N           4.3392  -15.1375  -45.9665 N.am      2 UNK        -0.5000 
     65 C           3.1678  -15.5770  -46.4367 C.2       1 UNK         0.5000 
     66 O           2.1646  -14.8685  -46.5124 O.2       1 UNK        -0.5000 
     67 C          -1.4457  -20.5514  -47.5542 C.2       11 UNK         0.5000 
     68 O          -0.8515  -21.4138  -46.9025 O.2       11 UNK        -0.5000 
     69 N          -1.3091  -20.4097  -48.8800 N.am      12 UNK        -0.5000 
     70 CA         -0.3905  -21.1651  -49.7300 C.3       12 UNK         0.1400 
     71 CB         -0.4515  -20.5856  -51.1502 C.3       12 UNK        -0.1800 
     72 C          -0.6803  -22.6767  -49.7390 C.2       12 UNK         0.5000 
     73 O          -1.6397  -23.1146  -50.3796 O.2       12 UNK        -0.5000 
     74 N           0.1617  -23.4503  -49.0409 N.am      13 UNK        -0.5000 
     75 CA          0.0705  -24.9080  -48.9131 C.3       13 UNK         0.1400 
     76 CB          1.1384  -25.3982  -47.9247 C.3       13 UNK        -0.1800 
     77 C           0.1966  -25.6487  -50.2573 C.2       13 UNK         0.5000 
     78 O          -0.4779  -26.6580  -50.4601 O.2       13 UNK        -0.5000 
     79 N           1.0026  -25.0945  -51.1743 N.am      14 UNK        -0.5000 
     80 CA          1.1727  -25.5705  -52.5509 C.3       14 UNK         0.1400 
     81 CB          2.3361  -24.8049  -53.1992 C.3       14 UNK        -0.1800 
     82 C          -0.1017  -25.4409  -53.4120 C.2       14 UNK         0.5000 
     83 O          -0.2422  -26.1653  -54.3973 O.2       14 UNK        -0.5000 
     84 N          -1.0104  -24.5424  -53.0110 N.am      15 UNK        -0.5000 
     85 CA         -2.3263  -24.3272  -53.6093 C.3       15 UNK         0.1400 
     86 CB         -2.5196  -22.8153  -53.8092 C.3       15 UNK        -0.1800 
     87 C          -3.4449  -24.9410  -52.7413 C.2       15 UNK         0.5000 
     88 O          -4.6013  -24.5348  -52.8730 O.2       15 UNK        -0.5000 
     89 N          -3.0807  -25.8875  -51.8596 N.am      16 UNK        -0.5000 
     90 CA         -3.9351  -26.6128  -50.9148 C.3       16 UNK         0.1400 
     91 CB         -4.9293  -27.5223  -51.6665 C.3       16 UNK        -0.1800 
     92 C          -4.6066  -25.6723  -49.8951 C.2       16 UNK         0.5000 
     93 O          -5.8252  -25.7053  -49.7287 O.2       16 UNK        -0.5000 
     94 N          -3.7875  -24.8154  -49.2664 N.am      17 UNK        -0.5000 
     95 CA         -4.1736  -23.7201  -48.3645 C.3       17 UNK         0.1400 
     96 CB         -4.8520  -24.2527  -47.0856 C.3       17 UNK        -0.1800 
     97 C          -5.0053  -22.6517  -49.1036 C.2       17 UNK         0.5000 
     98 O          -5.9821  -22.1301  -48.5651 O.2       17 UNK        -0.5000 
     99 N          -4.5976  -22.3815  -50.3517 N.am      18 UNK        -0.5000 
    100 CA        -5.2434  -21.5175  -51.3410 C.3       18 UNK         0.1400 
    101 CB        -5.1274  -20.0380  -50.9422 C.3       18 UNK        -0.1800 
    102 C         -6.6809  -21.9311  -51.7217 C.2       18 UNK         0.5000 
    103 O         -7.4509  -21.0893  -52.1852 O.2       18 UNK        -0.5000 
    104 N         -7.0098  -23.2265  -51.6065 N.am      19 UNK        -0.5000 
    105 CA        -8.2483  -23.8068  -52.1372 C.3       19 UNK         0.1400 
    106 CB        -8.4306  -25.2325  -51.6011 C.3       19 UNK        -0.1800 
    107 C         -8.2837  -23.7940  -53.6789 C.2       19 UNK         0.5000 
    108 O         -9.3617  -23.6771  -54.2616 O.2       19 UNK        -0.5000 
    109 N         -7.1000  -23.8496  -54.3074 N.am      20 UNK        -0.5000 
    110 CA        -6.8934  -23.6438  -55.7431 C.3       20 UNK         0.1400 
    111 CB        -5.6324  -24.4138  -56.1708 C.3       20 UNK        -0.1800 
    112 C         -6.7942  -22.1490  -56.1311 C.2       20 UNK         0.5000 
    113 O         -6.4529  -21.8459  -57.2760 O.2       20 UNK        -0.5000 
    114 N         -7.0453  -21.2376  -55.1750 N.am      21 UNK        -0.5000 
    115 CA        -7.0349  -19.7716  -55.2940 C.3       21 UNK         0.1400 
    116 CB        -8.1789  -19.3004  -56.2154 C.3       21 UNK        -0.1800 
    117 C         -5.6684  -19.1793  -55.7022 C.2       21 UNK         0.5000 
    118 O         -5.6137  -18.0555  -56.2041 O.2       21 UNK        -0.5000 
    119 N         -4.5963  -19.9553  -55.4929 N.am      22 UNK        -0.5000 
    120 CA        -3.2227  -19.6875  -55.9516 C.3       22 UNK         0.1400 
    121 C         -3.0592  -19.6917  -57.5044 C.2       22 UNK         0.5000 
    122 N         -3.9671  -20.2980  -58.2630 N.am      22 UNK        -0.7600 
    123 O         -2.0823  -19.1689  -58.0340 O.2       22 UNK        -0.5000 
    124 C124       -2.5719  -18.4532  -55.2661 C.3       23 UNK        -0.0398 
    125 S125       -2.5187  -18.6192  -53.4484 S.3       23 UNK        -0.2404 
    126 C126       -2.9212  -16.9251  -52.9284 C.3       23 UNK        -0.0205 
    127 H127        6.4827  -19.1552  -46.3514 H         1 UNK         0.0600 
    128 H128        7.5285  -17.8561  -46.9320 H         1 UNK         0.0600 
    129 H129        6.9593  -19.1000  -48.0509 H         1 UNK         0.0600 
    130 H130        4.4158  -18.4503  -46.0093 H         1 UNK         0.3000 
    131 H131        2.4461  -17.5483  -46.1733 H         1 UNK         0.0600 
    132 H132        2.9201  -18.0529  -48.8330 H         1 UNK         0.0800 
    133 H133        2.6754  -16.3442  -48.9407 H         1 UNK         0.0800 
    134 H134        0.5955  -15.5594  -49.5991 H         1 UNK         0.0800 
    135 H135       -0.1449  -15.3240  -48.0315 H         1 UNK         0.0800 
    136 H136       -0.6747  -16.3769  -51.4895 H         1 UNK         0.1150 
    137 H137       -4.8591  -17.1518  -51.0302 H         1 UNK         0.1150 
    138 H138       -2.4464  -16.3091  -47.5867 H         1 UNK         0.1150 
    139 H139       -5.4134  -16.0354  -48.0316 H         1 UNK         0.0800 
    140 H140       -5.7972  -17.5050  -48.8922 H         1 UNK         0.0800 
    141 H141       -3.7825  -19.4273  -48.5033 H         1 UNK         0.0800 
    142 H142       -4.3460  -20.3443  -47.1444 H         1 UNK         0.0800 
    143 H143       -1.8623  -18.5442  -47.0714 H         1 UNK         0.0600 
    144 H144       -1.7045  -18.8935  -44.9379 H         1 UNK         0.3000 
    145 H145       -3.4368  -20.8935  -42.6016 H         1 UNK         0.0600 
    146 H146       -1.2015  -21.0366  -41.5625 H         1 UNK         0.0600 
    147 H147       -1.2718  -22.1038  -42.9559 H         1 UNK         0.0600 
    148 H148       -0.4274  -20.5652  -43.0756 H         1 UNK         0.0600 
    149 H149       -1.7392  -18.6154  -42.3156 H         1 UNK         0.3000 
    150 H150       -4.2821  -16.1318  -42.7772 H         1 UNK         0.0600 
    151 H151       -4.6006  -16.9572  -40.4363 H         1 UNK         0.0600 
    152 H152       -3.6031  -15.5123  -40.4840 H         1 UNK         0.0600 
    153 H153       -2.8565  -17.0909  -40.2406 H         1 UNK         0.0600 
    154 H154       -1.5316  -15.9764  -41.9846 H         1 UNK         0.3000 
    155 H155       -0.2165  -15.5835  -45.3021 H         1 UNK         0.0600 
    156 H156       -0.5138  -13.6165  -42.9699 H         1 UNK         0.0600 
    157 H157       -0.9990  -13.3176  -44.6349 H         1 UNK         0.0600 
    158 H158        0.7018  -13.5301  -44.2448 H         1 UNK         0.0600 
    159 H159        1.0729  -15.5484  -42.7708 H         1 UNK         0.3000 
    160 H160        1.6823  -19.0666  -42.5099 H         1 UNK         0.0600 
    161 H161        3.9803  -18.0900  -42.2603 H         1 UNK         0.0600 
    162 H162        3.4520  -16.6273  -43.0920 H         1 UNK         0.0600 
    163 H163        3.4761  -18.1681  -43.9385 H         1 UNK         0.0600 
    164 H164        2.2551  -16.7699  -40.8593 H         1 UNK         0.3000 
    165 H165       -0.6182  -17.0918  -38.7561 H         1 UNK         0.0600 
    166 H166        1.1543  -17.3011  -37.0375 H         1 UNK         0.0600 
    167 H167        1.0108  -18.8030  -37.9363 H         1 UNK         0.0600 
    168 H168        2.3476  -17.7087  -38.2707 H         1 UNK         0.0600 
    169 H169        1.6419  -15.3569  -38.6530 H         1 UNK         0.3000 
    170 H170        0.4393  -12.8147  -40.8178 H         1 UNK         0.0600 
    171 H171       -0.8343  -12.4053  -38.7059 H         1 UNK         0.0600 
    172 H172        0.5738  -12.8612  -37.7543 H         1 UNK         0.0600 
    173 H173        0.6200  -11.4235  -38.7758 H         1 UNK         0.0600 
    174 H174        2.6764  -12.8528  -39.1028 H         1 UNK         0.3000 
    175 H175        4.7163  -13.0594  -39.8213 H         1 UNK         0.0600 
    176 H176        4.9413  -15.8505  -41.0777 H         1 UNK         0.0600 
    177 H177        6.1465  -15.0677  -40.0570 H         1 UNK         0.0600 
    178 H178        4.5921  -15.5290  -39.3832 H         1 UNK         0.0600 
    179 H179        5.8399  -13.8850  -42.2780 H         1 UNK         0.3000 
    180 H180        5.1115  -11.3553  -44.3997 H         1 UNK         0.0600 
    181 H181        7.5546  -10.8649  -42.6257 H         1 UNK         0.0600 
    182 H182        6.3139   -9.6849  -43.0303 H         1 UNK         0.0600 
    183 H183        7.3646  -10.3105  -44.2893 H         1 UNK         0.0600 
    184 H184        7.5111  -12.9492  -43.8326 H         1 UNK         0.3000 
    185 H185        3.9897  -13.4365  -44.8233 H         1 UNK         0.0600 
    186 H186        5.2842  -13.2658  -47.6232 H         1 UNK         0.0600 
    187 H187        5.0674  -11.8648  -46.5916 H         1 UNK         0.0600 
    188 H188        3.6648  -12.7234  -47.1931 H         1 UNK         0.0600 
    189 H189        5.1217  -15.7799  -45.9290 H         1 UNK         0.3000 
    190 H190       -1.7995  -19.6574  -49.3407 H         1 UNK         0.3000 
    191 H191        0.6205  -21.0063  -49.3494 H         1 UNK         0.0600 
    192 H192        0.1994  -21.1347  -51.8318 H         1 UNK         0.0600 
    193 H193       -0.1345  -19.5423  -51.1653 H         1 UNK         0.0600 
    194 H194       -1.4631  -20.6303  -51.5524 H         1 UNK         0.0600 
    195 H195        0.8931  -23.0030  -48.5070 H         1 UNK         0.3000 
    196 H196       -0.9101  -25.1442  -48.4958 H         1 UNK         0.0600 
    197 H197        1.0804  -26.4793  -47.7908 H         1 UNK         0.0600 
    198 H198        1.0047  -24.9433  -46.9430 H         1 UNK         0.0600 
    199 H199        2.1461  -25.1633  -48.2698 H         1 UNK         0.0600 
    200 H200        1.5150  -24.2635  -50.9179 H         1 UNK         0.3000 
    201 H201        1.4358  -26.6296  -52.5118 H         1 UNK         0.0600 
    202 H202        2.1350  -23.7339  -53.2483 H         1 UNK         0.0600 
    203 H203        2.5138  -25.1525  -54.2178 H         1 UNK         0.0600 
    204 H204        3.2625  -24.9486  -52.6427 H         1 UNK         0.0600 
    205 H205       -0.8326  -24.0180  -52.1635 H         1 UNK         0.3000 
    206 H206       -2.3847  -24.8081  -54.5874 H         1 UNK         0.0600 
    207 H207       -1.7306  -22.4045  -54.4388 H         1 UNK         0.0600 
    208 H208       -3.4706  -22.5931  -54.2918 H         1 UNK         0.0600 
    209 H209       -2.4960  -22.2806  -52.8610 H         1 UNK         0.0600 
    210 H210       -2.0979  -26.1257  -51.8064 H         1 UNK         0.3000 
    211 H211       -3.2761  -27.2618  -50.3362 H         1 UNK         0.0600 
    212 H212       -4.4025  -28.2376  -52.2978 H         1 UNK         0.0600 
    213 H213       -5.6031  -26.9522  -52.3047 H         1 UNK         0.0600 
    214 H214       -5.5420  -28.0955  -50.9698 H         1 UNK         0.0600 
    215 H215       -2.8184  -24.8040  -49.5546 H         1 UNK         0.3000 
    216 H216       -3.2491  -23.2284  -48.0585 H         1 UNK         0.0600 
    217 H217       -5.0090  -23.4471  -46.3675 H         1 UNK         0.0600 
    218 H218       -4.2346  -25.0060  -46.5967 H         1 UNK         0.0600 
    219 H219       -5.8261  -24.6963  -47.2921 H         1 UNK         0.0600 
    220 H220       -3.7563  -22.8508  -50.6661 H         1 UNK         0.3000 
    221 H221       -4.6695  -21.6385  -52.2586 H         1 UNK         0.0600 
    222 H222       -5.6863  -19.8167  -50.0329 H         1 UNK         0.0600 
    223 H223       -4.0847  -19.7655  -50.7838 H         1 UNK         0.0600 
    224 H224       -5.5079  -19.3879  -51.7308 H         1 UNK         0.0600 
    225 H225       -6.3219  -23.8752  -51.2451 H         1 UNK         0.3000 
    226 H226       -9.0854  -23.2025  -51.7813 H         1 UNK         0.0600 
    227 H227       -9.3657  -25.6672  -51.9564 H         1 UNK         0.0600 
    228 H228       -7.6217  -25.8878  -51.9216 H         1 UNK         0.0600 
    229 H229       -8.4605  -25.2430  -50.5115 H         1 UNK         0.0600 
    230 H230       -6.2629  -23.9928  -53.7475 H         1 UNK         0.3000 
    231 H231       -7.7424  -24.0610  -56.2881 H         1 UNK         0.0600 
    232 H232       -5.7000  -25.4661  -55.8941 H         1 UNK         0.0600 
    233 H233       -4.7342  -24.0049  -55.7101 H         1 UNK         0.0600 
    234 H234       -5.4937  -24.3727  -57.2518 H         1 UNK         0.0600 
    235 H235       -7.3064  -21.5760  -54.2569 H         1 UNK         0.3000 
    236 H236       -7.2384  -19.3836  -54.2952 H         1 UNK         0.0600 
    237 H237       -9.1350  -19.7191  -55.9013 H         1 UNK         0.0600 
    238 H238       -8.2801  -18.2148  -56.1932 H         1 UNK         0.0600 
    239 H239       -8.0091  -19.5915  -57.2524 H         1 UNK         0.0600 
    240 H240       -4.7523  -20.8613  -55.0812 H         1 UNK         0.3000 
    241 H241       -2.6436  -20.5540  -55.6363 H         1 UNK         0.0600 
    242 H242       -4.7792  -20.7481  -57.8554 H         1 UNK         0.3800 
    243 H243       -3.8473  -20.3046  -59.2635 H         1 UNK         0.3800 
    244 H244       -1.5429  -18.3239  -55.6048 H         1 UNK         0.0800 
    245 H245       -3.0984  -17.5397  -55.5442 H         1 UNK         0.0800 
    246 H246       -2.2574  -16.2220  -53.4340 H         1 UNK         0.0800 
    247 H247       -3.9354  -16.6805  -53.2481 H         1 UNK         0.0800 
@<TRIPOS>BOND
     1    1    2 1    
     2    1  127 1    
     3    1  128 1    
     4    1  129 1    
     5    2    3 2    
     6    2    4 am   BACKBONE|DICT|INTERRES
     7    4    5 1    
     8    4  130 1    
     9    5    6 1    
    10    5   65 1    
    11    5  131 1    
    12    6    7 1    
    13    6  132 1    
    14    6  133 1    
    15    7    8 1    
    16    8    9 1    
    17    8  134 1    
    18    8  135 1    
    19    9   10 ar   
    20    9   14 ar   
    21   10   11 ar   
    22   10  136 1    
    23   11   12 ar   
    24   11  126 1    
    25   12   13 ar   
    26   12  137 1    
    27   13   14 ar   
    28   13   15 1    
    29   14  138 1    
    30   15   16 1    
    31   15  139 1    
    32   15  140 1    
    33   16   17 1    
    34   17   18 1    
    35   17  141 1    
    36   17  142 1    
    37   18   19 1    
    38   18   67 1    
    39   18  143 1    
    40   19   20 am   BACKBONE|DICT|INTERRES
    41   19  144 1    
    42   20   21 2    
    43   20   22 1    
    44   22   23 1    
    45   22   24 1    
    46   22  145 1    
    47   23  146 1    
    48   23  147 1    
    49   23  148 1    
    50   24   25 am   BACKBONE|DICT|INTERRES
    51   24  149 1    
    52   25   26 2    
    53   25   27 1    
    54   27   28 1    
    55   27   29 1    
    56   27  150 1    
    57   28  151 1    
    58   28  152 1    
    59   28  153 1    
    60   29   30 am   BACKBONE|DICT|INTERRES
    61   29  154 1    
    62   30   31 2    
    63   30   32 1    
    64   32   33 1    
    65   32   34 1    
    66   32  155 1    
    67   33  156 1    
    68   33  157 1    
    69   33  158 1    
    70   34   35 am   BACKBONE|DICT|INTERRES
    71   34  159 1    
    72   35   36 2    
    73   35   37 1    
    74   37   38 1    
    75   37   39 1    
    76   37  160 1    
    77   38  161 1    
    78   38  162 1    
    79   38  163 1    
    80   39   40 am   BACKBONE|DICT|INTERRES
    81   39  164 1    
    82   40   41 2    
    83   40   42 1    
    84   42   43 1    
    85   42   44 1    
    86   42  165 1    
    87   43  166 1    
    88   43  167 1    
    89   43  168 1    
    90   44   45 am   BACKBONE|DICT|INTERRES
    91   44  169 1    
    92   45   46 2    
    93   45   47 1    
    94   47   48 1    
    95   47   49 1    
    96   47  170 1    
    97   48  171 1    
    98   48  172 1    
    99   48  173 1    
   100   49   50 am   BACKBONE|DICT|INTERRES
   101   49  174 1    
   102   50   51 2    
   103   50   52 1    
   104   52   53 1    
   105   52   54 1    
   106   52  175 1    
   107   53  176 1    
   108   53  177 1    
   109   53  178 1    
   110   54   55 am   BACKBONE|DICT|INTERRES
   111   54  179 1    
   112   55   56 2    
   113   55   57 1    
   114   57   58 1    
   115   57   59 1    
   116   57  180 1    
   117   58  181 1    
   118   58  182 1    
   119   58  183 1    
   120   59   60 am   BACKBONE|DICT|INTERRES
   121   59  184 1    
   122   60   61 2    
   123   60   62 1    
   124   62   63 1    
   125   62   64 1    
   126   62  185 1    
   127   63  186 1    
   128   63  187 1    
   129   63  188 1    
   130   64   65 am   BACKBONE|DICT|INTERRES
   131   64  189 1    
   132   65   66 2    
   133   67   68 2    
   134   67   69 am   BACKBONE|DICT|INTERRES
   135   69   70 1    
   136   69  190 1    
   137   70   71 1    
   138   70   72 1    
   139   70  191 1    
   140   71  192 1    
   141   71  193 1    
   142   71  194 1    
   143   72   73 2    
   144   72   74 am   BACKBONE|DICT|INTERRES
   145   74   75 1    
   146   74  195 1    
   147   75   76 1    
   148   75   77 1    
   149   75  196 1    
   150   76  197 1    
   151   76  198 1    
   152   76  199 1    
   153   77   78 2    
   154   77   79 am   BACKBONE|DICT|INTERRES
   155   79   80 1    
   156   79  200 1    
   157   80   81 1    
   158   80   82 1    
   159   80  201 1    
   160   81  202 1    
   161   81  203 1    
   162   81  204 1    
   163   82   83 2    
   164   82   84 am   BACKBONE|DICT|INTERRES
   165   84   85 1    
   166   84  205 1    
   167   85   86 1    
   168   85   87 1    
   169   85  206 1    
   170   86  207 1    
   171   86  208 1    
   172   86  209 1    
   173   87   88 2    
   174   87   89 am   BACKBONE|DICT|INTERRES
   175   89   90 1    
   176   89  210 1    
   177   90   91 1    
   178   90   92 1    
   179   90  211 1    
   180   91  212 1    
   181   91  213 1    
   182   91  214 1    
   183   92   93 2    
   184   92   94 am   BACKBONE|DICT|INTERRES
   185   94   95 1    
   186   94  215 1    
   187   95   96 1    
   188   95   97 1    
   189   95  216 1    
   190   96  217 1    
   191   96  218 1    
   192   96  219 1    
   193   97   98 2    
   194   97   99 am   BACKBONE|DICT|INTERRES
   195   99  100 1    
   196   99  220 1    
   197  100  101 1    
   198  100  102 1    
   199  100  221 1    
   200  101  222 1    
   201  101  223 1    
   202  101  224 1    
   203  102  103 2    
   204  102  104 am   BACKBONE|DICT|INTERRES
   205  104  105 1    
   206  104  225 1    
   207  105  106 1    
   208  105  107 1    
   209  105  226 1    
   210  106  227 1    
   211  106  228 1    
   212  106  229 1    
   213  107  108 2    
   214  107  109 am   BACKBONE|DICT|INTERRES
   215  109  110 1    
   216  109  230 1    
   217  110  111 1    
   218  110  112 1    
   219  110  231 1    
   220  111  232 1    
   221  111  233 1    
   222  111  234 1    
   223  112  113 2    
   224  112  114 am   BACKBONE|DICT|INTERRES
   225  114  115 1    
   226  114  235 1    
   227  115  116 1    
   228  115  117 1    
   229  115  236 1    
   230  116  237 1    
   231  116  238 1    
   232  116  239 1    
   233  117  118 2    
   234  117  119 am   BACKBONE|DICT|INTERRES
   235  119  120 1    
   236  119  240 1    
   237  120  121 1    
   238  120  124 1    
   239  120  241 1    
   240  121  122 am   BACKBONE|DICT|INTERRES
   241  121  123 2    
   242  122  242 1    
   243  122  243 1    
   244  124  125 1    
   245  124  244 1    
   246  124  245 1    
   247  125  126 1    
   248  126  246 1    
   249  126  247 1    
@<TRIPOS>SUBSTRUCTURE
     1 UNK         1 GROUP             0       ****    0 ROOT    
