@<TRIPOS>MOLECULE
3R540
247   249    1
SMALL
USER_CHARGES


@<TRIPOS>ATOM
      1 CA         -1.2428   -9.4406  -46.9242 C.3       0 UNK        -0.1800 
      2 C          -0.5758  -10.4903  -46.0481 C.2       0 UNK         0.5000 
      3 O           0.5990  -10.3474  -45.7094 O.2       0 UNK        -0.5000 
      4 N          -1.3243  -11.5342  -45.6639 N.am      1 UNK        -0.5000 
      5 CA         -0.8609  -12.6783  -44.8630 C.3       1 UNK         0.1400 
      6 C6         -1.9579  -13.7567  -44.6943 C.3       23 UNK        -0.0398 
      7 S7         -2.4644  -14.4672  -46.2978 S.3       23 UNK        -0.2404 
      8 C8         -2.0084  -16.2161  -46.0789 C.3       23 UNK        -0.0205 
      9 C9         -2.1774  -17.0024  -47.3705 C.ar      23 UNK        -0.0193 
     10 C10        -3.4552  -17.2687  -47.8753 C.ar      23 UNK        -0.1150 
     11 C11        -3.6122  -17.9953  -49.0592 C.ar      23 UNK        -0.0193 
     12 C12        -2.4821  -18.4516  -49.7409 C.ar      23 UNK        -0.1150 
     13 C13        -1.2016  -18.2174  -49.2330 C.ar      23 UNK        -0.0193 
     14 C14        -1.0557  -17.4886  -48.0493 C.ar      23 UNK        -0.1150 
     15 C15         0.0236  -18.7491  -49.9620 C.3       23 UNK        -0.0205 
     16 S16         0.5714  -20.3603  -49.3063 S.3       23 UNK        -0.2404 
     17 C17        -0.7737  -21.4793  -49.8331 C.3       23 UNK        -0.0398 
     18 CA         -1.5455  -22.1123  -48.6486 C.3       11 UNK         0.1400 
     19 N          -2.0211  -21.1277  -47.6688 N.am      11 UNK        -0.5000 
     20 C          -2.5546  -21.4407  -46.4814 C.2       10 UNK         0.5000 
     21 O          -2.7280  -22.5995  -46.0960 O.2       10 UNK        -0.5000 
     22 CA         -3.0195  -20.2694  -45.6036 C.3       10 UNK         0.1400 
     23 CB         -4.5235  -20.3687  -45.3057 C.3       10 UNK        -0.1800 
     24 N          -2.2746  -20.1916  -44.3507 N.am      10 UNK        -0.5000 
     25 C          -0.9710  -19.9010  -44.2697 C.2       9 UNK         0.5000 
     26 O          -0.2443  -19.7160  -45.2478 O.2       9 UNK        -0.5000 
     27 CA         -0.3768  -19.7865  -42.8548 C.3       9 UNK         0.1400 
     28 CB          0.4281  -21.0458  -42.4993 C.3       9 UNK        -0.1800 
     29 N           0.4938  -18.6164  -42.7590 N.am      9 UNK        -0.5000 
     30 C           0.0708  -17.3463  -42.8325 C.2       8 UNK         0.5000 
     31 O          -1.1172  -17.0219  -42.8375 O.2       8 UNK        -0.5000 
     32 CA          1.1500  -16.2513  -42.9204 C.3       8 UNK         0.1400 
     33 CB          1.3706  -15.6157  -41.5407 C.3       8 UNK        -0.1800 
     34 N           2.4285  -16.7346  -43.4539 N.am      8 UNK        -0.5000 
     35 C           2.6267  -17.0781  -44.7376 C.2       7 UNK         0.5000 
     36 O           1.7646  -16.9419  -45.6052 O.2       7 UNK        -0.5000 
     37 CA          4.0012  -17.6652  -45.1240 C.3       7 UNK         0.1400 
     38 CB          4.4858  -17.1728  -46.4994 C.3       7 UNK        -0.1800 
     39 N           5.0313  -17.3639  -44.1308 N.am      7 UNK        -0.5000 
     40 C           5.4701  -18.2081  -43.1879 C.2       6 UNK         0.5000 
     41 O           5.0619  -19.3627  -43.0609 O.2       6 UNK        -0.5000 
     42 CA          6.5254  -17.6663  -42.2010 C.3       6 UNK         0.1400 
     43 CB          7.9382  -18.0652  -42.6531 C.3       6 UNK        -0.1800 
     44 N           6.4742  -16.2121  -42.0273 N.am      6 UNK        -0.5000 
     45 C           5.4419  -15.5397  -41.5012 C.2       5 UNK         0.5000 
     46 O           4.4321  -16.0911  -41.0658 O.2       5 UNK        -0.5000 
     47 CA          5.5286  -13.9999  -41.4831 C.3       5 UNK         0.1400 
     48 CB          6.9760  -13.4620  -41.5269 C.3       5 UNK        -0.1800 
     49 N           4.7271  -13.3782  -42.5440 N.am      5 UNK        -0.5000 
     50 C           4.8119  -13.5905  -43.8670 C.2       4 UNK         0.5000 
     51 O           5.5453  -14.4383  -44.3784 O.2       4 UNK        -0.5000 
     52 CA          3.9490  -12.7028  -44.7868 C.3       4 UNK         0.1400 
     53 CB          2.8812  -13.5270  -45.5184 C.3       4 UNK        -0.1800 
     54 N           3.2931  -11.5902  -44.0949 N.am      4 UNK        -0.5000 
     55 C           3.8804  -10.4189  -43.8090 C.2       3 UNK         0.5000 
     56 O           5.0728  -10.1946  -44.0207 O.2       3 UNK        -0.5000 
     57 CA          3.0048   -9.3028  -43.2036 C.3       3 UNK         0.1400 
     58 CB          2.9382   -8.0948  -44.1531 C.3       3 UNK        -0.1800 
     59 N           1.6375   -9.7497  -42.9337 N.am      3 UNK        -0.5000 
     60 C           1.1627  -10.0906  -41.7277 C.2       2 UNK         0.5000 
     61 O           1.8283  -10.0387  -40.6930 O.2       2 UNK        -0.5000 
     62 CA         -0.2982  -10.5871  -41.6584 C.3       2 UNK         0.1400 
     63 CB         -1.2337   -9.4413  -41.2439 C.3       2 UNK        -0.1800 
     64 N          -0.7920  -11.1731  -42.9082 N.am      2 UNK        -0.5000 
     65 C          -0.2850  -12.2686  -43.4907 C.2       1 UNK         0.5000 
     66 O           0.6487  -12.9105  -43.0151 O.2       1 UNK        -0.5000 
     67 C          -2.6868  -23.0135  -49.1666 C.2       11 UNK         0.5000 
     68 O          -2.4348  -24.1615  -49.5181 O.2       11 UNK        -0.5000 
     69 N          -3.9237  -22.4938  -49.1623 N.am      12 UNK        -0.5000 
     70 CA         -5.1441  -23.2232  -49.5148 C.3       12 UNK         0.1400 
     71 CB         -6.2447  -22.2041  -49.8534 C.3       12 UNK        -0.1800 
     72 C          -5.6206  -24.2077  -48.4260 C.2       12 UNK         0.5000 
     73 O          -6.5087  -25.0139  -48.7045 O.2       12 UNK        -0.5000 
     74 N          -5.0463  -24.1250  -47.2174 N.am      13 UNK        -0.5000 
     75 CA         -5.2520  -25.0869  -46.1358 C.3       13 UNK         0.1400 
     76 CB         -5.4491  -24.3351  -44.8096 C.3       13 UNK        -0.1800 
     77 C          -4.0595  -26.0538  -46.0427 C.2       13 UNK         0.5000 
     78 O          -4.2665  -27.2512  -45.8424 O.2       13 UNK        -0.5000 
     79 N          -2.8353  -25.5236  -46.1883 N.am      14 UNK        -0.5000 
     80 CA         -1.5857  -26.2868  -46.1337 C.3       14 UNK         0.1400 
     81 CB         -0.4096  -25.3090  -45.9887 C.3       14 UNK        -0.1800 
     82 C          -1.3726  -27.2117  -47.3493 C.2       14 UNK         0.5000 
     83 O          -0.7761  -28.2793  -47.2011 O.2       14 UNK        -0.5000 
     84 N          -1.8608  -26.7891  -48.5187 N.am      15 UNK        -0.5000 
     85 CA         -1.8326  -27.5105  -49.7865 C.3       15 UNK         0.1400 
     86 CB         -0.6853  -26.9560  -50.6540 C.3       15 UNK        -0.1800 
     87 C          -3.2081  -27.3801  -50.4682 C.2       15 UNK         0.5000 
     88 O          -4.1823  -26.9866  -49.8226 O.2       15 UNK        -0.5000 
     89 N          -3.2819  -27.7391  -51.7557 N.am      16 UNK        -0.5000 
     90 CA         -4.4900  -27.6275  -52.5718 C.3       16 UNK         0.1400 
     91 CB         -4.2849  -28.4074  -53.8800 C.3       16 UNK        -0.1800 
     92 C          -4.8325  -26.1596  -52.8804 C.2       16 UNK         0.5000 
     93 O          -3.9424  -25.3878  -53.2436 O.2       16 UNK        -0.5000 
     94 N          -6.1242  -25.8145  -52.8074 N.am      17 UNK        -0.5000 
     95 CA         -6.6484  -24.4779  -53.1101 C.3       17 UNK         0.1400 
     96 CB         -8.1301  -24.4150  -52.7124 C.3       17 UNK        -0.1800 
     97 C          -6.4572  -24.0497  -54.5795 C.2       17 UNK         0.5000 
     98 O          -6.3862  -22.8535  -54.8552 O.2       17 UNK        -0.5000 
     99 N          -6.3496  -25.0296  -55.4876 N.am      18 UNK        -0.5000 
    100 CA        -6.0365  -24.8220  -56.9018 C.3       18 UNK         0.1400 
    101 CB        -6.4081  -26.0910  -57.6844 C.3       18 UNK        -0.1800 
    102 C         -4.5583  -24.4546  -57.1452 C.2       18 UNK         0.5000 
    103 O         -4.2621  -23.7798  -58.1319 O.2       18 UNK        -0.5000 
    104 N         -3.6608  -24.9084  -56.2584 N.am      19 UNK        -0.5000 
    105 CA        -2.2281  -24.6101  -56.3046 C.3       19 UNK         0.1400 
    106 CB        -1.4496  -25.7924  -55.7051 C.3       19 UNK        -0.1800 
    107 C         -1.8915  -23.3081  -55.5558 C.2       19 UNK         0.5000 
    108 O         -0.9381  -22.6219  -55.9265 O.2       19 UNK        -0.5000 
    109 N         -2.6711  -23.0039  -54.5107 N.am      20 UNK        -0.5000 
    110 CA        -2.5548  -21.8193  -53.6658 C.3       20 UNK         0.1400 
    111 CB        -3.5705  -21.9496  -52.5244 C.3       20 UNK        -0.1800 
    112 C         -2.7996  -20.4998  -54.4184 C.2       20 UNK         0.5000 
    113 O         -3.5719  -20.4620  -55.3794 O.2       20 UNK        -0.5000 
    114 N         -2.1938  -19.4210  -53.9035 N.am      21 UNK        -0.5000 
    115 CA        -2.3210  -18.0488  -54.4075 C.3       21 UNK         0.1400 
    116 CB        -1.3925  -17.1356  -53.5912 C.3       21 UNK        -0.1800 
    117 C         -3.7620  -17.4976  -54.3895 C.2       21 UNK         0.5000 
    118 O         -4.0902  -16.6375  -55.2078 O.2       21 UNK        -0.5000 
    119 N         -4.5917  -18.0126  -53.4734 N.am      22 UNK        -0.5000 
    120 CA        -6.0268  -17.7026  -53.3697 C.3       22 UNK         0.1400 
    121 C         -6.9169  -18.4656  -54.3969 C.2       22 UNK         0.5000 
    122 N         -6.3934  -19.3990  -55.1839 N.am      22 UNK        -0.7600 
    123 O         -8.1125  -18.1997  -54.4856 O.2       22 UNK        -0.5000 
    124 C124       -6.5651  -17.8896  -51.9256 C.3       23 UNK        -0.0398 
    125 S125       -5.5943  -16.9660  -50.6812 S.3       23 UNK        -0.2404 
    126 C126       -4.9964  -18.3048  -49.6037 C.3       23 UNK        -0.0205 
    127 H127       -2.2831   -9.6896  -47.1353 H         1 UNK         0.0600 
    128 H128       -0.7138   -9.3548  -47.8732 H         1 UNK         0.0600 
    129 H129       -1.2180   -8.4696  -46.4298 H         1 UNK         0.0600 
    130 H130       -2.2798  -11.5957  -45.9865 H         1 UNK         0.3000 
    131 H131       -0.0381  -13.1325  -45.4172 H         1 UNK         0.0600 
    132 H132       -1.6112  -14.5609  -44.0428 H         1 UNK         0.0800 
    133 H133       -2.8397  -13.3354  -44.2088 H         1 UNK         0.0800 
    134 H134       -0.9763  -16.2794  -45.7294 H         1 UNK         0.0800 
    135 H135       -2.6272  -16.6610  -45.2982 H         1 UNK         0.0800 
    136 H136       -4.3261  -16.9050  -47.3480 H         1 UNK         0.1150 
    137 H137       -2.6045  -18.9946  -50.6658 H         1 UNK         0.1150 
    138 H138       -0.0661  -17.3063  -47.6522 H         1 UNK         0.1150 
    139 H139       -0.1700  -18.8338  -51.0321 H         1 UNK         0.0800 
    140 H140        0.8429  -18.0356  -49.8610 H         1 UNK         0.0800 
    141 H141       -0.3216  -22.2664  -50.4396 H         1 UNK         0.0800 
    142 H142       -1.4494  -20.9498  -50.5015 H         1 UNK         0.0800 
    143 H143       -0.8461  -22.7630  -48.1213 H         1 UNK         0.0600 
    144 H144       -1.8508  -20.1566  -47.8950 H         1 UNK         0.3000 
    145 H145       -2.8495  -19.3409  -46.1453 H         1 UNK         0.0600 
    146 H146       -4.8753  -19.4911  -44.7631 H         1 UNK         0.0600 
    147 H147       -5.1020  -20.4315  -46.2284 H         1 UNK         0.0600 
    148 H148       -4.7608  -21.2496  -44.7084 H         1 UNK         0.0600 
    149 H149       -2.7980  -20.3610  -43.5045 H         1 UNK         0.3000 
    150 H150       -1.1865  -19.6732  -42.1309 H         1 UNK         0.0600 
    151 H151        1.2641  -21.1960  -43.1839 H         1 UNK         0.0600 
    152 H152       -0.1999  -21.9364  -42.5484 H         1 UNK         0.0600 
    153 H153        0.8291  -20.9859  -41.4874 H         1 UNK         0.0600 
    154 H154        1.4872  -18.7885  -42.7914 H         1 UNK         0.3000 
    155 H155        0.7701  -15.4827  -43.5946 H         1 UNK         0.0600 
    156 H156        1.7373  -16.3423  -40.8150 H         1 UNK         0.0600 
    157 H157        0.4408  -15.2004  -41.1500 H         1 UNK         0.0600 
    158 H158        2.0885  -14.7973  -41.5948 H         1 UNK         0.0600 
    159 H159        3.1878  -16.8312  -42.7911 H         1 UNK         0.3000 
    160 H160        3.8580  -18.7449  -45.1992 H         1 UNK         0.0600 
    161 H161        4.6908  -16.1030  -46.4972 H         1 UNK         0.0600 
    162 H162        3.7475  -17.3691  -47.2779 H         1 UNK         0.0600 
    163 H163        5.4034  -17.6827  -46.7928 H         1 UNK         0.0600 
    164 H164        5.3940  -16.4144  -44.1444 H         1 UNK         0.3000 
    165 H165        6.3330  -18.1273  -41.2300 H         1 UNK         0.0600 
    166 H166        8.0216  -19.1469  -42.7667 H         1 UNK         0.0600 
    167 H167        8.1957  -17.6134  -43.6120 H         1 UNK         0.0600 
    168 H168        8.6879  -17.7577  -41.9238 H         1 UNK         0.0600 
    169 H169        7.2511  -15.6836  -42.3971 H         1 UNK         0.3000 
    170 H170        5.0896  -13.6824  -40.5362 H         1 UNK         0.0600 
    171 H171        7.5839  -13.9028  -40.7357 H         1 UNK         0.0600 
    172 H172        7.4674  -13.6661  -42.4786 H         1 UNK         0.0600 
    173 H173        6.9910  -12.3822  -41.3779 H         1 UNK         0.0600 
    174 H174        4.0569  -12.6889  -42.2353 H         1 UNK         0.3000 
    175 H175        4.6179  -12.2902  -45.5449 H         1 UNK         0.0600 
    176 H176        2.2724  -12.8963  -46.1665 H         1 UNK         0.0600 
    177 H177        3.3367  -14.2872  -46.1509 H         1 UNK         0.0600 
    178 H178        2.2190  -14.0357  -44.8203 H         1 UNK         0.0600 
    179 H179        2.3189  -11.7203  -43.8544 H         1 UNK         0.3000 
    180 H180        3.4882   -8.9784  -42.2800 H         1 UNK         0.0600 
    181 H181        2.4929   -8.3613  -45.1125 H         1 UNK         0.0600 
    182 H182        3.9333   -7.6953  -44.3524 H         1 UNK         0.0600 
    183 H183        2.3462   -7.2874  -43.7218 H         1 UNK         0.0600 
    184 H184        1.0420   -9.8558  -43.7485 H         1 UNK         0.3000 
    185 H185       -0.3419  -11.3608  -40.8890 H         1 UNK         0.0600 
    186 H186       -2.2552   -9.7956  -41.1050 H         1 UNK         0.0600 
    187 H187       -0.9143   -8.9975  -40.3000 H         1 UNK         0.0600 
    188 H188       -1.2511   -8.6467  -41.9910 H         1 UNK         0.0600 
    189 H189       -1.5408  -10.6829  -43.3756 H         1 UNK         0.3000 
    190 H190       -4.0425  -21.5461  -48.8385 H         1 UNK         0.3000 
    191 H191       -4.9435  -23.8220  -50.4050 H         1 UNK         0.0600 
    192 H192       -5.9530  -21.5683  -50.6890 H         1 UNK         0.0600 
    193 H193       -7.1695  -22.7061  -50.1406 H         1 UNK         0.0600 
    194 H194       -6.4721  -21.5603  -49.0029 H         1 UNK         0.0600 
    195 H195       -4.3222  -23.4346  -47.0639 H         1 UNK         0.3000 
    196 H196       -6.1503  -25.6805  -46.3180 H         1 UNK         0.0600 
    197 H197       -5.6548  -25.0320  -43.9962 H         1 UNK         0.0600 
    198 H198       -6.2920  -23.6464  -44.8691 H         1 UNK         0.0600 
    199 H199       -4.5660  -23.7603  -44.5302 H         1 UNK         0.0600 
    200 H200       -2.7465  -24.5162  -46.2763 H         1 UNK         0.3000 
    201 H201       -1.6144  -26.9154  -45.2413 H         1 UNK         0.0600 
    202 H202        0.5321  -25.8467  -45.8720 H         1 UNK         0.0600 
    203 H203       -0.3130  -24.6662  -46.8633 H         1 UNK         0.0600 
    204 H204       -0.5308  -24.6695  -45.1139 H         1 UNK         0.0600 
    205 H205       -2.3507  -25.9006  -48.5627 H         1 UNK         0.3000 
    206 H206       -1.6635  -28.5739  -49.6068 H         1 UNK         0.0600 
    207 H207        0.2612  -26.9769  -50.1136 H         1 UNK         0.0600 
    208 H208       -0.5470  -27.5458  -51.5603 H         1 UNK         0.0600 
    209 H209       -0.8733  -25.9245  -50.9554 H         1 UNK         0.0600 
    210 H210       -2.4407  -28.0252  -52.2337 H         1 UNK         0.3000 
    211 H211       -5.3192  -28.0808  -52.0243 H         1 UNK         0.0600 
    212 H212       -3.4553  -28.0065  -54.4640 H         1 UNK         0.0600 
    213 H213       -5.1771  -28.3655  -54.5060 H         1 UNK         0.0600 
    214 H214       -4.0779  -29.4596  -53.6832 H         1 UNK         0.0600 
    215 H215       -6.8002  -26.5036  -52.5102 H         1 UNK         0.3000 
    216 H216       -6.1043  -23.7608  -52.4946 H         1 UNK         0.0600 
    217 H217       -8.5407  -23.4205  -52.8927 H         1 UNK         0.0600 
    218 H218       -8.2629  -24.6320  -51.6522 H         1 UNK         0.0600 
    219 H219       -8.7302  -25.1268  -53.2805 H         1 UNK         0.0600 
    220 H220       -6.4458  -25.9847  -55.1769 H         1 UNK         0.3000 
    221 H221       -6.6489  -23.9985  -57.2757 H         1 UNK         0.0600 
    222 H222       -5.8356  -26.9556  -57.3459 H         1 UNK         0.0600 
    223 H223       -7.4673  -26.3253  -57.5763 H         1 UNK         0.0600 
    224 H224       -6.2118  -25.9641  -58.7499 H         1 UNK         0.0600 
    225 H225       -3.9867  -25.4129  -55.4454 H         1 UNK         0.3000 
    226 H226       -1.9121  -24.4915  -57.3433 H         1 UNK         0.0600 
    227 H227       -0.3743  -25.6190  -55.7629 H         1 UNK         0.0600 
    228 H228       -1.6985  -25.9524  -54.6555 H         1 UNK         0.0600 
    229 H229       -1.6591  -26.7165  -56.2441 H         1 UNK         0.0600 
    230 H230       -3.3894  -23.6680  -54.2495 H         1 UNK         0.3000 
    231 H231       -1.5465  -21.8087  -53.2471 H         1 UNK         0.0600 
    232 H232       -4.5946  -21.9185  -52.8972 H         1 UNK         0.0600 
    233 H233       -3.4652  -21.1433  -51.7992 H         1 UNK         0.0600 
    234 H234       -3.4359  -22.8927  -51.9971 H         1 UNK         0.0600 
    235 H235       -1.5682  -19.5437  -53.1223 H         1 UNK         0.3000 
    236 H236       -1.9829  -18.0458  -55.4457 H         1 UNK         0.0600 
    237 H237       -0.3553  -17.4651  -53.6548 H         1 UNK         0.0600 
    238 H238       -1.4288  -16.1105  -53.9622 H         1 UNK         0.0600 
    239 H239       -1.6752  -17.1117  -52.5378 H         1 UNK         0.0600 
    240 H240       -4.2372  -18.7105  -52.8402 H         1 UNK         0.3000 
    241 H241       -6.1485  -16.6452  -53.6129 H         1 UNK         0.0600 
    242 H242       -5.4106  -19.6451  -55.1426 H         1 UNK         0.3800 
    243 H243       -6.9926  -19.8927  -55.8255 H         1 UNK         0.3800 
    244 H244       -7.5948  -17.5340  -51.8608 H         1 UNK         0.0800 
    245 H245       -6.6019  -18.9491  -51.6688 H         1 UNK         0.0800 
    246 H246       -4.9620  -19.2481  -50.1493 H         1 UNK         0.0800 
    247 H247       -5.7028  -18.4507  -48.7850 H         1 UNK         0.0800 
@<TRIPOS>BOND
     1    1    2 1    
     2    1  127 1    
     3    1  128 1    
     4    1  129 1    
     5    2    3 2    
     6    2    4 am   BACKBONE|DICT|INTERRES
     7    4    5 1    
     8    4  130 1    
     9    5    6 1    
    10    5   65 1    
    11    5  131 1    
    12    6    7 1    
    13    6  132 1    
    14    6  133 1    
    15    7    8 1    
    16    8    9 1    
    17    8  134 1    
    18    8  135 1    
    19    9   10 ar   
    20    9   14 ar   
    21   10   11 ar   
    22   10  136 1    
    23   11   12 ar   
    24   11  126 1    
    25   12   13 ar   
    26   12  137 1    
    27   13   14 ar   
    28   13   15 1    
    29   14  138 1    
    30   15   16 1    
    31   15  139 1    
    32   15  140 1    
    33   16   17 1    
    34   17   18 1    
    35   17  141 1    
    36   17  142 1    
    37   18   19 1    
    38   18   67 1    
    39   18  143 1    
    40   19   20 am   BACKBONE|DICT|INTERRES
    41   19  144 1    
    42   20   21 2    
    43   20   22 1    
    44   22   23 1    
    45   22   24 1    
    46   22  145 1    
    47   23  146 1    
    48   23  147 1    
    49   23  148 1    
    50   24   25 am   BACKBONE|DICT|INTERRES
    51   24  149 1    
    52   25   26 2    
    53   25   27 1    
    54   27   28 1    
    55   27   29 1    
    56   27  150 1    
    57   28  151 1    
    58   28  152 1    
    59   28  153 1    
    60   29   30 am   BACKBONE|DICT|INTERRES
    61   29  154 1    
    62   30   31 2    
    63   30   32 1    
    64   32   33 1    
    65   32   34 1    
    66   32  155 1    
    67   33  156 1    
    68   33  157 1    
    69   33  158 1    
    70   34   35 am   BACKBONE|DICT|INTERRES
    71   34  159 1    
    72   35   36 2    
    73   35   37 1    
    74   37   38 1    
    75   37   39 1    
    76   37  160 1    
    77   38  161 1    
    78   38  162 1    
    79   38  163 1    
    80   39   40 am   BACKBONE|DICT|INTERRES
    81   39  164 1    
    82   40   41 2    
    83   40   42 1    
    84   42   43 1    
    85   42   44 1    
    86   42  165 1    
    87   43  166 1    
    88   43  167 1    
    89   43  168 1    
    90   44   45 am   BACKBONE|DICT|INTERRES
    91   44  169 1    
    92   45   46 2    
    93   45   47 1    
    94   47   48 1    
    95   47   49 1    
    96   47  170 1    
    97   48  171 1    
    98   48  172 1    
    99   48  173 1    
   100   49   50 am   BACKBONE|DICT|INTERRES
   101   49  174 1    
   102   50   51 2    
   103   50   52 1    
   104   52   53 1    
   105   52   54 1    
   106   52  175 1    
   107   53  176 1    
   108   53  177 1    
   109   53  178 1    
   110   54   55 am   BACKBONE|DICT|INTERRES
   111   54  179 1    
   112   55   56 2    
   113   55   57 1    
   114   57   58 1    
   115   57   59 1    
   116   57  180 1    
   117   58  181 1    
   118   58  182 1    
   119   58  183 1    
   120   59   60 am   BACKBONE|DICT|INTERRES
   121   59  184 1    
   122   60   61 2    
   123   60   62 1    
   124   62   63 1    
   125   62   64 1    
   126   62  185 1    
   127   63  186 1    
   128   63  187 1    
   129   63  188 1    
   130   64   65 am   BACKBONE|DICT|INTERRES
   131   64  189 1    
   132   65   66 2    
   133   67   68 2    
   134   67   69 am   BACKBONE|DICT|INTERRES
   135   69   70 1    
   136   69  190 1    
   137   70   71 1    
   138   70   72 1    
   139   70  191 1    
   140   71  192 1    
   141   71  193 1    
   142   71  194 1    
   143   72   73 2    
   144   72   74 am   BACKBONE|DICT|INTERRES
   145   74   75 1    
   146   74  195 1    
   147   75   76 1    
   148   75   77 1    
   149   75  196 1    
   150   76  197 1    
   151   76  198 1    
   152   76  199 1    
   153   77   78 2    
   154   77   79 am   BACKBONE|DICT|INTERRES
   155   79   80 1    
   156   79  200 1    
   157   80   81 1    
   158   80   82 1    
   159   80  201 1    
   160   81  202 1    
   161   81  203 1    
   162   81  204 1    
   163   82   83 2    
   164   82   84 am   BACKBONE|DICT|INTERRES
   165   84   85 1    
   166   84  205 1    
   167   85   86 1    
   168   85   87 1    
   169   85  206 1    
   170   86  207 1    
   171   86  208 1    
   172   86  209 1    
   173   87   88 2    
   174   87   89 am   BACKBONE|DICT|INTERRES
   175   89   90 1    
   176   89  210 1    
   177   90   91 1    
   178   90   92 1    
   179   90  211 1    
   180   91  212 1    
   181   91  213 1    
   182   91  214 1    
   183   92   93 2    
   184   92   94 am   BACKBONE|DICT|INTERRES
   185   94   95 1    
   186   94  215 1    
   187   95   96 1    
   188   95   97 1    
   189   95  216 1    
   190   96  217 1    
   191   96  218 1    
   192   96  219 1    
   193   97   98 2    
   194   97   99 am   BACKBONE|DICT|INTERRES
   195   99  100 1    
   196   99  220 1    
   197  100  101 1    
   198  100  102 1    
   199  100  221 1    
   200  101  222 1    
   201  101  223 1    
   202  101  224 1    
   203  102  103 2    
   204  102  104 am   BACKBONE|DICT|INTERRES
   205  104  105 1    
   206  104  225 1    
   207  105  106 1    
   208  105  107 1    
   209  105  226 1    
   210  106  227 1    
   211  106  228 1    
   212  106  229 1    
   213  107  108 2    
   214  107  109 am   BACKBONE|DICT|INTERRES
   215  109  110 1    
   216  109  230 1    
   217  110  111 1    
   218  110  112 1    
   219  110  231 1    
   220  111  232 1    
   221  111  233 1    
   222  111  234 1    
   223  112  113 2    
   224  112  114 am   BACKBONE|DICT|INTERRES
   225  114  115 1    
   226  114  235 1    
   227  115  116 1    
   228  115  117 1    
   229  115  236 1    
   230  116  237 1    
   231  116  238 1    
   232  116  239 1    
   233  117  118 2    
   234  117  119 am   BACKBONE|DICT|INTERRES
   235  119  120 1    
   236  119  240 1    
   237  120  121 1    
   238  120  124 1    
   239  120  241 1    
   240  121  122 am   BACKBONE|DICT|INTERRES
   241  121  123 2    
   242  122  242 1    
   243  122  243 1    
   244  124  125 1    
   245  124  244 1    
   246  124  245 1    
   247  125  126 1    
   248  126  246 1    
   249  126  247 1    
@<TRIPOS>SUBSTRUCTURE
     1 UNK         1 GROUP             0       ****    0 ROOT    
