@<TRIPOS>MOLECULE
3R540
247   249    1
SMALL
USER_CHARGES


@<TRIPOS>ATOM
      1 CA          1.1958  -13.7637  -52.7505 C.3       0 UNK        -0.1800 
      2 C           2.0633  -13.4818  -51.5317 C.2       0 UNK         0.5000 
      3 O           3.1317  -12.8844  -51.6602 O.2       0 UNK        -0.5000 
      4 N           1.6052  -13.9079  -50.3494 N.am      1 UNK        -0.5000 
      5 CA          2.3029  -13.7644  -49.0654 C.3       1 UNK         0.1400 
      6 C6          1.8142  -14.8231  -48.0474 C.3       23 UNK        -0.0398 
      7 S7          0.0216  -14.7157  -47.6873 S.3       23 UNK        -0.2404 
      8 C8         -0.4186  -16.4555  -47.4121 C.3       23 UNK        -0.0205 
      9 C9         -0.2436  -17.3068  -48.6592 C.ar      23 UNK        -0.0193 
     10 C10        -1.0661  -17.1039  -49.7705 C.ar      23 UNK        -0.1150 
     11 C11        -0.9200  -17.8950  -50.9126 C.ar      23 UNK        -0.0193 
     12 C12         0.0571  -18.8935  -50.9333 C.ar      23 UNK        -0.1150 
     13 C13         0.8873  -19.1104  -49.8316 C.ar      23 UNK        -0.0193 
     14 C14         0.7342  -18.3049  -48.6975 C.ar      23 UNK        -0.1150 
     15 C15         1.9544  -20.1998  -49.9088 C.3       23 UNK        -0.0205 
     16 S16         2.2195  -21.1102  -48.3517 S.3       23 UNK        -0.2404 
     17 C17         0.5442  -21.7453  -48.0009 C.3       23 UNK        -0.0398 
     18 CA          0.5843  -23.0240  -47.1319 C.3       11 UNK         0.1400 
     19 N           1.2046  -22.7839  -45.8242 N.am      11 UNK        -0.5000 
     20 C           1.7408  -23.7227  -45.0345 C.2       10 UNK         0.5000 
     21 O           1.7251  -24.9259  -45.2977 O.2       10 UNK        -0.5000 
     22 CA          2.3648  -23.2324  -43.7159 C.3       10 UNK         0.1400 
     23 CB          3.7388  -22.5896  -43.9612 C.3       10 UNK        -0.1800 
     24 N           1.4951  -22.2813  -43.0222 N.am      10 UNK        -0.5000 
     25 C           0.3859  -22.6258  -42.3536 C.2       9 UNK         0.5000 
     26 O           0.0099  -23.7896  -42.2160 O.2       9 UNK        -0.5000 
     27 CA         -0.4545  -21.4866  -41.7446 C.3       9 UNK         0.1400 
     28 CB          0.0566  -21.1320  -40.3401 C.3       9 UNK        -0.1800 
     29 N          -0.4761  -20.2786  -42.5690 N.am      9 UNK        -0.5000 
     30 C          -1.0340  -20.1937  -43.7846 C.2       8 UNK         0.5000 
     31 O          -1.6384  -21.1170  -44.3261 O.2       8 UNK        -0.5000 
     32 CA         -0.8360  -18.8706  -44.5471 C.3       8 UNK         0.1400 
     33 CB         -1.8809  -17.8298  -44.1194 C.3       8 UNK        -0.1800 
     34 N           0.5096  -18.3155  -44.3829 N.am      8 UNK        -0.5000 
     35 C           1.6350  -18.9422  -44.7558 C.2       7 UNK         0.5000 
     36 O           1.6540  -20.0567  -45.2707 O.2       7 UNK        -0.5000 
     37 CA          2.9622  -18.2313  -44.4576 C.3       7 UNK         0.1400 
     38 CB          3.2387  -17.1337  -45.4935 C.3       7 UNK        -0.1800 
     39 N           2.9631  -17.6610  -43.1130 N.am      7 UNK        -0.5000 
     40 C           3.0378  -18.3905  -41.9906 C.2       6 UNK         0.5000 
     41 O           3.1838  -19.6131  -41.9757 O.2       6 UNK        -0.5000 
     42 CA          2.8813  -17.6257  -40.6637 C.3       6 UNK         0.1400 
     43 CB          4.2288  -17.0447  -40.2100 C.3       6 UNK        -0.1800 
     44 N           1.8919  -16.5491  -40.7477 N.am      6 UNK        -0.5000 
     45 C           0.5791  -16.7428  -40.9372 C.2       5 UNK         0.5000 
     46 O           0.0602  -17.8540  -41.0374 O.2       5 UNK        -0.5000 
     47 CA         -0.2949  -15.4836  -41.0776 C.3       5 UNK         0.1400 
     48 CB         -0.7634  -14.9969  -39.6983 C.3       5 UNK        -0.1800 
     49 N           0.3659  -14.3815  -41.7825 N.am      5 UNK        -0.5000 
     50 C           0.7704  -14.4239  -43.0585 C.2       4 UNK         0.5000 
     51 O           0.6939  -15.4295  -43.7686 O.2       4 UNK        -0.5000 
     52 CA          1.3627  -13.1257  -43.6358 C.3       4 UNK         0.1400 
     53 CB          2.7985  -13.3452  -44.1356 C.3       4 UNK        -0.1800 
     54 N           0.5336  -12.6262  -44.7309 N.am      4 UNK        -0.5000 
     55 C          -0.6715  -12.0625  -44.5681 C.2       3 UNK         0.5000 
     56 O          -1.1620  -11.8292  -43.4614 O.2       3 UNK        -0.5000 
     57 CA         -1.4655  -11.7204  -45.8481 C.3       3 UNK         0.1400 
     58 CB         -2.5601  -10.6577  -45.6137 C.3       3 UNK        -0.1800 
     59 N          -0.6254  -11.3609  -46.9965 N.am      3 UNK        -0.5000 
     60 C           0.1907  -10.3025  -47.1235 C.2       2 UNK         0.5000 
     61 O           0.3663   -9.4568  -46.2448 O.2       2 UNK        -0.5000 
     62 CA          0.9228  -10.1847  -48.4804 C.3       2 UNK         0.1400 
     63 CB          2.1038   -9.1909  -48.4564 C.3       2 UNK        -0.1800 
     64 N           1.3314  -11.4935  -49.0084 N.am      2 UNK        -0.5000 
     65 C           2.2075  -12.3472  -48.4549 C.2       1 UNK         0.5000 
     66 O           2.8850  -12.0829  -47.4613 O.2       1 UNK        -0.5000 
     67 C          -0.8135  -23.6706  -47.0317 C.2       11 UNK         0.5000 
     68 O          -1.3666  -24.0522  -48.0638 O.2       11 UNK        -0.5000 
     69 N          -1.3555  -23.8289  -45.8143 N.am      12 UNK        -0.5000 
     70 CA         -2.6188  -24.5119  -45.5154 C.3       12 UNK         0.1400 
     71 CB         -2.8995  -24.4289  -44.0088 C.3       12 UNK        -0.1800 
     72 C          -2.6620  -25.9789  -45.9873 C.2       12 UNK         0.5000 
     73 O          -3.7434  -26.4805  -46.2930 O.2       12 UNK        -0.5000 
     74 N          -1.4892  -26.6175  -46.1142 N.am      13 UNK        -0.5000 
     75 CA         -1.3062  -27.9345  -46.7323 C.3       13 UNK         0.1400 
     76 CB          0.1528  -28.3726  -46.5360 C.3       13 UNK        -0.1800 
     77 C          -1.6842  -27.9735  -48.2305 C.2       13 UNK         0.5000 
     78 O          -2.0313  -29.0399  -48.7385 O.2       13 UNK        -0.5000 
     79 N          -1.6359  -26.8120  -48.8961 N.am      14 UNK        -0.5000 
     80 CA         -2.0745  -26.5807  -50.2721 C.3       14 UNK         0.1400 
     81 CB         -0.9078  -25.9514  -51.0543 C.3       14 UNK        -0.1800 
     82 C          -3.3438  -25.7001  -50.3113 C.2       14 UNK         0.5000 
     83 O          -3.6458  -25.1180  -51.3518 O.2       14 UNK        -0.5000 
     84 N          -4.0607  -25.6187  -49.1786 N.am      15 UNK        -0.5000 
     85 CA         -5.3044  -24.8790  -48.9328 C.3       15 UNK         0.1400 
     86 CB         -6.4435  -25.3692  -49.8522 C.3       15 UNK        -0.1800 
     87 C          -5.1629  -23.3403  -48.8973 C.2       15 UNK         0.5000 
     88 O          -6.1824  -22.6502  -48.8808 O.2       15 UNK        -0.5000 
     89 N          -3.9228  -22.8337  -48.8168 N.am      16 UNK        -0.5000 
     90 CA         -3.5379  -21.4302  -48.6330 C.3       16 UNK         0.1400 
     91 CB         -3.7982  -20.9906  -47.1754 C.3       16 UNK        -0.1800 
     92 C          -4.1383  -20.4774  -49.6889 C.2       16 UNK         0.5000 
     93 O          -3.7139  -20.5270  -50.8415 O.2       16 UNK        -0.5000 
     94 N          -5.0786  -19.6195  -49.2791 N.am      17 UNK        -0.5000 
     95 CA         -5.7082  -18.5718  -50.0775 C.3       17 UNK         0.1400 
     96 CB         -4.9476  -17.2620  -49.8038 C.3       17 UNK        -0.1800 
     97 C          -7.1889  -18.4516  -49.6539 C.2       17 UNK         0.5000 
     98 O          -7.5272  -18.9026  -48.5573 O.2       17 UNK        -0.5000 
     99 N          -8.0806  -17.8241  -50.4371 N.am      18 UNK        -0.5000 
    100 CA        -7.8979  -17.2707  -51.7829 C.3       18 UNK         0.1400 
    101 CB        -9.1004  -16.3696  -52.1045 C.3       18 UNK        -0.1800 
    102 C         -7.7561  -18.3673  -52.8521 C.2       18 UNK         0.5000 
    103 O         -8.2497  -19.4796  -52.6542 O.2       18 UNK        -0.5000 
    104 N         -7.0756  -18.0225  -53.9562 N.am      19 UNK        -0.5000 
    105 CA        -6.6353  -18.9222  -55.0292 C.3       19 UNK         0.1400 
    106 CB        -7.8388  -19.4436  -55.8472 C.3       19 UNK        -0.1800 
    107 C         -5.7231  -20.0202  -54.4464 C.2       19 UNK         0.5000 
    108 O         -4.7080  -19.6699  -53.8429 O.2       19 UNK        -0.5000 
    109 N         -6.1153  -21.2949  -54.5889 N.am      20 UNK        -0.5000 
    110 CA        -5.5396  -22.4721  -53.9326 C.3       20 UNK         0.1400 
    111 CB        -5.9584  -22.4941  -52.4490 C.3       20 UNK        -0.1800 
    112 C         -4.0221  -22.6076  -54.1707 C.2       20 UNK         0.5000 
    113 O         -3.6288  -22.9514  -55.2872 O.2       20 UNK        -0.5000 
    114 N         -3.1940  -22.2992  -53.1628 N.am      21 UNK        -0.5000 
    115 CA        -1.7323  -22.3484  -53.2477 C.3       21 UNK         0.1400 
    116 CB        -1.1385  -22.2464  -51.8343 C.3       21 UNK        -0.1800 
    117 C         -1.1404  -21.2728  -54.1844 C.2       21 UNK         0.5000 
    118 O         -0.0210  -21.4467  -54.6674 O.2       21 UNK        -0.5000 
    119 N         -1.9093  -20.2095  -54.4501 N.am      22 UNK        -0.5000 
    120 CA        -1.6318  -19.1765  -55.4597 C.3       22 UNK         0.1400 
    121 C         -2.3231  -19.4638  -56.8272 C.2       22 UNK         0.5000 
    122 N         -3.0059  -20.5869  -57.0234 N.am      22 UNK        -0.7600 
    123 O         -2.2248  -18.6560  -57.7468 O.2       22 UNK        -0.5000 
    124 C124       -1.9812  -17.7582  -54.9314 C.3       23 UNK        -0.0398 
    125 S125       -0.8621  -17.2256  -53.5940 S.3       23 UNK        -0.2404 
    126 C126       -1.8216  -17.6953  -52.1208 C.3       23 UNK        -0.0205 
    127 H127        0.2845  -14.3003  -52.4841 H         1 UNK         0.0600 
    128 H128        1.7457  -14.3698  -53.4705 H         1 UNK         0.0600 
    129 H129        0.9118  -12.8295  -53.2349 H         1 UNK         0.0600 
    130 H130        0.7229  -14.3991  -50.3039 H         1 UNK         0.3000 
    131 H131        3.3650  -13.9496  -49.2399 H         1 UNK         0.0600 
    132 H132        2.0548  -15.8150  -48.4288 H         1 UNK         0.0800 
    133 H133        2.3645  -14.7331  -47.1119 H         1 UNK         0.0800 
    134 H134        0.1854  -16.8367  -46.5908 H         1 UNK         0.0800 
    135 H135       -1.4577  -16.5110  -47.0859 H         1 UNK         0.0800 
    136 H136       -1.8164  -16.3267  -49.7413 H         1 UNK         0.1150 
    137 H137        0.1750  -19.4968  -51.8223 H         1 UNK         0.1150 
    138 H138        1.3747  -18.4576  -47.8411 H         1 UNK         0.1150 
    139 H139        1.7047  -20.9220  -50.6876 H         1 UNK         0.0800 
    140 H140        2.8966  -19.7388  -50.2068 H         1 UNK         0.0800 
    141 H141       -0.0332  -20.9619  -47.5067 H         1 UNK         0.0800 
    142 H142        0.0510  -21.9431  -48.9545 H         1 UNK         0.0800 
    143 H143        1.2048  -23.7524  -47.6583 H         1 UNK         0.0600 
    144 H144        1.2989  -21.8056  -45.5533 H         1 UNK         0.3000 
    145 H145        2.5128  -24.1015  -43.0712 H         1 UNK         0.0600 
    146 H146        4.2017  -22.2812  -43.0236 H         1 UNK         0.0600 
    147 H147        4.4173  -23.2937  -44.4442 H         1 UNK         0.0600 
    148 H148        3.6689  -21.7105  -44.6022 H         1 UNK         0.0600 
    149 H149        1.7393  -21.3024  -43.0939 H         1 UNK         0.3000 
    150 H150       -1.4811  -21.8471  -41.6529 H         1 UNK         0.0600 
    151 H151        0.0736  -22.0116  -39.6953 H         1 UNK         0.0600 
    152 H152       -0.5855  -20.3914  -39.8630 H         1 UNK         0.0600 
    153 H153        1.0684  -20.7260  -40.3717 H         1 UNK         0.0600 
    154 H154       -0.0545  -19.4459  -42.1678 H         1 UNK         0.3000 
    155 H155       -0.9767  -19.0772  -45.6103 H         1 UNK         0.0600 
    156 H156       -1.8306  -17.6270  -43.0500 H         1 UNK         0.0600 
    157 H157       -1.7423  -16.8848  -44.6442 H         1 UNK         0.0600 
    158 H158       -2.8898  -18.1814  -44.3384 H         1 UNK         0.0600 
    159 H159        0.5764  -17.3808  -43.9906 H         1 UNK         0.3000 
    160 H160        3.7647  -18.9693  -44.5227 H         1 UNK         0.0600 
    161 H161        2.4469  -16.3869  -45.5000 H         1 UNK         0.0600 
    162 H162        3.3023  -17.5536  -46.4981 H         1 UNK         0.0600 
    163 H163        4.1813  -16.6250  -45.2918 H         1 UNK         0.0600 
    164 H164        2.7877  -16.6700  -43.0381 H         1 UNK         0.3000 
    165 H165        2.5436  -18.3383  -39.9080 H         1 UNK         0.0600 
    166 H166        4.6075  -16.3037  -40.9152 H         1 UNK         0.0600 
    167 H167        4.1436  -16.5672  -39.2338 H         1 UNK         0.0600 
    168 H168        4.9816  -17.8293  -40.1222 H         1 UNK         0.0600 
    169 H169        2.2345  -15.6025  -40.6748 H         1 UNK         0.3000 
    170 H170       -1.1784  -15.7603  -41.6558 H         1 UNK         0.0600 
    171 H171       -1.2795  -15.7920  -39.1584 H         1 UNK         0.0600 
    172 H172        0.0734  -14.6696  -39.0801 H         1 UNK         0.0600 
    173 H173       -1.4602  -14.1635  -39.7899 H         1 UNK         0.0600 
    174 H174        0.4477  -13.5119  -41.2755 H         1 UNK         0.3000 
    175 H175        1.3957  -12.3660  -42.8519 H         1 UNK         0.0600 
    176 H176        3.2291  -12.4175  -44.5132 H         1 UNK         0.0600 
    177 H177        3.4429  -13.6998  -43.3304 H         1 UNK         0.0600 
    178 H178        2.8416  -14.0804  -44.9374 H         1 UNK         0.0600 
    179 H179        0.8637  -12.8026  -45.6684 H         1 UNK         0.3000 
    180 H180       -1.9714  -12.6448  -46.1303 H         1 UNK         0.0600 
    181 H181       -3.1146  -10.4537  -46.5297 H         1 UNK         0.0600 
    182 H182       -3.2818  -10.9959  -44.8693 H         1 UNK         0.0600 
    183 H183       -2.1417   -9.7160  -45.2573 H         1 UNK         0.0600 
    184 H184       -0.6686  -12.0061  -47.7729 H         1 UNK         0.3000 
    185 H185        0.1862   -9.7927  -49.1831 H         1 UNK         0.0600 
    186 H186        2.5995   -9.1444  -49.4260 H         1 UNK         0.0600 
    187 H187        1.7591   -8.1836  -48.2203 H         1 UNK         0.0600 
    188 H188        2.8509   -9.4606  -47.7096 H         1 UNK         0.0600 
    189 H189        0.8320  -11.8133  -49.8264 H         1 UNK         0.3000 
    190 H190       -0.8609  -23.4376  -45.0247 H         1 UNK         0.3000 
    191 H191       -3.4130  -23.9794  -46.0411 H         1 UNK         0.0600 
    192 H192       -3.8587  -24.8871  -43.7641 H         1 UNK         0.0600 
    193 H193       -2.9398  -23.3945  -43.6682 H         1 UNK         0.0600 
    194 H194       -2.1329  -24.9445  -43.4297 H         1 UNK         0.0600 
    195 H195       -0.6485  -26.1301  -45.8351 H         1 UNK         0.3000 
    196 H196       -1.9532  -28.6432  -46.2114 H         1 UNK         0.0600 
    197 H197        0.3263  -29.3610  -46.9636 H         1 UNK         0.0600 
    198 H198        0.4093  -28.4276  -45.4778 H         1 UNK         0.0600 
    199 H199        0.8476  -27.6803  -47.0136 H         1 UNK         0.0600 
    200 H200       -1.3664  -25.9715  -48.3944 H         1 UNK         0.3000 
    201 H201       -2.3363  -27.5242  -50.7545 H         1 UNK         0.0600 
    202 H202       -0.0537  -26.6276  -51.0898 H         1 UNK         0.0600 
    203 H203       -0.5731  -25.0213  -50.5951 H         1 UNK         0.0600 
    204 H204       -1.1880  -25.7320  -52.0853 H         1 UNK         0.0600 
    205 H205       -3.7231  -26.1374  -48.3765 H         1 UNK         0.3000 
    206 H206       -5.5934  -25.1479  -47.9160 H         1 UNK         0.0600 
    207 H207       -6.5883  -26.4449  -49.7528 H         1 UNK         0.0600 
    208 H208       -7.3909  -24.8940  -49.5958 H         1 UNK         0.0600 
    209 H209       -6.2485  -25.1580  -50.9023 H         1 UNK         0.0600 
    210 H210       -3.1461  -23.4860  -48.8340 H         1 UNK         0.3000 
    211 H211       -2.4592  -21.3932  -48.7900 H         1 UNK         0.0600 
    212 H212       -4.8504  -21.0712  -46.9012 H         1 UNK         0.0600 
    213 H213       -3.4859  -19.9582  -47.0117 H         1 UNK         0.0600 
    214 H214       -3.2300  -21.6041  -46.4779 H         1 UNK         0.0600 
    215 H215       -5.4650  -19.7190  -48.3495 H         1 UNK         0.3000 
    216 H216       -5.6404  -18.8327  -51.1339 H         1 UNK         0.0600 
    217 H217       -5.3041  -16.4378  -50.4184 H         1 UNK         0.0600 
    218 H218       -3.8880  -17.3838  -50.0147 H         1 UNK         0.0600 
    219 H219       -5.0408  -16.9557  -48.7611 H         1 UNK         0.0600 
    220 H220       -9.0319  -17.7915  -50.1037 H         1 UNK         0.3000 
    221 H221       -7.0017  -16.6518  -51.7992 H         1 UNK         0.0600 
    222 H222      -10.0359  -16.9308  -52.1036 H         1 UNK         0.0600 
    223 H223       -9.1934  -15.5611  -51.3790 H         1 UNK         0.0600 
    224 H224       -8.9961  -15.9095  -53.0881 H         1 UNK         0.0600 
    225 H225       -6.7093  -17.0828  -54.0159 H         1 UNK         0.3000 
    226 H226       -6.0100  -18.3309  -55.6998 H         1 UNK         0.0600 
    227 H227       -8.4191  -18.6141  -56.2513 H         1 UNK         0.0600 
    228 H228       -7.5063  -20.0424  -56.6960 H         1 UNK         0.0600 
    229 H229       -8.5158  -20.0559  -55.2508 H         1 UNK         0.0600 
    230 H230       -6.9535  -21.4672  -55.1248 H         1 UNK         0.3000 
    231 H231       -5.9888  -23.3464  -54.4057 H         1 UNK         0.0600 
    232 H232       -5.4174  -23.2572  -51.8936 H         1 UNK         0.0600 
    233 H233       -7.0210  -22.7148  -52.3493 H         1 UNK         0.0600 
    234 H234       -5.7841  -21.5388  -51.9575 H         1 UNK         0.0600 
    235 H235       -3.5797  -21.9085  -52.3080 H         1 UNK         0.3000 
    236 H236       -1.4587  -23.3238  -53.6549 H         1 UNK         0.0600 
    237 H237       -1.3094  -21.2646  -51.3977 H         1 UNK         0.0600 
    238 H238       -1.5830  -22.9820  -51.1647 H         1 UNK         0.0600 
    239 H239       -0.0620  -22.4189  -51.8480 H         1 UNK         0.0600 
    240 H240       -2.8315  -20.1592  -54.0244 H         1 UNK         0.3000 
    241 H241       -0.5636  -19.1824  -55.6831 H         1 UNK         0.0600 
    242 H242       -3.0801  -21.2981  -56.3050 H         1 UNK         0.3800 
    243 H243       -3.4275  -20.7499  -57.9237 H         1 UNK         0.3800 
    244 H244       -1.8865  -17.0156  -55.7253 H         1 UNK         0.0800 
    245 H245       -3.0179  -17.7080  -54.5958 H         1 UNK         0.0800 
    246 H246       -2.5706  -16.9255  -51.9334 H         1 UNK         0.0800 
    247 H247       -2.3684  -18.6214  -52.2996 H         1 UNK         0.0800 
@<TRIPOS>BOND
     1    1    2 1    
     2    1  127 1    
     3    1  128 1    
     4    1  129 1    
     5    2    3 2    
     6    2    4 am   BACKBONE|DICT|INTERRES
     7    4    5 1    
     8    4  130 1    
     9    5    6 1    
    10    5   65 1    
    11    5  131 1    
    12    6    7 1    
    13    6  132 1    
    14    6  133 1    
    15    7    8 1    
    16    8    9 1    
    17    8  134 1    
    18    8  135 1    
    19    9   10 ar   
    20    9   14 ar   
    21   10   11 ar   
    22   10  136 1    
    23   11   12 ar   
    24   11  126 1    
    25   12   13 ar   
    26   12  137 1    
    27   13   14 ar   
    28   13   15 1    
    29   14  138 1    
    30   15   16 1    
    31   15  139 1    
    32   15  140 1    
    33   16   17 1    
    34   17   18 1    
    35   17  141 1    
    36   17  142 1    
    37   18   19 1    
    38   18   67 1    
    39   18  143 1    
    40   19   20 am   BACKBONE|DICT|INTERRES
    41   19  144 1    
    42   20   21 2    
    43   20   22 1    
    44   22   23 1    
    45   22   24 1    
    46   22  145 1    
    47   23  146 1    
    48   23  147 1    
    49   23  148 1    
    50   24   25 am   BACKBONE|DICT|INTERRES
    51   24  149 1    
    52   25   26 2    
    53   25   27 1    
    54   27   28 1    
    55   27   29 1    
    56   27  150 1    
    57   28  151 1    
    58   28  152 1    
    59   28  153 1    
    60   29   30 am   BACKBONE|DICT|INTERRES
    61   29  154 1    
    62   30   31 2    
    63   30   32 1    
    64   32   33 1    
    65   32   34 1    
    66   32  155 1    
    67   33  156 1    
    68   33  157 1    
    69   33  158 1    
    70   34   35 am   BACKBONE|DICT|INTERRES
    71   34  159 1    
    72   35   36 2    
    73   35   37 1    
    74   37   38 1    
    75   37   39 1    
    76   37  160 1    
    77   38  161 1    
    78   38  162 1    
    79   38  163 1    
    80   39   40 am   BACKBONE|DICT|INTERRES
    81   39  164 1    
    82   40   41 2    
    83   40   42 1    
    84   42   43 1    
    85   42   44 1    
    86   42  165 1    
    87   43  166 1    
    88   43  167 1    
    89   43  168 1    
    90   44   45 am   BACKBONE|DICT|INTERRES
    91   44  169 1    
    92   45   46 2    
    93   45   47 1    
    94   47   48 1    
    95   47   49 1    
    96   47  170 1    
    97   48  171 1    
    98   48  172 1    
    99   48  173 1    
   100   49   50 am   BACKBONE|DICT|INTERRES
   101   49  174 1    
   102   50   51 2    
   103   50   52 1    
   104   52   53 1    
   105   52   54 1    
   106   52  175 1    
   107   53  176 1    
   108   53  177 1    
   109   53  178 1    
   110   54   55 am   BACKBONE|DICT|INTERRES
   111   54  179 1    
   112   55   56 2    
   113   55   57 1    
   114   57   58 1    
   115   57   59 1    
   116   57  180 1    
   117   58  181 1    
   118   58  182 1    
   119   58  183 1    
   120   59   60 am   BACKBONE|DICT|INTERRES
   121   59  184 1    
   122   60   61 2    
   123   60   62 1    
   124   62   63 1    
   125   62   64 1    
   126   62  185 1    
   127   63  186 1    
   128   63  187 1    
   129   63  188 1    
   130   64   65 am   BACKBONE|DICT|INTERRES
   131   64  189 1    
   132   65   66 2    
   133   67   68 2    
   134   67   69 am   BACKBONE|DICT|INTERRES
   135   69   70 1    
   136   69  190 1    
   137   70   71 1    
   138   70   72 1    
   139   70  191 1    
   140   71  192 1    
   141   71  193 1    
   142   71  194 1    
   143   72   73 2    
   144   72   74 am   BACKBONE|DICT|INTERRES
   145   74   75 1    
   146   74  195 1    
   147   75   76 1    
   148   75   77 1    
   149   75  196 1    
   150   76  197 1    
   151   76  198 1    
   152   76  199 1    
   153   77   78 2    
   154   77   79 am   BACKBONE|DICT|INTERRES
   155   79   80 1    
   156   79  200 1    
   157   80   81 1    
   158   80   82 1    
   159   80  201 1    
   160   81  202 1    
   161   81  203 1    
   162   81  204 1    
   163   82   83 2    
   164   82   84 am   BACKBONE|DICT|INTERRES
   165   84   85 1    
   166   84  205 1    
   167   85   86 1    
   168   85   87 1    
   169   85  206 1    
   170   86  207 1    
   171   86  208 1    
   172   86  209 1    
   173   87   88 2    
   174   87   89 am   BACKBONE|DICT|INTERRES
   175   89   90 1    
   176   89  210 1    
   177   90   91 1    
   178   90   92 1    
   179   90  211 1    
   180   91  212 1    
   181   91  213 1    
   182   91  214 1    
   183   92   93 2    
   184   92   94 am   BACKBONE|DICT|INTERRES
   185   94   95 1    
   186   94  215 1    
   187   95   96 1    
   188   95   97 1    
   189   95  216 1    
   190   96  217 1    
   191   96  218 1    
   192   96  219 1    
   193   97   98 2    
   194   97   99 am   BACKBONE|DICT|INTERRES
   195   99  100 1    
   196   99  220 1    
   197  100  101 1    
   198  100  102 1    
   199  100  221 1    
   200  101  222 1    
   201  101  223 1    
   202  101  224 1    
   203  102  103 2    
   204  102  104 am   BACKBONE|DICT|INTERRES
   205  104  105 1    
   206  104  225 1    
   207  105  106 1    
   208  105  107 1    
   209  105  226 1    
   210  106  227 1    
   211  106  228 1    
   212  106  229 1    
   213  107  108 2    
   214  107  109 am   BACKBONE|DICT|INTERRES
   215  109  110 1    
   216  109  230 1    
   217  110  111 1    
   218  110  112 1    
   219  110  231 1    
   220  111  232 1    
   221  111  233 1    
   222  111  234 1    
   223  112  113 2    
   224  112  114 am   BACKBONE|DICT|INTERRES
   225  114  115 1    
   226  114  235 1    
   227  115  116 1    
   228  115  117 1    
   229  115  236 1    
   230  116  237 1    
   231  116  238 1    
   232  116  239 1    
   233  117  118 2    
   234  117  119 am   BACKBONE|DICT|INTERRES
   235  119  120 1    
   236  119  240 1    
   237  120  121 1    
   238  120  124 1    
   239  120  241 1    
   240  121  122 am   BACKBONE|DICT|INTERRES
   241  121  123 2    
   242  122  242 1    
   243  122  243 1    
   244  124  125 1    
   245  124  244 1    
   246  124  245 1    
   247  125  126 1    
   248  126  246 1    
   249  126  247 1    
@<TRIPOS>SUBSTRUCTURE
     1 UNK         1 GROUP             0       ****    0 ROOT    
