@<TRIPOS>MOLECULE
3R540
247   249    1
SMALL
USER_CHARGES


@<TRIPOS>ATOM
      1 CA          0.8486  -11.8314  -47.3930 C.3       0 UNK        -0.1800 
      2 C           2.2882  -12.3231  -47.4236 C.2       0 UNK         0.5000 
      3 O           3.2109  -11.5088  -47.4287 O.2       0 UNK        -0.5000 
      4 N           2.4833  -13.6488  -47.4364 N.am      1 UNK        -0.5000 
      5 CA          3.7820  -14.3195  -47.5968 C.3       1 UNK         0.1400 
      6 C6          3.6056  -15.8452  -47.8017 C.3       23 UNK        -0.0398 
      7 S7          5.0081  -16.5961  -48.6970 S.3       23 UNK        -0.2404 
      8 C8          4.3050  -16.8557  -50.3594 C.3       23 UNK        -0.0205 
      9 C9          3.2518  -17.9548  -50.3725 C.ar      23 UNK        -0.0193 
     10 C10         1.9280  -17.6690  -50.7232 C.ar      23 UNK        -0.1150 
     11 C11         0.9599  -18.6782  -50.7187 C.ar      23 UNK        -0.0193 
     12 C12         1.3238  -19.9768  -50.3503 C.ar      23 UNK        -0.1150 
     13 C13         2.6443  -20.2755  -50.0035 C.ar      23 UNK        -0.0193 
     14 C14         3.6055  -19.2632  -50.0311 C.ar      23 UNK        -0.1150 
     15 C15         3.0306  -21.6876  -49.5874 C.3       23 UNK        -0.0205 
     16 S16         3.5178  -21.7984  -47.8305 S.3       23 UNK        -0.2404 
     17 C17         2.0524  -21.1403  -46.9589 C.3       23 UNK        -0.0398 
     18 CA          1.0734  -22.2285  -46.4600 C.3       11 UNK         0.1400 
     19 N           0.1126  -21.6840  -45.4978 N.am      11 UNK        -0.5000 
     20 C          -0.7718  -22.4104  -44.7996 C.2       10 UNK         0.5000 
     21 O          -0.8348  -23.6391  -44.8402 O.2       10 UNK        -0.5000 
     22 CA         -1.7876  -21.6298  -43.9475 C.3       10 UNK         0.1400 
     23 CB         -1.1575  -21.1918  -42.6173 C.3       10 UNK        -0.1800 
     24 N          -2.3336  -20.4649  -44.6470 N.am      10 UNK        -0.5000 
     25 C          -3.0763  -20.5307  -45.7620 C.2       9 UNK         0.5000 
     26 O          -3.4157  -21.5862  -46.2942 O.2       9 UNK        -0.5000 
     27 CA         -3.4685  -19.1985  -46.4255 C.3       9 UNK         0.1400 
     28 CB         -4.6680  -18.5612  -45.7100 C.3       9 UNK        -0.1800 
     29 N          -2.3628  -18.2437  -46.4863 N.am      9 UNK        -0.5000 
     30 C          -1.2161  -18.4514  -47.1483 C.2       8 UNK         0.5000 
     31 O          -0.9720  -19.4725  -47.7892 O.2       8 UNK        -0.5000 
     32 CA         -0.1388  -17.3599  -47.0227 C.3       8 UNK         0.1400 
     33 CB         -0.4750  -16.1434  -47.8990 C.3       8 UNK        -0.1800 
     34 N           0.0422  -16.9315  -45.6356 N.am      8 UNK        -0.5000 
     35 C           0.4845  -17.7280  -44.6514 C.2       7 UNK         0.5000 
     36 O           0.8471  -18.8921  -44.8190 O.2       7 UNK        -0.5000 
     37 CA          0.4689  -17.1350  -43.2336 C.3       7 UNK         0.1400 
     38 CB          1.6978  -16.2455  -43.0027 C.3       7 UNK        -0.1800 
     39 N          -0.7493  -16.3671  -42.9756 N.am      7 UNK        -0.5000 
     40 C          -1.9697  -16.9110  -42.8569 C.2       6 UNK         0.5000 
     41 O          -2.1894  -18.1190  -42.9285 O.2       6 UNK        -0.5000 
     42 CA         -3.1495  -15.9398  -42.6721 C.3       6 UNK         0.1400 
     43 CB         -3.3353  -15.5929  -41.1876 C.3       6 UNK        -0.1800 
     44 N          -2.9954  -14.7052  -43.4416 N.am      6 UNK        -0.5000 
     45 C          -2.9294  -14.6399  -44.7792 C.2       5 UNK         0.5000 
     46 O          -3.0267  -15.6202  -45.5157 O.2       5 UNK        -0.5000 
     47 CA         -2.6635  -13.2540  -45.3933 C.3       5 UNK         0.1400 
     48 CB         -3.9850  -12.5670  -45.7661 C.3       5 UNK        -0.1800 
     49 N          -1.8927  -12.3758  -44.5085 N.am      5 UNK        -0.5000 
     50 C          -0.6103  -12.5720  -44.1796 C.2       4 UNK         0.5000 
     51 O           0.0713  -13.5158  -44.5921 O.2       4 UNK        -0.5000 
     52 CA          0.0114  -11.5583  -43.2149 C.3       4 UNK         0.1400 
     53 CB          0.1050  -12.1425  -41.7957 C.3       4 UNK        -0.1800 
     54 N           1.3425  -11.2370  -43.7068 N.am      4 UNK        -0.5000 
     55 C           1.9700  -10.0627  -43.5746 C.2       3 UNK         0.5000 
     56 O           1.4925   -9.1029  -42.9670 O.2       3 UNK        -0.5000 
     57 CA          3.3494   -9.9353  -44.2600 C.3       3 UNK         0.1400 
     58 CB          4.2836   -8.9302  -43.5538 C.3       3 UNK        -0.1800 
     59 N           4.0157  -11.2270  -44.4745 N.am      3 UNK        -0.5000 
     60 C           4.4670  -12.0784  -43.5387 C.2       2 UNK         0.5000 
     61 O           4.4327  -11.8472  -42.3295 O.2       2 UNK        -0.5000 
     62 CA          5.0068  -13.4300  -44.0465 C.3       2 UNK         0.1400 
     63 CB          4.9321  -14.5312  -42.9739 C.3       2 UNK        -0.1800 
     64 N           4.2606  -13.8613  -45.2320 N.am      2 UNK        -0.5000 
     65 C           4.7794  -14.0029  -46.4584 C.2       1 UNK         0.5000 
     66 O           5.9735  -13.8500  -46.7187 O.2       1 UNK        -0.5000 
     67 C           0.3567  -22.9386  -47.6262 C.2       11 UNK         0.5000 
     68 O           0.7003  -24.0765  -47.9462 O.2       11 UNK        -0.5000 
     69 N          -0.6513  -22.2763  -48.2115 N.am      12 UNK        -0.5000 
     70 CA         -1.4850  -22.8240  -49.2792 C.3       12 UNK         0.1400 
     71 CB         -2.4326  -21.7438  -49.8107 C.3       12 UNK        -0.1800 
     72 C          -2.2664  -24.0733  -48.8438 C.2       12 UNK         0.5000 
     73 O          -2.2768  -25.0552  -49.5821 O.2       12 UNK        -0.5000 
     74 N          -2.8577  -24.0409  -47.6420 N.am      13 UNK        -0.5000 
     75 CA         -3.5598  -25.1730  -47.0370 C.3       13 UNK         0.1400 
     76 CB         -4.2382  -24.7277  -45.7333 C.3       13 UNK        -0.1800 
     77 C          -2.6418  -26.3859  -46.7951 C.2       13 UNK         0.5000 
     78 O          -3.0371  -27.5105  -47.1031 O.2       13 UNK        -0.5000 
     79 N          -1.4208  -26.1367  -46.2990 N.am      14 UNK        -0.5000 
     80 CA         -0.3801  -27.1498  -46.1041 C.3       14 UNK         0.1400 
     81 CB          0.7811  -26.5452  -45.3003 C.3       14 UNK        -0.1800 
     82 C           0.1271  -27.7539  -47.4286 C.2       14 UNK         0.5000 
     83 O           0.3819  -28.9571  -47.4903 O.2       14 UNK        -0.5000 
     84 N           0.2331  -26.9175  -48.4695 N.am      15 UNK        -0.5000 
     85 CA          0.5995  -27.3073  -49.8333 C.3       15 UNK         0.1400 
     86 CB          1.0701  -26.0547  -50.5913 C.3       15 UNK        -0.1800 
     87 C          -0.5382  -28.0073  -50.6085 C.2       15 UNK         0.5000 
     88 O          -0.2809  -28.5432  -51.6872 O.2       15 UNK        -0.5000 
     89 N          -1.7646  -27.9725  -50.0652 N.am      16 UNK        -0.5000 
     90 CA         -3.0257  -28.4337  -50.6569 C.3       16 UNK         0.1400 
     91 CB         -3.0149  -29.9604  -50.8801 C.3       16 UNK        -0.1800 
     92 C          -3.4250  -27.6320  -51.9164 C.2       16 UNK         0.5000 
     93 O          -4.0185  -28.1837  -52.8454 O.2       16 UNK        -0.5000 
     94 N          -3.0946  -26.3364  -51.9147 N.am      17 UNK        -0.5000 
     95 CA         -3.4609  -25.3543  -52.9284 C.3       17 UNK         0.1400 
     96 CB         -2.2944  -24.3630  -53.0814 C.3       17 UNK        -0.1800 
     97 C          -4.7492  -24.6175  -52.5192 C.2       17 UNK         0.5000 
     98 O          -5.1926  -24.7159  -51.3714 O.2       17 UNK        -0.5000 
     99 N          -5.3244  -23.8724  -53.4701 N.am      18 UNK        -0.5000 
    100 CA        -6.5045  -23.0330  -53.2758 C.3       18 UNK         0.1400 
    101 CB        -7.1088  -22.6972  -54.6501 C.3       18 UNK        -0.1800 
    102 C         -6.1479  -21.7628  -52.4818 C.2       18 UNK         0.5000 
    103 O         -5.7884  -20.7451  -53.0760 O.2       18 UNK        -0.5000 
    104 N         -6.2494  -21.8409  -51.1493 N.am      19 UNK        -0.5000 
    105 CA        -5.9177  -20.7703  -50.2020 C.3       19 UNK         0.1400 
    106 CB        -6.0692  -21.3088  -48.7705 C.3       19 UNK        -0.1800 
    107 C         -6.7228  -19.4683  -50.3850 C.2       19 UNK         0.5000 
    108 O         -6.2333  -18.4025  -50.0141 O.2       19 UNK        -0.5000 
    109 N         -7.9238  -19.5709  -50.9695 N.am      20 UNK        -0.5000 
    110 CA        -8.7655  -18.4319  -51.3371 C.3       20 UNK         0.1400 
    111 CB       -10.2039  -18.9276  -51.5520 C.3       20 UNK        -0.1800 
    112 C         -8.2630  -17.6851  -52.5902 C.2       20 UNK         0.5000 
    113 O         -8.5427  -16.4936  -52.7284 O.2       20 UNK        -0.5000 
    114 N         -7.5531  -18.3897  -53.4828 N.am      21 UNK        -0.5000 
    115 CA        -7.0054  -17.8439  -54.7258 C.3       21 UNK         0.1400 
    116 CB        -7.1111  -18.9064  -55.8310 C.3       21 UNK        -0.1800 
    117 C         -5.5453  -17.3910  -54.5559 C.2       21 UNK         0.5000 
    118 O         -5.1457  -16.4008  -55.1697 O.2       21 UNK        -0.5000 
    119 N         -4.7791  -18.1269  -53.7402 N.am      22 UNK        -0.5000 
    120 CA        -3.3771  -17.8541  -53.3956 C.3       22 UNK         0.1400 
    121 C         -3.1759  -16.4727  -52.7074 C.2       22 UNK         0.5000 
    122 N         -2.1714  -15.7074  -53.1132 N.am      22 UNK        -0.7600 
    123 O         -3.9002  -16.1062  -51.7856 O.2       22 UNK        -0.5000 
    124 C124       -2.8034  -19.0056  -52.5310 C.3       23 UNK        -0.0398 
    125 S125       -0.9872  -19.1556  -52.6387 S.3       23 UNK        -0.2404 
    126 C126       -0.4857  -18.3675  -51.0772 C.3       23 UNK        -0.0205 
    127 H127        0.7041  -11.1324  -46.5701 H         1 UNK         0.0600 
    128 H128        0.1421  -12.6527  -47.2744 H         1 UNK         0.0600 
    129 H129        0.6129  -11.3132  -48.3224 H         1 UNK         0.0600 
    130 H130        1.6780  -14.2546  -47.3956 H         1 UNK         0.3000 
    131 H131        4.2117  -13.9070  -48.5126 H         1 UNK         0.0600 
    132 H132        3.4714  -16.3625  -46.8496 H         1 UNK         0.0800 
    133 H133        2.6971  -16.0444  -48.3699 H         1 UNK         0.0800 
    134 H134        5.1094  -17.1319  -51.0424 H         1 UNK         0.0800 
    135 H135        3.8970  -15.9140  -50.7301 H         1 UNK         0.0800 
    136 H136        1.6496  -16.6602  -50.9939 H         1 UNK         0.1150 
    137 H137        0.5728  -20.7530  -50.3308 H         1 UNK         0.1150 
    138 H138        4.6271  -19.4886  -49.7584 H         1 UNK         0.1150 
    139 H139        2.2172  -22.3868  -49.7850 H         1 UNK         0.0800 
    140 H140        3.8673  -22.0206  -50.2028 H         1 UNK         0.0800 
    141 H141        1.5387  -20.3950  -47.5652 H         1 UNK         0.0800 
    142 H142        2.4400  -20.5907  -46.1005 H         1 UNK         0.0800 
    143 H143        1.6546  -22.9842  -45.9273 H         1 UNK         0.0600 
    144 H144        0.1194  -20.6759  -45.3774 H         1 UNK         0.3000 
    145 H145       -2.6178  -22.3026  -43.7234 H         1 UNK         0.0600 
    146 H146       -0.7419  -22.0458  -42.0809 H         1 UNK         0.0600 
    147 H147       -0.3508  -20.4741  -42.7704 H         1 UNK         0.0600 
    148 H148       -1.8980  -20.7282  -41.9654 H         1 UNK         0.0600 
    149 H149       -2.1389  -19.5568  -44.2353 H         1 UNK         0.3000 
    150 H150       -3.7643  -19.4160  -47.4535 H         1 UNK         0.0600 
    151 H151       -5.5142  -19.2486  -45.6777 H         1 UNK         0.0600 
    152 H152       -5.0000  -17.6599  -46.2258 H         1 UNK         0.0600 
    153 H153       -4.4254  -18.2888  -44.6828 H         1 UNK         0.0600 
    154 H154       -2.5029  -17.3544  -46.0133 H         1 UNK         0.3000 
    155 H155        0.8061  -17.7817  -47.3731 H         1 UNK         0.0600 
    156 H156       -1.4200  -15.6822  -47.6134 H         1 UNK         0.0600 
    157 H157        0.2987  -15.3814  -47.8349 H         1 UNK         0.0600 
    158 H158       -0.5594  -16.4293  -48.9462 H         1 UNK         0.0600 
    159 H159       -0.2630  -15.9981  -45.3977 H         1 UNK         0.3000 
    160 H160        0.5090  -17.9630  -42.5226 H         1 UNK         0.0600 
    161 H161        1.7206  -15.3977  -43.6873 H         1 UNK         0.0600 
    162 H162        2.6190  -16.8105  -43.1510 H         1 UNK         0.0600 
    163 H163        1.7160  -15.8553  -41.9850 H         1 UNK         0.0600 
    164 H164       -0.6579  -15.3621  -42.9492 H         1 UNK         0.3000 
    165 H165       -4.0529  -16.4432  -43.0223 H         1 UNK         0.0600 
    166 H166       -4.2170  -14.9700  -41.0354 H         1 UNK         0.0600 
    167 H167       -3.4699  -16.4956  -40.5901 H         1 UNK         0.0600 
    168 H168       -2.4729  -15.0590  -40.7864 H         1 UNK         0.0600 
    169 H169       -2.9130  -13.8480  -42.9160 H         1 UNK         0.3000 
    170 H170       -2.0882  -13.4067  -46.3088 H         1 UNK         0.0600 
    171 H171       -4.5710  -13.1901  -46.4433 H         1 UNK         0.0600 
    172 H172       -4.5996  -12.3696  -44.8869 H         1 UNK         0.0600 
    173 H173       -3.8069  -11.6182  -46.2725 H         1 UNK         0.0600 
    174 H174       -2.3818  -11.5756  -44.1332 H         1 UNK         0.3000 
    175 H175       -0.6051  -10.6570  -43.1988 H         1 UNK         0.0600 
    176 H176        0.7203  -13.0432  -41.7712 H         1 UNK         0.0600 
    177 H177        0.5416  -11.4230  -41.1027 H         1 UNK         0.0600 
    178 H178       -0.8818  -12.4053  -41.4129 H         1 UNK         0.0600 
    179 H179        1.7803  -11.9731  -44.2414 H         1 UNK         0.3000 
    180 H180        3.1458   -9.5405  -45.2564 H         1 UNK         0.0600 
    181 H181        4.4640   -9.2023  -42.5137 H         1 UNK         0.0600 
    182 H182        3.8524   -7.9285  -43.5563 H         1 UNK         0.0600 
    183 H183        5.2482   -8.8670  -44.0574 H         1 UNK         0.0600 
    184 H184        4.0819  -11.5106  -45.4458 H         1 UNK         0.3000 
    185 H185        6.0592  -13.2715  -44.2891 H         1 UNK         0.0600 
    186 H186        5.5952  -14.3059  -42.1379 H         1 UNK         0.0600 
    187 H187        3.9248  -14.6309  -42.5712 H         1 UNK         0.0600 
    188 H188        5.2343  -15.4985  -43.3754 H         1 UNK         0.0600 
    189 H189        3.2649  -13.9836  -45.1169 H         1 UNK         0.3000 
    190 H190       -0.8578  -21.3251  -47.9134 H         1 UNK         0.3000 
    191 H191       -0.8219  -23.1192  -50.0946 H         1 UNK         0.0600 
    192 H192       -3.0413  -21.3204  -49.0125 H         1 UNK         0.0600 
    193 H193       -3.1052  -22.1490  -50.5679 H         1 UNK         0.0600 
    194 H194       -1.8765  -20.9309  -50.2721 H         1 UNK         0.0600 
    195 H195       -2.8471  -23.1741  -47.1093 H         1 UNK         0.3000 
    196 H196       -4.3404  -25.4842  -47.7345 H         1 UNK         0.0600 
    197 H197       -4.7814  -25.5537  -45.2728 H         1 UNK         0.0600 
    198 H198       -4.9562  -23.9282  -45.9173 H         1 UNK         0.0600 
    199 H199       -3.5127  -24.3639  -45.0055 H         1 UNK         0.0600 
    200 H200       -1.1842  -25.1851  -46.0328 H         1 UNK         0.3000 
    201 H201       -0.8117  -27.9618  -45.5153 H         1 UNK         0.0600 
    202 H202        0.4424  -26.1886  -44.3274 H         1 UNK         0.0600 
    203 H203        1.2386  -25.7045  -45.8225 H         1 UNK         0.0600 
    204 H204        1.5613  -27.2861  -45.1223 H         1 UNK         0.0600 
    205 H205        0.0724  -25.9266  -48.3127 H         1 UNK         0.3000 
    206 H206        1.4360  -28.0069  -49.7796 H         1 UNK         0.0600 
    207 H207        1.9053  -25.5743  -50.0813 H         1 UNK         0.0600 
    208 H208        1.4061  -26.3070  -51.5978 H         1 UNK         0.0600 
    209 H209        0.2700  -25.3204  -50.6877 H         1 UNK         0.0600 
    210 H210       -1.8617  -27.4743  -49.1899 H         1 UNK         0.3000 
    211 H211       -3.7950  -28.2196  -49.9137 H         1 UNK         0.0600 
    212 H212       -2.3229  -30.2521  -51.6703 H         1 UNK         0.0600 
    213 H213       -4.0043  -30.3192  -51.1658 H         1 UNK         0.0600 
    214 H214       -2.7294  -30.4891  -49.9706 H         1 UNK         0.0600 
    215 H215       -2.6972  -25.9484  -51.0598 H         1 UNK         0.3000 
    216 H216       -3.6307  -25.8508  -53.8859 H         1 UNK         0.0600 
    217 H217       -2.4942  -23.6315  -53.8651 H         1 UNK         0.0600 
    218 H218       -1.3726  -24.8801  -53.3491 H         1 UNK         0.0600 
    219 H219       -2.1097  -23.8126  -52.1592 H         1 UNK         0.0600 
    220 H220       -4.8880  -23.8190  -54.3790 H         1 UNK         0.3000 
    221 H221       -7.2529  -23.5936  -52.7114 H         1 UNK         0.0600 
    222 H222       -6.3850  -22.2072  -55.3023 H         1 UNK         0.0600 
    223 H223       -7.4560  -23.5979  -55.1565 H         1 UNK         0.0600 
    224 H224       -7.9663  -22.0304  -54.5499 H         1 UNK         0.0600 
    225 H225       -6.4939  -22.7353  -50.7454 H         1 UNK         0.3000 
    226 H226       -4.8728  -20.5048  -50.3626 H         1 UNK         0.0600 
    227 H227       -5.3987  -22.1497  -48.5896 H         1 UNK         0.0600 
    228 H228       -5.8310  -20.5421  -48.0330 H         1 UNK         0.0600 
    229 H229       -7.0881  -21.6441  -48.5744 H         1 UNK         0.0600 
    230 H230       -8.2593  -20.4885  -51.2221 H         1 UNK         0.3000 
    231 H231       -8.7714  -17.7210  -50.5080 H         1 UNK         0.0600 
    232 H232      -10.8691  -18.0997  -51.8012 H         1 UNK         0.0600 
    233 H233      -10.5977  -19.3989  -50.6512 H         1 UNK         0.0600 
    234 H234      -10.2634  -19.6524  -52.3650 H         1 UNK         0.0600 
    235 H235       -7.3066  -19.3477  -53.2684 H         1 UNK         0.3000 
    236 H236       -7.5909  -16.9774  -55.0405 H         1 UNK         0.0600 
    237 H237       -8.1432  -19.2269  -55.9738 H         1 UNK         0.0600 
    238 H238       -6.7573  -18.5124  -56.7845 H         1 UNK         0.0600 
    239 H239       -6.5142  -19.7889  -55.6005 H         1 UNK         0.0600 
    240 H240       -5.1859  -18.9600  -53.3272 H         1 UNK         0.3000 
    241 H241       -2.8384  -17.8422  -54.3451 H         1 UNK         0.0600 
    242 H242       -1.5597  -15.9937  -53.8617 H         1 UNK         0.3800 
    243 H243       -2.0286  -14.8127  -52.6721 H         1 UNK         0.3800 
    244 H244       -3.1287  -18.9217  -51.4925 H         1 UNK         0.0800 
    245 H245       -3.1967  -19.9612  -52.8807 H         1 UNK         0.0800 
    246 H246       -0.6388  -17.2914  -51.1638 H         1 UNK         0.0800 
    247 H247       -1.1305  -18.7057  -50.2676 H         1 UNK         0.0800 
@<TRIPOS>BOND
     1    1    2 1    
     2    1  127 1    
     3    1  128 1    
     4    1  129 1    
     5    2    3 2    
     6    2    4 am   BACKBONE|DICT|INTERRES
     7    4    5 1    
     8    4  130 1    
     9    5    6 1    
    10    5   65 1    
    11    5  131 1    
    12    6    7 1    
    13    6  132 1    
    14    6  133 1    
    15    7    8 1    
    16    8    9 1    
    17    8  134 1    
    18    8  135 1    
    19    9   10 ar   
    20    9   14 ar   
    21   10   11 ar   
    22   10  136 1    
    23   11   12 ar   
    24   11  126 1    
    25   12   13 ar   
    26   12  137 1    
    27   13   14 ar   
    28   13   15 1    
    29   14  138 1    
    30   15   16 1    
    31   15  139 1    
    32   15  140 1    
    33   16   17 1    
    34   17   18 1    
    35   17  141 1    
    36   17  142 1    
    37   18   19 1    
    38   18   67 1    
    39   18  143 1    
    40   19   20 am   BACKBONE|DICT|INTERRES
    41   19  144 1    
    42   20   21 2    
    43   20   22 1    
    44   22   23 1    
    45   22   24 1    
    46   22  145 1    
    47   23  146 1    
    48   23  147 1    
    49   23  148 1    
    50   24   25 am   BACKBONE|DICT|INTERRES
    51   24  149 1    
    52   25   26 2    
    53   25   27 1    
    54   27   28 1    
    55   27   29 1    
    56   27  150 1    
    57   28  151 1    
    58   28  152 1    
    59   28  153 1    
    60   29   30 am   BACKBONE|DICT|INTERRES
    61   29  154 1    
    62   30   31 2    
    63   30   32 1    
    64   32   33 1    
    65   32   34 1    
    66   32  155 1    
    67   33  156 1    
    68   33  157 1    
    69   33  158 1    
    70   34   35 am   BACKBONE|DICT|INTERRES
    71   34  159 1    
    72   35   36 2    
    73   35   37 1    
    74   37   38 1    
    75   37   39 1    
    76   37  160 1    
    77   38  161 1    
    78   38  162 1    
    79   38  163 1    
    80   39   40 am   BACKBONE|DICT|INTERRES
    81   39  164 1    
    82   40   41 2    
    83   40   42 1    
    84   42   43 1    
    85   42   44 1    
    86   42  165 1    
    87   43  166 1    
    88   43  167 1    
    89   43  168 1    
    90   44   45 am   BACKBONE|DICT|INTERRES
    91   44  169 1    
    92   45   46 2    
    93   45   47 1    
    94   47   48 1    
    95   47   49 1    
    96   47  170 1    
    97   48  171 1    
    98   48  172 1    
    99   48  173 1    
   100   49   50 am   BACKBONE|DICT|INTERRES
   101   49  174 1    
   102   50   51 2    
   103   50   52 1    
   104   52   53 1    
   105   52   54 1    
   106   52  175 1    
   107   53  176 1    
   108   53  177 1    
   109   53  178 1    
   110   54   55 am   BACKBONE|DICT|INTERRES
   111   54  179 1    
   112   55   56 2    
   113   55   57 1    
   114   57   58 1    
   115   57   59 1    
   116   57  180 1    
   117   58  181 1    
   118   58  182 1    
   119   58  183 1    
   120   59   60 am   BACKBONE|DICT|INTERRES
   121   59  184 1    
   122   60   61 2    
   123   60   62 1    
   124   62   63 1    
   125   62   64 1    
   126   62  185 1    
   127   63  186 1    
   128   63  187 1    
   129   63  188 1    
   130   64   65 am   BACKBONE|DICT|INTERRES
   131   64  189 1    
   132   65   66 2    
   133   67   68 2    
   134   67   69 am   BACKBONE|DICT|INTERRES
   135   69   70 1    
   136   69  190 1    
   137   70   71 1    
   138   70   72 1    
   139   70  191 1    
   140   71  192 1    
   141   71  193 1    
   142   71  194 1    
   143   72   73 2    
   144   72   74 am   BACKBONE|DICT|INTERRES
   145   74   75 1    
   146   74  195 1    
   147   75   76 1    
   148   75   77 1    
   149   75  196 1    
   150   76  197 1    
   151   76  198 1    
   152   76  199 1    
   153   77   78 2    
   154   77   79 am   BACKBONE|DICT|INTERRES
   155   79   80 1    
   156   79  200 1    
   157   80   81 1    
   158   80   82 1    
   159   80  201 1    
   160   81  202 1    
   161   81  203 1    
   162   81  204 1    
   163   82   83 2    
   164   82   84 am   BACKBONE|DICT|INTERRES
   165   84   85 1    
   166   84  205 1    
   167   85   86 1    
   168   85   87 1    
   169   85  206 1    
   170   86  207 1    
   171   86  208 1    
   172   86  209 1    
   173   87   88 2    
   174   87   89 am   BACKBONE|DICT|INTERRES
   175   89   90 1    
   176   89  210 1    
   177   90   91 1    
   178   90   92 1    
   179   90  211 1    
   180   91  212 1    
   181   91  213 1    
   182   91  214 1    
   183   92   93 2    
   184   92   94 am   BACKBONE|DICT|INTERRES
   185   94   95 1    
   186   94  215 1    
   187   95   96 1    
   188   95   97 1    
   189   95  216 1    
   190   96  217 1    
   191   96  218 1    
   192   96  219 1    
   193   97   98 2    
   194   97   99 am   BACKBONE|DICT|INTERRES
   195   99  100 1    
   196   99  220 1    
   197  100  101 1    
   198  100  102 1    
   199  100  221 1    
   200  101  222 1    
   201  101  223 1    
   202  101  224 1    
   203  102  103 2    
   204  102  104 am   BACKBONE|DICT|INTERRES
   205  104  105 1    
   206  104  225 1    
   207  105  106 1    
   208  105  107 1    
   209  105  226 1    
   210  106  227 1    
   211  106  228 1    
   212  106  229 1    
   213  107  108 2    
   214  107  109 am   BACKBONE|DICT|INTERRES
   215  109  110 1    
   216  109  230 1    
   217  110  111 1    
   218  110  112 1    
   219  110  231 1    
   220  111  232 1    
   221  111  233 1    
   222  111  234 1    
   223  112  113 2    
   224  112  114 am   BACKBONE|DICT|INTERRES
   225  114  115 1    
   226  114  235 1    
   227  115  116 1    
   228  115  117 1    
   229  115  236 1    
   230  116  237 1    
   231  116  238 1    
   232  116  239 1    
   233  117  118 2    
   234  117  119 am   BACKBONE|DICT|INTERRES
   235  119  120 1    
   236  119  240 1    
   237  120  121 1    
   238  120  124 1    
   239  120  241 1    
   240  121  122 am   BACKBONE|DICT|INTERRES
   241  121  123 2    
   242  122  242 1    
   243  122  243 1    
   244  124  125 1    
   245  124  244 1    
   246  124  245 1    
   247  125  126 1    
   248  126  246 1    
   249  126  247 1    
@<TRIPOS>SUBSTRUCTURE
     1 UNK         1 GROUP             0       ****    0 ROOT    
