@<TRIPOS>MOLECULE
3R540
247   249    1
SMALL
USER_CHARGES


@<TRIPOS>ATOM
      1 CA          0.9112   -9.5590  -46.5305 C.3       0 UNK        -0.1800 
      2 C           0.4597  -11.0053  -46.3925 C.2       0 UNK         0.5000 
      3 O          -0.6837  -11.2533  -46.0082 O.2       0 UNK        -0.5000 
      4 N           1.3563  -11.9582  -46.6884 N.am      1 UNK        -0.5000 
      5 CA          1.1516  -13.4079  -46.5812 C.3       1 UNK         0.1400 
      6 C6          0.1822  -13.9502  -47.6691 C.3       23 UNK        -0.0398 
      7 S7          0.2222  -15.7715  -47.8051 S.3       23 UNK        -0.2404 
      8 C8          1.0291  -16.0121  -49.4142 C.3       23 UNK        -0.0205 
      9 C9          1.2262  -17.4894  -49.7239 C.ar      23 UNK        -0.0193 
     10 C10         0.2527  -18.2014  -50.4339 C.ar      23 UNK        -0.1150 
     11 C11         0.4587  -19.5448  -50.7638 C.ar      23 UNK        -0.0193 
     12 C12         1.6439  -20.1736  -50.3770 C.ar      23 UNK        -0.1150 
     13 C13         2.6182  -19.4797  -49.6555 C.ar      23 UNK        -0.0193 
     14 C14         2.4010  -18.1374  -49.3284 C.ar      23 UNK        -0.1150 
     15 C15         3.9216  -20.1669  -49.2661 C.3       23 UNK        -0.0205 
     16 S16         3.6686  -21.7302  -48.3618 S.3       23 UNK        -0.2404 
     17 C17         2.8966  -21.1310  -46.8249 C.3       23 UNK        -0.0398 
     18 CA          1.6929  -21.9916  -46.3730 C.3       11 UNK         0.1400 
     19 N           1.4341  -21.8236  -44.9415 N.am      11 UNK        -0.5000 
     20 C           0.6077  -22.5819  -44.2093 C.2       10 UNK         0.5000 
     21 O           0.0195  -23.5707  -44.6460 O.2       10 UNK        -0.5000 
     22 CA          0.3680  -22.1330  -42.7541 C.3       10 UNK         0.1400 
     23 CB          1.4526  -22.6902  -41.8204 C.3       10 UNK        -0.1800 
     24 N           0.3057  -20.6761  -42.6163 N.am      10 UNK        -0.5000 
     25 C          -0.6421  -19.9041  -43.1666 C.2       9 UNK         0.5000 
     26 O          -1.6006  -20.3472  -43.7972 O.2       9 UNK        -0.5000 
     27 CA         -0.4588  -18.3809  -43.0396 C.3       9 UNK         0.1400 
     28 CB         -0.9131  -17.8949  -41.6526 C.3       9 UNK        -0.1800 
     29 N           0.9205  -17.9617  -43.3103 N.am      9 UNK        -0.5000 
     30 C           1.5365  -18.1273  -44.4916 C.2       8 UNK         0.5000 
     31 O           0.9758  -18.5748  -45.4886 O.2       8 UNK        -0.5000 
     32 CA          3.0440  -17.8242  -44.5641 C.3       8 UNK         0.1400 
     33 CB          3.3166  -16.3665  -44.9470 C.3       8 UNK        -0.1800 
     34 N           3.7306  -18.1430  -43.3154 N.am      8 UNK        -0.5000 
     35 C           3.9625  -19.3906  -42.8854 C.2       7 UNK         0.5000 
     36 O           3.6724  -20.3987  -43.5285 O.2       7 UNK        -0.5000 
     37 CA          4.5650  -19.5268  -41.4756 C.3       7 UNK         0.1400 
     38 CB          6.0898  -19.3481  -41.5158 C.3       7 UNK        -0.1800 
     39 N           3.9852  -18.5629  -40.5379 N.am      7 UNK        -0.5000 
     40 C           2.7023  -18.5700  -40.1475 C.2       6 UNK         0.5000 
     41 O           1.8996  -19.4424  -40.4772 O.2       6 UNK        -0.5000 
     42 CA          2.2265  -17.3823  -39.2889 C.3       6 UNK         0.1400 
     43 CB          2.3607  -17.7110  -37.7950 C.3       6 UNK        -0.1800 
     44 N           2.9523  -16.1426  -39.5804 N.am      6 UNK        -0.5000 
     45 C           2.8508  -15.4486  -40.7220 C.2       5 UNK         0.5000 
     46 O           2.1094  -15.7648  -41.6543 O.2       5 UNK        -0.5000 
     47 CA          3.8062  -14.2587  -40.8682 C.3       5 UNK         0.1400 
     48 CB          5.1178  -14.7103  -41.5375 C.3       5 UNK        -0.1800 
     49 N           3.1991  -13.1819  -41.6487 N.am      5 UNK        -0.5000 
     50 C           3.5603  -11.8948  -41.5424 C.2       4 UNK         0.5000 
     51 O           4.4142  -11.4928  -40.7503 O.2       4 UNK        -0.5000 
     52 CA          2.8680  -10.8743  -42.4600 C.3       4 UNK         0.1400 
     53 CB          3.5566  -10.8235  -43.8335 C.3       4 UNK        -0.1800 
     54 N           1.4466  -11.1647  -42.6332 N.am      4 UNK        -0.5000 
     55 C           0.4695  -10.6510  -41.8722 C.2       3 UNK         0.5000 
     56 O           0.6743   -9.8825  -40.9315 O.2       3 UNK        -0.5000 
     57 CA         -0.9841  -11.0321  -42.2184 C.3       3 UNK         0.1400 
     58 CB         -1.6813   -9.8761  -42.9525 C.3       3 UNK        -0.1800 
     59 N          -1.0737  -12.2395  -43.0385 N.am      3 UNK        -0.5000 
     60 C          -0.9899  -13.4854  -42.5507 C.2       2 UNK         0.5000 
     61 O          -0.9196  -13.7426  -41.3489 O.2       2 UNK        -0.5000 
     62 CA         -0.9592  -14.6397  -43.5726 C.3       2 UNK         0.1400 
     63 CB         -2.3645  -15.2351  -43.7493 C.3       2 UNK        -0.1800 
     64 N          -0.4366  -14.2706  -44.8880 N.am      2 UNK        -0.5000 
     65 C           0.7871  -13.7809  -45.1249 C.2       1 UNK         0.5000 
     66 O           1.6082  -13.5624  -44.2334 O.2       1 UNK        -0.5000 
     67 C           0.4233  -21.7322  -47.2167 C.2       11 UNK         0.5000 
     68 O           0.0911  -22.5422  -48.0821 O.2       11 UNK        -0.5000 
     69 N          -0.2999  -20.6461  -46.9101 N.am      12 UNK        -0.5000 
     70 CA         -1.5772  -20.2915  -47.5299 C.3       12 UNK         0.1400 
     71 CB         -1.9956  -18.8858  -47.0813 C.3       12 UNK        -0.1800 
     72 C          -2.6934  -21.3075  -47.2335 C.2       12 UNK         0.5000 
     73 O          -3.4877  -21.6087  -48.1218 O.2       12 UNK        -0.5000 
     74 N          -2.7167  -21.8548  -46.0108 N.am      13 UNK        -0.5000 
     75 CA         -3.6525  -22.8985  -45.5833 C.3       13 UNK         0.1400 
     76 CB         -3.5330  -23.0965  -44.0646 C.3       13 UNK        -0.1800 
     77 C          -3.4729  -24.2411  -46.3234 C.2       13 UNK         0.5000 
     78 O          -4.4110  -25.0381  -46.3556 O.2       13 UNK        -0.5000 
     79 N          -2.2915  -24.4654  -46.9150 N.am      14 UNK        -0.5000 
     80 CA         -1.9679  -25.6413  -47.7229 C.3       14 UNK         0.1400 
     81 CB         -0.4589  -25.9182  -47.6153 C.3       14 UNK        -0.1800 
     82 C          -2.4073  -25.5114  -49.1981 C.2       14 UNK         0.5000 
     83 O          -2.2193  -26.4644  -49.9567 O.2       14 UNK        -0.5000 
     84 N          -2.9692  -24.3589  -49.5963 N.am      15 UNK        -0.5000 
     85 CA         -3.5067  -24.1123  -50.9372 C.3       15 UNK         0.1400 
     86 CB         -3.8638  -22.6231  -51.0717 C.3       15 UNK        -0.1800 
     87 C          -4.7420  -24.9774  -51.2591 C.2       15 UNK         0.5000 
     88 O          -5.4376  -25.4432  -50.3518 O.2       15 UNK        -0.5000 
     89 N          -5.0060  -25.1431  -52.5592 N.am      16 UNK        -0.5000 
     90 CA         -6.1976  -25.7948  -53.1007 C.3       16 UNK         0.1400 
     91 CB         -5.9719  -26.0407  -54.6016 C.3       16 UNK        -0.1800 
     92 C          -7.4730  -24.9559  -52.8821 C.2       16 UNK         0.5000 
     93 O          -7.3896  -23.7562  -52.6078 O.2       16 UNK        -0.5000 
     94 N          -8.6384  -25.5982  -53.0534 N.am      17 UNK        -0.5000 
     95 CA         -9.9588  -24.9577  -53.0011 C.3       17 UNK         0.1400 
     96 CB        -11.0523  -26.0347  -53.0659 C.3       17 UNK        -0.1800 
     97 C         -10.1564  -23.9106  -54.1154 C.2       17 UNK         0.5000 
     98 O         -10.7631  -22.8656  -53.8762 O.2       17 UNK        -0.5000 
     99 N          -9.5833  -24.1867  -55.2944 N.am      18 UNK        -0.5000 
    100 CA        -9.3481  -23.2144  -56.3569 C.3       18 UNK         0.1400 
    101 CB        -9.3088  -23.9484  -57.7088 C.3       18 UNK        -0.1800 
    102 C         -8.0278  -22.4914  -56.0381 C.2       18 UNK         0.5000 
    103 O         -6.9728  -22.8914  -56.5290 O.2       18 UNK        -0.5000 
    104 N         -8.1089  -21.4920  -55.1514 N.am      19 UNK        -0.5000 
    105 CA        -6.9700  -20.8363  -54.5012 C.3       19 UNK         0.1400 
    106 CB        -7.4798  -20.1058  -53.2485 C.3       19 UNK        -0.1800 
    107 C         -6.1558  -19.8818  -55.3984 C.2       19 UNK         0.5000 
    108 O         -5.1446  -19.3487  -54.9371 O.2       19 UNK        -0.5000 
    109 N         -6.5880  -19.6720  -56.6501 N.am      20 UNK        -0.5000 
    110 CA        -5.8692  -18.9123  -57.6749 C.3       20 UNK         0.1400 
    111 CB        -6.7210  -18.8559  -58.9523 C.3       20 UNK        -0.1800 
    112 C         -4.4904  -19.5403  -57.9542 C.2       20 UNK         0.5000 
    113 O         -4.4242  -20.7182  -58.3124 O.2       20 UNK        -0.5000 
    114 N         -3.4211  -18.7680  -57.7111 N.am      21 UNK        -0.5000 
    115 CA        -2.0122  -19.1917  -57.7341 C.3       21 UNK         0.1400 
    116 CB        -1.5564  -19.4850  -59.1790 C.3       21 UNK        -0.1800 
    117 C         -1.7150  -20.3568  -56.7589 C.2       21 UNK         0.5000 
    118 O         -0.8846  -21.2169  -57.0562 O.2       21 UNK        -0.5000 
    119 N         -2.4297  -20.3662  -55.6248 N.am      22 UNK        -0.5000 
    120 CA        -2.4696  -21.4254  -54.6017 C.3       22 UNK         0.1400 
    121 C         -3.2328  -22.7137  -55.0384 C.2       22 UNK         0.5000 
    122 N         -3.9043  -22.7443  -56.1821 N.am      22 UNK        -0.7600 
    123 O         -3.2579  -23.6960  -54.3026 O.2       22 UNK        -0.5000 
    124 C124       -1.0942  -21.7494  -53.9527 C.3       23 UNK        -0.0398 
    125 S125       -0.2065  -20.2784  -53.3300 S.3       23 UNK        -0.2404 
    126 C126       -0.5800  -20.3278  -51.5498 C.3       23 UNK        -0.0205 
    127 H127        0.2633   -9.0290  -47.2285 H         1 UNK         0.0600 
    128 H128        1.9363   -9.4866  -46.8945 H         1 UNK         0.0600 
    129 H129        0.8567   -9.0574  -45.5643 H         1 UNK         0.0600 
    130 H130        2.2847  -11.6791  -46.9727 H         1 UNK         0.3000 
    131 H131        2.1308  -13.8521  -46.7660 H         1 UNK         0.0600 
    132 H132        0.4520  -13.5249  -48.6366 H         1 UNK         0.0800 
    133 H133       -0.8437  -13.6249  -47.4908 H         1 UNK         0.0800 
    134 H134        1.9923  -15.4995  -49.4171 H         1 UNK         0.0800 
    135 H135        0.4271  -15.5447  -50.1951 H         1 UNK         0.0800 
    136 H136       -0.6575  -17.7063  -50.7416 H         1 UNK         0.1150 
    137 H137        1.8094  -21.2090  -50.6406 H         1 UNK         0.1150 
    138 H138        3.1533  -17.5880  -48.7800 H         1 UNK         0.1150 
    139 H139        4.4881  -20.3762  -50.1743 H         1 UNK         0.0800 
    140 H140        4.5448  -19.5067  -48.6608 H         1 UNK         0.0800 
    141 H141        2.6100  -20.0842  -46.9263 H         1 UNK         0.0800 
    142 H142        3.6779  -21.1542  -46.0648 H         1 UNK         0.0800 
    143 H143        1.9615  -23.0413  -46.5121 H         1 UNK         0.0600 
    144 H144        1.9251  -21.0679  -44.4783 H         1 UNK         0.3000 
    145 H145       -0.5941  -22.5393  -42.4358 H         1 UNK         0.0600 
    146 H146        1.2530  -22.4237  -40.7823 H         1 UNK         0.0600 
    147 H147        2.4417  -22.3110  -42.0773 H         1 UNK         0.0600 
    148 H148        1.4932  -23.7787  -41.8760 H         1 UNK         0.0600 
    149 H149        1.0292  -20.2350  -42.0562 H         1 UNK         0.3000 
    150 H150       -1.0920  -17.9087  -43.7914 H         1 UNK         0.0600 
    151 H151       -1.9946  -17.9905  -41.5517 H         1 UNK         0.0600 
    152 H152       -0.6621  -16.8497  -41.4780 H         1 UNK         0.0600 
    153 H153       -0.4672  -18.4780  -40.8484 H         1 UNK         0.0600 
    154 H154        1.4292  -17.5197  -42.5537 H         1 UNK         0.3000 
    155 H155        3.4644  -18.4510  -45.3529 H         1 UNK         0.0600 
    156 H156        2.7745  -16.0937  -45.8527 H         1 UNK         0.0600 
    157 H157        4.3766  -16.2018  -45.1398 H         1 UNK         0.0600 
    158 H158        3.0142  -15.6853  -44.1542 H         1 UNK         0.0600 
    159 H159        3.9582  -17.3684  -42.7113 H         1 UNK         0.3000 
    160 H160        4.3454  -20.5333  -41.1129 H         1 UNK         0.0600 
    161 H161        6.3721  -18.3487  -41.8494 H         1 UNK         0.0600 
    162 H162        6.5479  -20.0642  -42.1993 H         1 UNK         0.0600 
    163 H163        6.5315  -19.5111  -40.5325 H         1 UNK         0.0600 
    164 H164        4.5872  -17.8239  -40.2076 H         1 UNK         0.3000 
    165 H165        1.1701  -17.2156  -39.5074 H         1 UNK         0.0600 
    166 H166        1.9600  -16.9073  -37.1769 H         1 UNK         0.0600 
    167 H167        1.8086  -18.6178  -37.5443 H         1 UNK         0.0600 
    168 H168        3.4009  -17.8700  -37.5080 H         1 UNK         0.0600 
    169 H169        3.5905  -15.8209  -38.8665 H         1 UNK         0.3000 
    170 H170        4.0284  -13.8888  -39.8648 H         1 UNK         0.0600 
    171 H171        4.9500  -15.0469  -42.5611 H         1 UNK         0.0600 
    172 H172        5.8452  -13.8991  -41.5703 H         1 UNK         0.0600 
    173 H173        5.5798  -15.5328  -40.9902 H         1 UNK         0.0600 
    174 H174        2.4965  -13.4642  -42.3261 H         1 UNK         0.3000 
    175 H175        2.9838   -9.8885  -42.0042 H         1 UNK         0.0600 
    176 H176        3.5136  -11.7823  -44.3498 H         1 UNK         0.0600 
    177 H177        3.0972  -10.0735  -44.4766 H         1 UNK         0.0600 
    178 H178        4.6095  -10.5588  -43.7290 H         1 UNK         0.0600 
    179 H179        1.2174  -11.8611  -43.3337 H         1 UNK         0.3000 
    180 H180       -1.5141  -11.2007  -41.2785 H         1 UNK         0.0600 
    181 H181       -2.7168  -10.1236  -43.1867 H         1 UNK         0.0600 
    182 H182       -1.1762   -9.6266  -43.8858 H         1 UNK         0.0600 
    183 H183       -1.6941   -8.9752  -42.3378 H         1 UNK         0.0600 
    184 H184       -1.1160  -12.1047  -44.0427 H         1 UNK         0.3000 
    185 H185       -0.2930  -15.4049  -43.1758 H         1 UNK         0.0600 
    186 H186       -3.0710  -14.4892  -44.1155 H         1 UNK         0.0600 
    187 H187       -2.3622  -16.0640  -44.4569 H         1 UNK         0.0600 
    188 H188       -2.7496  -15.6145  -42.8021 H         1 UNK         0.0600 
    189 H189       -1.0590  -14.4094  -45.6702 H         1 UNK         0.3000 
    190 H190        0.0689  -19.9860  -46.2287 H         1 UNK         0.3000 
    191 H191       -1.4272  -20.2722  -48.6106 H         1 UNK         0.0600 
    192 H192       -1.2361  -18.1555  -47.3510 H         1 UNK         0.0600 
    193 H193       -2.1438  -18.8304  -46.0028 H         1 UNK         0.0600 
    194 H194       -2.9265  -18.5810  -47.5606 H         1 UNK         0.0600 
    195 H195       -2.0777  -21.4979  -45.3062 H         1 UNK         0.3000 
    196 H196       -4.6626  -22.5443  -45.7988 H         1 UNK         0.0600 
    197 H197       -3.7272  -22.1676  -43.5281 H         1 UNK         0.0600 
    198 H198       -2.5406  -23.4466  -43.7820 H         1 UNK         0.0600 
    199 H199       -4.2539  -23.8334  -43.7084 H         1 UNK         0.0600 
    200 H200       -1.5710  -23.7583  -46.8429 H         1 UNK         0.3000 
    201 H201       -2.4909  -26.5060  -47.3093 H         1 UNK         0.0600 
    202 H202       -0.2007  -26.8626  -48.0956 H         1 UNK         0.0600 
    203 H203       -0.1415  -25.9864  -46.5744 H         1 UNK         0.0600 
    204 H204        0.1316  -25.1386  -48.0954 H         1 UNK         0.0600 
    205 H205       -3.1069  -23.6216  -48.9163 H         1 UNK         0.3000 
    206 H206       -2.7220  -24.3491  -51.6587 H         1 UNK         0.0600 
    207 H207       -4.6581  -22.3406  -50.3801 H         1 UNK         0.0600 
    208 H208       -3.0015  -21.9876  -50.8744 H         1 UNK         0.0600 
    209 H209       -4.2199  -22.3900  -52.0750 H         1 UNK         0.0600 
    210 H210       -4.4014  -24.6807  -53.2359 H         1 UNK         0.3000 
    211 H211       -6.3239  -26.7558  -52.5981 H         1 UNK         0.0600 
    212 H212       -5.8565  -25.1028  -55.1466 H         1 UNK         0.0600 
    213 H213       -6.8090  -26.5787  -55.0475 H         1 UNK         0.0600 
    214 H214       -5.0762  -26.6380  -54.7733 H         1 UNK         0.0600 
    215 H215       -8.6267  -26.5849  -53.2688 H         1 UNK         0.3000 
    216 H216      -10.0433  -24.4407  -52.0429 H         1 UNK         0.0600 
    217 H217      -12.0450  -25.5860  -53.0092 H         1 UNK         0.0600 
    218 H218      -10.9660  -26.7351  -52.2349 H         1 UNK         0.0600 
    219 H219      -11.0027  -26.6056  -53.9939 H         1 UNK         0.0600 
    220 H220       -9.0846  -25.0600  -55.3792 H         1 UNK         0.3000 
    221 H221      -10.1565  -22.4808  -56.3895 H         1 UNK         0.0600 
    222 H222       -8.5382  -24.7201  -57.7320 H         1 UNK         0.0600 
    223 H223      -10.2649  -24.4260  -57.9233 H         1 UNK         0.0600 
    224 H224       -9.1022  -23.2526  -58.5228 H         1 UNK         0.0600 
    225 H225       -9.0202  -21.2646  -54.7773 H         1 UNK         0.3000 
    226 H226       -6.2802  -21.6176  -54.1742 H         1 UNK         0.0600 
    227 H227       -7.9789  -20.7964  -52.5680 H         1 UNK         0.0600 
    228 H228       -6.6576  -19.6497  -52.6954 H         1 UNK         0.0600 
    229 H229       -8.1850  -19.3141  -53.5039 H         1 UNK         0.0600 
    230 H230       -7.4064  -20.1775  -56.9532 H         1 UNK         0.3000 
    231 H231       -5.7336  -17.8935  -57.3063 H         1 UNK         0.0600 
    232 H232       -6.2143  -18.2876  -59.7334 H         1 UNK         0.0600 
    233 H233       -7.6794  -18.3705  -58.7671 H         1 UNK         0.0600 
    234 H234       -6.9202  -19.8528  -59.3482 H         1 UNK         0.0600 
    235 H235       -3.5800  -17.8215  -57.3936 H         1 UNK         0.3000 
    236 H236       -1.4306  -18.3427  -57.3722 H         1 UNK         0.0600 
    237 H237       -2.0510  -20.3659  -59.5893 H         1 UNK         0.0600 
    238 H238       -1.7692  -18.6434  -59.8380 H         1 UNK         0.0600 
    239 H239       -0.4816  -19.6647  -59.2214 H         1 UNK         0.0600 
    240 H240       -3.1288  -19.6437  -55.4968 H         1 UNK         0.3000 
    241 H241       -3.0918  -21.0075  -53.8101 H         1 UNK         0.0600 
    242 H242       -4.4459  -23.5607  -56.4152 H         1 UNK         0.3800 
    243 H243       -3.9254  -21.9519  -56.8137 H         1 UNK         0.3800 
    244 H244       -0.4464  -22.2502  -54.6731 H         1 UNK         0.0800 
    245 H245       -1.2189  -22.4591  -53.1337 H         1 UNK         0.0800 
    246 H246       -1.5788  -19.9250  -51.3757 H         1 UNK         0.0800 
    247 H247       -0.5925  -21.3591  -51.1931 H         1 UNK         0.0800 
@<TRIPOS>BOND
     1    1    2 1    
     2    1  127 1    
     3    1  128 1    
     4    1  129 1    
     5    2    3 2    
     6    2    4 am   BACKBONE|DICT|INTERRES
     7    4    5 1    
     8    4  130 1    
     9    5    6 1    
    10    5   65 1    
    11    5  131 1    
    12    6    7 1    
    13    6  132 1    
    14    6  133 1    
    15    7    8 1    
    16    8    9 1    
    17    8  134 1    
    18    8  135 1    
    19    9   10 ar   
    20    9   14 ar   
    21   10   11 ar   
    22   10  136 1    
    23   11   12 ar   
    24   11  126 1    
    25   12   13 ar   
    26   12  137 1    
    27   13   14 ar   
    28   13   15 1    
    29   14  138 1    
    30   15   16 1    
    31   15  139 1    
    32   15  140 1    
    33   16   17 1    
    34   17   18 1    
    35   17  141 1    
    36   17  142 1    
    37   18   19 1    
    38   18   67 1    
    39   18  143 1    
    40   19   20 am   BACKBONE|DICT|INTERRES
    41   19  144 1    
    42   20   21 2    
    43   20   22 1    
    44   22   23 1    
    45   22   24 1    
    46   22  145 1    
    47   23  146 1    
    48   23  147 1    
    49   23  148 1    
    50   24   25 am   BACKBONE|DICT|INTERRES
    51   24  149 1    
    52   25   26 2    
    53   25   27 1    
    54   27   28 1    
    55   27   29 1    
    56   27  150 1    
    57   28  151 1    
    58   28  152 1    
    59   28  153 1    
    60   29   30 am   BACKBONE|DICT|INTERRES
    61   29  154 1    
    62   30   31 2    
    63   30   32 1    
    64   32   33 1    
    65   32   34 1    
    66   32  155 1    
    67   33  156 1    
    68   33  157 1    
    69   33  158 1    
    70   34   35 am   BACKBONE|DICT|INTERRES
    71   34  159 1    
    72   35   36 2    
    73   35   37 1    
    74   37   38 1    
    75   37   39 1    
    76   37  160 1    
    77   38  161 1    
    78   38  162 1    
    79   38  163 1    
    80   39   40 am   BACKBONE|DICT|INTERRES
    81   39  164 1    
    82   40   41 2    
    83   40   42 1    
    84   42   43 1    
    85   42   44 1    
    86   42  165 1    
    87   43  166 1    
    88   43  167 1    
    89   43  168 1    
    90   44   45 am   BACKBONE|DICT|INTERRES
    91   44  169 1    
    92   45   46 2    
    93   45   47 1    
    94   47   48 1    
    95   47   49 1    
    96   47  170 1    
    97   48  171 1    
    98   48  172 1    
    99   48  173 1    
   100   49   50 am   BACKBONE|DICT|INTERRES
   101   49  174 1    
   102   50   51 2    
   103   50   52 1    
   104   52   53 1    
   105   52   54 1    
   106   52  175 1    
   107   53  176 1    
   108   53  177 1    
   109   53  178 1    
   110   54   55 am   BACKBONE|DICT|INTERRES
   111   54  179 1    
   112   55   56 2    
   113   55   57 1    
   114   57   58 1    
   115   57   59 1    
   116   57  180 1    
   117   58  181 1    
   118   58  182 1    
   119   58  183 1    
   120   59   60 am   BACKBONE|DICT|INTERRES
   121   59  184 1    
   122   60   61 2    
   123   60   62 1    
   124   62   63 1    
   125   62   64 1    
   126   62  185 1    
   127   63  186 1    
   128   63  187 1    
   129   63  188 1    
   130   64   65 am   BACKBONE|DICT|INTERRES
   131   64  189 1    
   132   65   66 2    
   133   67   68 2    
   134   67   69 am   BACKBONE|DICT|INTERRES
   135   69   70 1    
   136   69  190 1    
   137   70   71 1    
   138   70   72 1    
   139   70  191 1    
   140   71  192 1    
   141   71  193 1    
   142   71  194 1    
   143   72   73 2    
   144   72   74 am   BACKBONE|DICT|INTERRES
   145   74   75 1    
   146   74  195 1    
   147   75   76 1    
   148   75   77 1    
   149   75  196 1    
   150   76  197 1    
   151   76  198 1    
   152   76  199 1    
   153   77   78 2    
   154   77   79 am   BACKBONE|DICT|INTERRES
   155   79   80 1    
   156   79  200 1    
   157   80   81 1    
   158   80   82 1    
   159   80  201 1    
   160   81  202 1    
   161   81  203 1    
   162   81  204 1    
   163   82   83 2    
   164   82   84 am   BACKBONE|DICT|INTERRES
   165   84   85 1    
   166   84  205 1    
   167   85   86 1    
   168   85   87 1    
   169   85  206 1    
   170   86  207 1    
   171   86  208 1    
   172   86  209 1    
   173   87   88 2    
   174   87   89 am   BACKBONE|DICT|INTERRES
   175   89   90 1    
   176   89  210 1    
   177   90   91 1    
   178   90   92 1    
   179   90  211 1    
   180   91  212 1    
   181   91  213 1    
   182   91  214 1    
   183   92   93 2    
   184   92   94 am   BACKBONE|DICT|INTERRES
   185   94   95 1    
   186   94  215 1    
   187   95   96 1    
   188   95   97 1    
   189   95  216 1    
   190   96  217 1    
   191   96  218 1    
   192   96  219 1    
   193   97   98 2    
   194   97   99 am   BACKBONE|DICT|INTERRES
   195   99  100 1    
   196   99  220 1    
   197  100  101 1    
   198  100  102 1    
   199  100  221 1    
   200  101  222 1    
   201  101  223 1    
   202  101  224 1    
   203  102  103 2    
   204  102  104 am   BACKBONE|DICT|INTERRES
   205  104  105 1    
   206  104  225 1    
   207  105  106 1    
   208  105  107 1    
   209  105  226 1    
   210  106  227 1    
   211  106  228 1    
   212  106  229 1    
   213  107  108 2    
   214  107  109 am   BACKBONE|DICT|INTERRES
   215  109  110 1    
   216  109  230 1    
   217  110  111 1    
   218  110  112 1    
   219  110  231 1    
   220  111  232 1    
   221  111  233 1    
   222  111  234 1    
   223  112  113 2    
   224  112  114 am   BACKBONE|DICT|INTERRES
   225  114  115 1    
   226  114  235 1    
   227  115  116 1    
   228  115  117 1    
   229  115  236 1    
   230  116  237 1    
   231  116  238 1    
   232  116  239 1    
   233  117  118 2    
   234  117  119 am   BACKBONE|DICT|INTERRES
   235  119  120 1    
   236  119  240 1    
   237  120  121 1    
   238  120  124 1    
   239  120  241 1    
   240  121  122 am   BACKBONE|DICT|INTERRES
   241  121  123 2    
   242  122  242 1    
   243  122  243 1    
   244  124  125 1    
   245  124  244 1    
   246  124  245 1    
   247  125  126 1    
   248  126  246 1    
   249  126  247 1    
@<TRIPOS>SUBSTRUCTURE
     1 UNK         1 GROUP             0       ****    0 ROOT    
