@<TRIPOS>MOLECULE
3R540
247   249    1
SMALL
USER_CHARGES


@<TRIPOS>ATOM
      1 CA          5.7710  -19.2003  -45.7484 C.3       0 UNK        -0.1800 
      2 C           5.1005  -18.0339  -45.0396 C.2       0 UNK         0.5000 
      3 O           4.8631  -18.1004  -43.8337 O.2       0 UNK        -0.5000 
      4 N           4.8049  -16.9537  -45.7747 N.am      1 UNK        -0.5000 
      5 CA          4.0883  -15.7638  -45.2877 C.3       1 UNK         0.1400 
      6 C6          3.6234  -14.8403  -46.4381 C.3       23 UNK        -0.0398 
      7 S7          2.5298  -15.7061  -47.6127 S.3       23 UNK        -0.2404 
      8 C8          3.5066  -15.5927  -49.1396 C.3       23 UNK        -0.0205 
      9 C9          2.8493  -16.3362  -50.2918 C.ar      23 UNK        -0.0193 
     10 C10         1.6709  -15.8481  -50.8638 C.ar      23 UNK        -0.1150 
     11 C11         1.0959  -16.4891  -51.9656 C.ar      23 UNK        -0.0193 
     12 C12         1.7113  -17.6255  -52.4968 C.ar      23 UNK        -0.1150 
     13 C13         2.8904  -18.1234  -51.9336 C.ar      23 UNK        -0.0193 
     14 C14         3.4482  -17.4810  -50.8247 C.ar      23 UNK        -0.1150 
     15 C15         3.5965  -19.3192  -52.5554 C.3       23 UNK        -0.0205 
     16 S16         3.3839  -20.8395  -51.5803 S.3       23 UNK        -0.2404 
     17 C17         1.6234  -21.2198  -51.8703 C.3       23 UNK        -0.0398 
     18 CA          0.8794  -21.5719  -50.5629 C.3       11 UNK         0.1400 
     19 N           0.9499  -20.5037  -49.5579 N.am      11 UNK        -0.5000 
     20 C           0.6382  -20.6776  -48.2670 C.2       10 UNK         0.5000 
     21 O           0.2182  -21.7371  -47.8020 O.2       10 UNK        -0.5000 
     22 CA          0.7862  -19.4591  -47.3415 C.3       10 UNK         0.1400 
     23 CB          2.2469  -19.2837  -46.9055 C.3       10 UNK        -0.1800 
     24 N           0.2898  -18.1941  -47.8871 N.am      10 UNK        -0.5000 
     25 C          -0.9441  -17.9735  -48.3629 C.2       9 UNK         0.5000 
     26 O          -1.7535  -18.8699  -48.6029 O.2       9 UNK        -0.5000 
     27 CA         -1.3445  -16.4938  -48.5538 C.3       9 UNK         0.1400 
     28 CB         -2.8618  -16.3082  -48.7671 C.3       9 UNK        -0.1800 
     29 N          -0.8746  -15.6258  -47.4642 N.am      9 UNK        -0.5000 
     30 C          -1.1336  -15.7598  -46.1534 C.2       8 UNK         0.5000 
     31 O          -1.8155  -16.6725  -45.6805 O.2       8 UNK        -0.5000 
     32 CA         -0.4836  -14.7258  -45.2040 C.3       8 UNK         0.1400 
     33 CB         -0.2556  -13.3386  -45.8439 C.3       8 UNK        -0.1800 
     34 N          -1.2098  -14.6081  -43.9355 N.am      8 UNK        -0.5000 
     35 C          -2.4811  -14.2169  -43.7594 C.2       7 UNK         0.5000 
     36 O          -3.1873  -13.7516  -44.6554 O.2       7 UNK        -0.5000 
     37 CA         -3.0806  -14.3757  -42.3514 C.3       7 UNK         0.1400 
     38 CB         -3.7391  -15.7569  -42.1995 C.3       7 UNK        -0.1800 
     39 N          -2.0918  -14.1957  -41.2854 N.am      7 UNK        -0.5000 
     40 C          -2.2955  -13.4711  -40.1755 C.2       6 UNK         0.5000 
     41 O          -3.3441  -12.8704  -39.9354 O.2       6 UNK        -0.5000 
     42 CA         -1.1487  -13.4018  -39.1435 C.3       6 UNK         0.1400 
     43 CB         -1.4106  -14.3788  -37.9868 C.3       6 UNK        -0.1800 
     44 N           0.1713  -13.6852  -39.7064 N.am      6 UNK        -0.5000 
     45 C           0.8115  -12.9134  -40.5937 C.2       5 UNK         0.5000 
     46 O           0.3935  -11.8167  -40.9667 O.2       5 UNK        -0.5000 
     47 CA          2.1287  -13.4572  -41.1823 C.3       5 UNK         0.1400 
     48 CB          3.3293  -12.7489  -40.5343 C.3       5 UNK        -0.1800 
     49 N           2.3353  -14.9080  -41.0792 N.am      5 UNK        -0.5000 
     50 C           1.5300  -15.8825  -41.5249 C.2       4 UNK         0.5000 
     51 O           0.4014  -15.6711  -41.9699 O.2       4 UNK        -0.5000 
     52 CA          2.0638  -17.3310  -41.4721 C.3       4 UNK         0.1400 
     53 CB          1.5852  -18.1539  -42.6827 C.3       4 UNK        -0.1800 
     54 N           3.5256  -17.4072  -41.4040 N.am      4 UNK        -0.5000 
     55 C           4.2646  -17.3138  -40.2902 C.2       3 UNK         0.5000 
     56 O           3.7894  -17.1235  -39.1710 O.2       3 UNK        -0.5000 
     57 CA          5.7887  -17.4012  -40.4672 C.3       3 UNK         0.1400 
     58 CB          6.2338  -18.8636  -40.6242 C.3       3 UNK        -0.1800 
     59 N           6.2212  -16.6356  -41.6362 N.am      3 UNK        -0.5000 
     60 C           6.6311  -15.3594  -41.6060 C.2       2 UNK         0.5000 
     61 O           6.7318  -14.6978  -40.5725 O.2       2 UNK        -0.5000 
     62 CA          6.9805  -14.7051  -42.9587 C.3       2 UNK         0.1400 
     63 CB          8.4656  -14.9152  -43.2907 C.3       2 UNK        -0.1800 
     64 N           6.1659  -15.2245  -44.0579 N.am      2 UNK        -0.5000 
     65 C           4.8626  -14.9583  -44.2214 C.2       1 UNK         0.5000 
     66 O           4.2569  -14.1264  -43.5498 O.2       1 UNK        -0.5000 
     67 C          -0.5706  -21.9979  -50.8691 C.2       11 UNK         0.5000 
     68 O          -0.8010  -23.1669  -51.1799 O.2       11 UNK        -0.5000 
     69 N          -1.5188  -21.0572  -50.7580 N.am      12 UNK        -0.5000 
     70 CA         -2.9479  -21.3304  -50.8658 C.3       12 UNK         0.1400 
     71 CB         -3.7026  -20.0394  -51.2115 C.3       12 UNK        -0.1800 
     72 C          -3.4770  -21.9485  -49.5650 C.2       12 UNK         0.5000 
     73 O          -4.1419  -22.9821  -49.6138 O.2       12 UNK        -0.5000 
     74 N          -3.1427  -21.3276  -48.4246 N.am      13 UNK        -0.5000 
     75 CA         -3.5608  -21.7266  -47.0786 C.3       13 UNK         0.1400 
     76 CB         -2.9999  -20.7300  -46.0538 C.3       13 UNK        -0.1800 
     77 C          -3.1646  -23.1675  -46.7098 C.2       13 UNK         0.5000 
     78 O          -3.9736  -23.8841  -46.1195 O.2       13 UNK        -0.5000 
     79 N          -1.9624  -23.5900  -47.1265 N.am      14 UNK        -0.5000 
     80 CA         -1.4477  -24.9550  -46.9795 C.3       14 UNK         0.1400 
     81 CB          0.0136  -24.9895  -47.4529 C.3       14 UNK        -0.1800 
     82 C          -2.2731  -26.0281  -47.7215 C.2       14 UNK         0.5000 
     83 O          -2.2165  -27.1981  -47.3412 O.2       14 UNK        -0.5000 
     84 N          -3.0273  -25.6157  -48.7479 N.am      15 UNK        -0.5000 
     85 CA         -3.9248  -26.4545  -49.5399 C.3       15 UNK         0.1400 
     86 CB         -3.5590  -26.2848  -51.0236 C.3       15 UNK        -0.1800 
     87 C          -5.4048  -26.1000  -49.2913 C.2       15 UNK         0.5000 
     88 O          -6.2559  -26.4888  -50.0929 O.2       15 UNK        -0.5000 
     89 N          -5.6919  -25.3322  -48.2257 N.am      16 UNK        -0.5000 
     90 CA         -7.0106  -24.8185  -47.8247 C.3       16 UNK         0.1400 
     91 CB         -7.8960  -25.9726  -47.3115 C.3       16 UNK        -0.1800 
     92 C          -7.7129  -23.9759  -48.9162 C.2       16 UNK         0.5000 
     93 O          -8.9429  -23.9255  -48.9611 O.2       16 UNK        -0.5000 
     94 N          -6.9091  -23.3590  -49.7948 N.am      17 UNK        -0.5000 
     95 CA         -7.2709  -22.6259  -51.0107 C.3       17 UNK         0.1400 
     96 CB         -8.0514  -21.3414  -50.6670 C.3       17 UNK        -0.1800 
     97 C          -7.9759  -23.4827  -52.0894 C.2       17 UNK         0.5000 
     98 O          -8.5636  -22.9201  -53.0150 O.2       17 UNK        -0.5000 
     99 N          -7.9230  -24.8180  -51.9648 N.am      18 UNK        -0.5000 
    100 CA        -8.6249  -25.7506  -52.8460 C.3       18 UNK         0.1400 
    101 CB        -8.9388  -27.0441  -52.0779 C.3       18 UNK        -0.1800 
    102 C         -7.8302  -26.0564  -54.1250 C.2       18 UNK         0.5000 
    103 O         -8.4166  -26.0849  -55.2078 O.2       18 UNK        -0.5000 
    104 N         -6.5169  -26.2883  -53.9829 N.am      19 UNK        -0.5000 
    105 CA        -5.6241  -26.6226  -55.0980 C.3       19 UNK         0.1400 
    106 CB        -4.3424  -27.2725  -54.5555 C.3       19 UNK        -0.1800 
    107 C         -5.2769  -25.3988  -55.9640 C.2       19 UNK         0.5000 
    108 O         -5.1531  -25.5258  -57.1827 O.2       19 UNK        -0.5000 
    109 N         -5.1352  -24.2406  -55.3141 N.am      20 UNK        -0.5000 
    110 CA        -4.8386  -22.9413  -55.9006 C.3       20 UNK         0.1400 
    111 CB        -3.3583  -22.8653  -56.3195 C.3       20 UNK        -0.1800 
    112 C         -5.1593  -21.8769  -54.8454 C.2       20 UNK         0.5000 
    113 O         -5.1223  -22.1800  -53.6502 O.2       20 UNK        -0.5000 
    114 N         -5.4451  -20.6554  -55.3006 N.am      21 UNK        -0.5000 
    115 CA        -5.7061  -19.4913  -54.4609 C.3       21 UNK         0.1400 
    116 CB        -7.1862  -19.0975  -54.5861 C.3       21 UNK        -0.1800 
    117 C         -4.7910  -18.3425  -54.9050 C.2       21 UNK         0.5000 
    118 O         -4.5071  -18.2148  -56.0994 O.2       21 UNK        -0.5000 
    119 N         -4.3578  -17.5251  -53.9403 N.am      22 UNK        -0.5000 
    120 CA        -3.5789  -16.3003  -54.1708 C.3       22 UNK         0.1400 
    121 C         -4.4343  -15.1841  -54.8339 C.2       22 UNK         0.5000 
    122 N         -3.8554  -14.4021  -55.7348 N.am      22 UNK        -0.7600 
    123 O         -5.6044  -14.9939  -54.5083 O.2       22 UNK        -0.5000 
    124 C124       -2.9429  -15.7837  -52.8562 C.3       23 UNK        -0.0398 
    125 S125       -1.6404  -16.8944  -52.2174 S.3       23 UNK        -0.2404 
    126 C126       -0.1555  -15.9207  -52.6164 C.3       23 UNK        -0.0205 
    127 H127        5.8691  -19.0212  -46.8193 H         1 UNK         0.0600 
    128 H128        5.1846  -20.1083  -45.6083 H         1 UNK         0.0600 
    129 H129        6.7655  -19.3681  -45.3355 H         1 UNK         0.0600 
    130 H130        5.0274  -16.9530  -46.7592 H         1 UNK         0.3000 
    131 H131        3.1892  -16.1232  -44.7843 H         1 UNK         0.0600 
    132 H132        4.4825  -14.4196  -46.9634 H         1 UNK         0.0800 
    133 H133        3.0640  -13.9895  -46.0441 H         1 UNK         0.0800 
    134 H134        4.5090  -15.9823  -48.9568 H         1 UNK         0.0800 
    135 H135        3.6273  -14.5434  -49.4132 H         1 UNK         0.0800 
    136 H136        1.2153  -14.9545  -50.4608 H         1 UNK         0.1150 
    137 H137        1.2797  -18.1077  -53.3627 H         1 UNK         0.1150 
    138 H138        4.3666  -17.8589  -50.3975 H         1 UNK         0.1150 
    139 H139        3.2478  -19.4901  -53.5752 H         1 UNK         0.0800 
    140 H140        4.6626  -19.1018  -52.6346 H         1 UNK         0.0800 
    141 H141        1.5815  -22.0573  -52.5691 H         1 UNK         0.0800 
    142 H142        1.1338  -20.3845  -52.3717 H         1 UNK         0.0800 
    143 H143        1.3736  -22.4473  -50.1349 H         1 UNK         0.0600 
    144 H144        1.2905  -19.6044  -49.8666 H         1 UNK         0.3000 
    145 H145        0.1978  -19.6650  -46.4458 H         1 UNK         0.0600 
    146 H146        2.3294  -18.5248  -46.1281 H         1 UNK         0.0600 
    147 H147        2.6501  -20.2107  -46.4960 H         1 UNK         0.0600 
    148 H148        2.8844  -18.9847  -47.7387 H         1 UNK         0.0600 
    149 H149        0.8901  -17.3914  -47.7531 H         1 UNK         0.3000 
    150 H150       -0.8383  -16.1548  -49.4566 H         1 UNK         0.0600 
    151 H151       -3.2115  -16.8751  -49.6300 H         1 UNK         0.0600 
    152 H152       -3.1088  -15.2620  -48.9466 H         1 UNK         0.0600 
    153 H153       -3.4355  -16.6461  -47.9037 H         1 UNK         0.0600 
    154 H154       -0.2800  -14.8604  -47.7480 H         1 UNK         0.3000 
    155 H155        0.4953  -15.1322  -44.9447 H         1 UNK         0.0600 
    156 H156        0.4695  -13.3880  -46.6565 H         1 UNK         0.0600 
    157 H157        0.1378  -12.6320  -45.1128 H         1 UNK         0.0600 
    158 H158       -1.1779  -12.9201  -46.2479 H         1 UNK         0.0600 
    159 H159       -0.7177  -15.0204  -43.1459 H         1 UNK         0.3000 
    160 H160       -3.8619  -13.6175  -42.2670 H         1 UNK         0.0600 
    161 H161       -3.0034  -16.5597  -42.2648 H         1 UNK         0.0600 
    162 H162       -4.4803  -15.9258  -42.9817 H         1 UNK         0.0600 
    163 H163       -4.2505  -15.8466  -41.2410 H         1 UNK         0.0600 
    164 H164       -1.1954  -14.6548  -41.4081 H         1 UNK         0.3000 
    165 H165       -1.1331  -12.3878  -38.7388 H         1 UNK         0.0600 
    166 H166       -0.6489  -14.2876  -37.2122 H         1 UNK         0.0600 
    167 H167       -2.3748  -14.1796  -37.5171 H         1 UNK         0.0600 
    168 H168       -1.4204  -15.4142  -38.3299 H         1 UNK         0.0600 
    169 H169        0.5902  -14.5698  -39.4602 H         1 UNK         0.3000 
    170 H170        2.1169  -13.2106  -42.2454 H         1 UNK         0.0600 
    171 H171        3.2410  -11.6652  -40.6211 H         1 UNK         0.0600 
    172 H172        3.4116  -12.9893  -39.4737 H         1 UNK         0.0600 
    173 H173        4.2649  -13.0343  -41.0156 H         1 UNK         0.0600 
    174 H174        3.2311  -15.1929  -40.7125 H         1 UNK         0.3000 
    175 H175        1.6454  -17.7885  -40.5736 H         1 UNK         0.0600 
    176 H176        0.4964  -18.2094  -42.7191 H         1 UNK         0.0600 
    177 H177        1.9221  -17.7216  -43.6244 H         1 UNK         0.0600 
    178 H178        1.9574  -19.1774  -42.6352 H         1 UNK         0.0600 
    179 H179        4.0028  -17.5871  -42.2846 H         1 UNK         0.3000 
    180 H180        6.2582  -17.0026  -39.5653 H         1 UNK         0.0600 
    181 H181        5.7993  -19.3285  -41.5101 H         1 UNK         0.0600 
    182 H182        5.9326  -19.4576  -39.7604 H         1 UNK         0.0600 
    183 H183        7.3183  -18.9368  -40.7067 H         1 UNK         0.0600 
    184 H184        6.1066  -17.0921  -42.5333 H         1 UNK         0.3000 
    185 H185        6.7989  -13.6319  -42.8678 H         1 UNK         0.0600 
    186 H186        8.7393  -14.4040  -44.2138 H         1 UNK         0.0600 
    187 H187        9.1020  -14.5175  -42.4990 H         1 UNK         0.0600 
    188 H188        8.7077  -15.9724  -43.4067 H         1 UNK         0.0600 
    189 H189        6.5942  -15.9097  -44.6627 H         1 UNK         0.3000 
    190 H190       -1.2590  -20.1377  -50.4255 H         1 UNK         0.3000 
    191 H191       -3.1183  -22.0454  -51.6740 H         1 UNK         0.0600 
    192 H192       -3.5495  -19.2589  -50.4670 H         1 UNK         0.0600 
    193 H193       -4.7752  -20.2254  -51.2712 H         1 UNK         0.0600 
    194 H194       -3.3766  -19.6498  -52.1753 H         1 UNK         0.0600 
    195 H195       -2.5920  -20.4727  -48.4865 H         1 UNK         0.3000 
    196 H196       -4.6507  -21.6684  -47.0496 H         1 UNK         0.0600 
    197 H197       -3.3400  -20.9714  -45.0460 H         1 UNK         0.0600 
    198 H198       -3.3235  -19.7119  -46.2722 H         1 UNK         0.0600 
    199 H199       -1.9101  -20.7379  -46.0437 H         1 UNK         0.0600 
    200 H200       -1.3369  -22.9190  -47.5644 H         1 UNK         0.3000 
    201 H201       -1.4703  -25.2055  -45.9171 H         1 UNK         0.0600 
    202 H202        0.6362  -24.3219  -46.8572 H         1 UNK         0.0600 
    203 H203        0.1027  -24.6877  -48.4975 H         1 UNK         0.0600 
    204 H204        0.4346  -25.9916  -47.3612 H         1 UNK         0.0600 
    205 H205       -3.0452  -24.6277  -48.9760 H         1 UNK         0.3000 
    206 H206       -3.8020  -27.5066  -49.2767 H         1 UNK         0.0600 
    207 H207       -2.5083  -26.5148  -51.2007 H         1 UNK         0.0600 
    208 H208       -4.1463  -26.9610  -51.6443 H         1 UNK         0.0600 
    209 H209       -3.7420  -25.2668  -51.3710 H         1 UNK         0.0600 
    210 H210       -4.9225  -25.0366  -47.6357 H         1 UNK         0.3000 
    211 H211       -6.8307  -24.1403  -46.9895 H         1 UNK         0.0600 
    212 H212       -8.1668  -26.6605  -48.1132 H         1 UNK         0.0600 
    213 H213       -8.8223  -25.5947  -46.8773 H         1 UNK         0.0600 
    214 H214       -7.3868  -26.5448  -46.5360 H         1 UNK         0.0600 
    215 H215       -5.9048  -23.4445  -49.6482 H         1 UNK         0.3000 
    216 H216       -6.3221  -22.3165  -51.4445 H         1 UNK         0.0600 
    217 H217       -8.1751  -20.7114  -51.5487 H         1 UNK         0.0600 
    218 H218       -7.5239  -20.7486  -49.9197 H         1 UNK         0.0600 
    219 H219       -9.0466  -21.5632  -50.2811 H         1 UNK         0.0600 
    220 H220       -7.4096  -25.2250  -51.1895 H         1 UNK         0.3000 
    221 H221       -9.5781  -25.3071  -53.1424 H         1 UNK         0.0600 
    222 H222       -8.0320  -27.5714  -51.7806 H         1 UNK         0.0600 
    223 H223       -9.5155  -26.8368  -51.1762 H         1 UNK         0.0600 
    224 H224       -9.5272  -27.7273  -52.6916 H         1 UNK         0.0600 
    225 H225       -6.1148  -26.2554  -53.0576 H         1 UNK         0.3000 
    226 H226       -6.1266  -27.3533  -55.7358 H         1 UNK         0.0600 
    227 H227       -4.5679  -28.1375  -53.9317 H         1 UNK         0.0600 
    228 H228       -3.7090  -27.6188  -55.3732 H         1 UNK         0.0600 
    229 H229       -3.7530  -26.5702  -53.9654 H         1 UNK         0.0600 
    230 H230       -5.2843  -24.2065  -54.3134 H         1 UNK         0.3000 
    231 H231       -5.4820  -22.7853  -56.7690 H         1 UNK         0.0600 
    232 H232       -3.1216  -23.6014  -57.0876 H         1 UNK         0.0600 
    233 H233       -2.6939  -23.0402  -55.4722 H         1 UNK         0.0600 
    234 H234       -3.1170  -21.8838  -56.7293 H         1 UNK         0.0600 
    235 H235       -5.3784  -20.4604  -56.2907 H         1 UNK         0.3000 
    236 H236       -5.4995  -19.7159  -53.4149 H         1 UNK         0.0600 
    237 H237       -7.4121  -18.2252  -53.9715 H         1 UNK         0.0600 
    238 H238       -7.4528  -18.8535  -55.6153 H         1 UNK         0.0600 
    239 H239       -7.8363  -19.9075  -54.2539 H         1 UNK         0.0600 
    240 H240       -4.6545  -17.6823  -52.9892 H         1 UNK         0.3000 
    241 H241       -2.7697  -16.5494  -54.8607 H         1 UNK         0.0600 
    242 H242       -4.3953  -13.6649  -56.1615 H         1 UNK         0.3800 
    243 H243       -2.8960  -14.5354  -56.0157 H         1 UNK         0.3800 
    244 H244       -2.5187  -14.7887  -53.0011 H         1 UNK         0.0800 
    245 H245       -3.7051  -15.6668  -52.0840 H         1 UNK         0.0800 
    246 H246       -0.0246  -15.8912  -53.6991 H         1 UNK         0.0800 
    247 H247       -0.3001  -14.8879  -52.2955 H         1 UNK         0.0800 
@<TRIPOS>BOND
     1    1    2 1    
     2    1  127 1    
     3    1  128 1    
     4    1  129 1    
     5    2    3 2    
     6    2    4 am   BACKBONE|DICT|INTERRES
     7    4    5 1    
     8    4  130 1    
     9    5    6 1    
    10    5   65 1    
    11    5  131 1    
    12    6    7 1    
    13    6  132 1    
    14    6  133 1    
    15    7    8 1    
    16    8    9 1    
    17    8  134 1    
    18    8  135 1    
    19    9   10 ar   
    20    9   14 ar   
    21   10   11 ar   
    22   10  136 1    
    23   11   12 ar   
    24   11  126 1    
    25   12   13 ar   
    26   12  137 1    
    27   13   14 ar   
    28   13   15 1    
    29   14  138 1    
    30   15   16 1    
    31   15  139 1    
    32   15  140 1    
    33   16   17 1    
    34   17   18 1    
    35   17  141 1    
    36   17  142 1    
    37   18   19 1    
    38   18   67 1    
    39   18  143 1    
    40   19   20 am   BACKBONE|DICT|INTERRES
    41   19  144 1    
    42   20   21 2    
    43   20   22 1    
    44   22   23 1    
    45   22   24 1    
    46   22  145 1    
    47   23  146 1    
    48   23  147 1    
    49   23  148 1    
    50   24   25 am   BACKBONE|DICT|INTERRES
    51   24  149 1    
    52   25   26 2    
    53   25   27 1    
    54   27   28 1    
    55   27   29 1    
    56   27  150 1    
    57   28  151 1    
    58   28  152 1    
    59   28  153 1    
    60   29   30 am   BACKBONE|DICT|INTERRES
    61   29  154 1    
    62   30   31 2    
    63   30   32 1    
    64   32   33 1    
    65   32   34 1    
    66   32  155 1    
    67   33  156 1    
    68   33  157 1    
    69   33  158 1    
    70   34   35 am   BACKBONE|DICT|INTERRES
    71   34  159 1    
    72   35   36 2    
    73   35   37 1    
    74   37   38 1    
    75   37   39 1    
    76   37  160 1    
    77   38  161 1    
    78   38  162 1    
    79   38  163 1    
    80   39   40 am   BACKBONE|DICT|INTERRES
    81   39  164 1    
    82   40   41 2    
    83   40   42 1    
    84   42   43 1    
    85   42   44 1    
    86   42  165 1    
    87   43  166 1    
    88   43  167 1    
    89   43  168 1    
    90   44   45 am   BACKBONE|DICT|INTERRES
    91   44  169 1    
    92   45   46 2    
    93   45   47 1    
    94   47   48 1    
    95   47   49 1    
    96   47  170 1    
    97   48  171 1    
    98   48  172 1    
    99   48  173 1    
   100   49   50 am   BACKBONE|DICT|INTERRES
   101   49  174 1    
   102   50   51 2    
   103   50   52 1    
   104   52   53 1    
   105   52   54 1    
   106   52  175 1    
   107   53  176 1    
   108   53  177 1    
   109   53  178 1    
   110   54   55 am   BACKBONE|DICT|INTERRES
   111   54  179 1    
   112   55   56 2    
   113   55   57 1    
   114   57   58 1    
   115   57   59 1    
   116   57  180 1    
   117   58  181 1    
   118   58  182 1    
   119   58  183 1    
   120   59   60 am   BACKBONE|DICT|INTERRES
   121   59  184 1    
   122   60   61 2    
   123   60   62 1    
   124   62   63 1    
   125   62   64 1    
   126   62  185 1    
   127   63  186 1    
   128   63  187 1    
   129   63  188 1    
   130   64   65 am   BACKBONE|DICT|INTERRES
   131   64  189 1    
   132   65   66 2    
   133   67   68 2    
   134   67   69 am   BACKBONE|DICT|INTERRES
   135   69   70 1    
   136   69  190 1    
   137   70   71 1    
   138   70   72 1    
   139   70  191 1    
   140   71  192 1    
   141   71  193 1    
   142   71  194 1    
   143   72   73 2    
   144   72   74 am   BACKBONE|DICT|INTERRES
   145   74   75 1    
   146   74  195 1    
   147   75   76 1    
   148   75   77 1    
   149   75  196 1    
   150   76  197 1    
   151   76  198 1    
   152   76  199 1    
   153   77   78 2    
   154   77   79 am   BACKBONE|DICT|INTERRES
   155   79   80 1    
   156   79  200 1    
   157   80   81 1    
   158   80   82 1    
   159   80  201 1    
   160   81  202 1    
   161   81  203 1    
   162   81  204 1    
   163   82   83 2    
   164   82   84 am   BACKBONE|DICT|INTERRES
   165   84   85 1    
   166   84  205 1    
   167   85   86 1    
   168   85   87 1    
   169   85  206 1    
   170   86  207 1    
   171   86  208 1    
   172   86  209 1    
   173   87   88 2    
   174   87   89 am   BACKBONE|DICT|INTERRES
   175   89   90 1    
   176   89  210 1    
   177   90   91 1    
   178   90   92 1    
   179   90  211 1    
   180   91  212 1    
   181   91  213 1    
   182   91  214 1    
   183   92   93 2    
   184   92   94 am   BACKBONE|DICT|INTERRES
   185   94   95 1    
   186   94  215 1    
   187   95   96 1    
   188   95   97 1    
   189   95  216 1    
   190   96  217 1    
   191   96  218 1    
   192   96  219 1    
   193   97   98 2    
   194   97   99 am   BACKBONE|DICT|INTERRES
   195   99  100 1    
   196   99  220 1    
   197  100  101 1    
   198  100  102 1    
   199  100  221 1    
   200  101  222 1    
   201  101  223 1    
   202  101  224 1    
   203  102  103 2    
   204  102  104 am   BACKBONE|DICT|INTERRES
   205  104  105 1    
   206  104  225 1    
   207  105  106 1    
   208  105  107 1    
   209  105  226 1    
   210  106  227 1    
   211  106  228 1    
   212  106  229 1    
   213  107  108 2    
   214  107  109 am   BACKBONE|DICT|INTERRES
   215  109  110 1    
   216  109  230 1    
   217  110  111 1    
   218  110  112 1    
   219  110  231 1    
   220  111  232 1    
   221  111  233 1    
   222  111  234 1    
   223  112  113 2    
   224  112  114 am   BACKBONE|DICT|INTERRES
   225  114  115 1    
   226  114  235 1    
   227  115  116 1    
   228  115  117 1    
   229  115  236 1    
   230  116  237 1    
   231  116  238 1    
   232  116  239 1    
   233  117  118 2    
   234  117  119 am   BACKBONE|DICT|INTERRES
   235  119  120 1    
   236  119  240 1    
   237  120  121 1    
   238  120  124 1    
   239  120  241 1    
   240  121  122 am   BACKBONE|DICT|INTERRES
   241  121  123 2    
   242  122  242 1    
   243  122  243 1    
   244  124  125 1    
   245  124  244 1    
   246  124  245 1    
   247  125  126 1    
   248  126  246 1    
   249  126  247 1    
@<TRIPOS>SUBSTRUCTURE
     1 UNK         1 GROUP             0       ****    0 ROOT    
