@<TRIPOS>MOLECULE
3R540
247   249    1
SMALL
USER_CHARGES


@<TRIPOS>ATOM
      1 CA         -4.5980  -14.1666  -49.6266 C.3       0 UNK        -0.1800 
      2 C          -3.2200  -13.9673  -50.2424 C.2       0 UNK         0.5000 
      3 O          -3.0262  -13.0133  -50.9954 O.2       0 UNK        -0.5000 
      4 N          -2.2558  -14.8423  -49.9205 N.am      1 UNK        -0.5000 
      5 CA         -0.8496  -14.8112  -50.3613 C.3       1 UNK         0.1400 
      6 C6         -0.1709  -16.2055  -50.2178 C.3       23 UNK        -0.0398 
      7 S7         -0.0174  -16.8097  -48.5011 S.3       23 UNK        -0.2404 
      8 C8         -0.5419  -18.5481  -48.6231 C.3       23 UNK        -0.0205 
      9 C9          0.4827  -19.4740  -49.2699 C.ar      23 UNK        -0.0193 
     10 C10         0.0853  -20.3323  -50.2985 C.ar      23 UNK        -0.1150 
     11 C11         0.9698  -21.2780  -50.8366 C.ar      23 UNK        -0.0193 
     12 C12         2.2761  -21.3307  -50.3431 C.ar      23 UNK        -0.1150 
     13 C13         2.6994  -20.4671  -49.3288 C.ar      23 UNK        -0.0193 
     14 C14         1.7956  -19.5425  -48.7944 C.ar      23 UNK        -0.1150 
     15 C15         4.1378  -20.5367  -48.8284 C.3       23 UNK        -0.0205 
     16 S16         4.2704  -20.8057  -47.0316 S.3       23 UNK        -0.2404 
     17 C17         3.3619  -22.3740  -46.7985 C.3       23 UNK        -0.0398 
     18 CA          3.8531  -23.1555  -45.5531 C.3       11 UNK         0.1400 
     19 N           3.6892  -22.3762  -44.3201 N.am      11 UNK        -0.5000 
     20 C           4.2990  -22.6221  -43.1535 C.2       10 UNK         0.5000 
     21 O           5.1094  -23.5332  -42.9819 O.2       10 UNK        -0.5000 
     22 CA          3.9175  -21.7085  -41.9752 C.3       10 UNK         0.1400 
     23 CB          4.6612  -20.3661  -42.0572 C.3       10 UNK        -0.1800 
     24 N           2.4753  -21.4640  -41.9146 N.am      10 UNK        -0.5000 
     25 C           1.5759  -22.3352  -41.4372 C.2       9 UNK         0.5000 
     26 O           1.8713  -23.4407  -40.9832 O.2       9 UNK        -0.5000 
     27 CA          0.0949  -21.9078  -41.4770 C.3       9 UNK         0.1400 
     28 CB         -0.2670  -21.1071  -40.2172 C.3       9 UNK        -0.1800 
     29 N          -0.2485  -21.1171  -42.6580 N.am      9 UNK        -0.5000 
     30 C          -0.2438  -21.5820  -43.9154 C.2       8 UNK         0.5000 
     31 O          -0.0004  -22.7506  -44.2128 O.2       8 UNK        -0.5000 
     32 CA         -0.5101  -20.5523  -45.0292 C.3       8 UNK         0.1400 
     33 CB         -2.0228  -20.3575  -45.2022 C.3       8 UNK        -0.1800 
     34 N           0.1333  -19.2563  -44.7826 N.am      8 UNK        -0.5000 
     35 C           1.4480  -19.0864  -44.5775 C.2       7 UNK         0.5000 
     36 O           2.2563  -20.0096  -44.5740 O.2       7 UNK        -0.5000 
     37 CA          1.9485  -17.6747  -44.2484 C.3       7 UNK         0.1400 
     38 CB          2.2258  -16.8636  -45.5174 C.3       7 UNK        -0.1800 
     39 N           1.0140  -16.9606  -43.3836 N.am      7 UNK        -0.5000 
     40 C           0.9705  -17.1115  -42.0532 C.2       6 UNK         0.5000 
     41 O           1.7553  -17.8156  -41.4170 O.2       6 UNK        -0.5000 
     42 CA         -0.1579  -16.3733  -41.3106 C.3       6 UNK         0.1400 
     43 CB          0.2598  -14.9306  -40.9888 C.3       6 UNK        -0.1800 
     44 N          -1.4143  -16.3590  -42.0604 N.am      6 UNK        -0.5000 
     45 C          -2.1466  -17.4499  -42.3281 C.2       5 UNK         0.5000 
     46 O          -1.8462  -18.5846  -41.9549 O.2       5 UNK        -0.5000 
     47 CA         -3.4082  -17.2469  -43.1902 C.3       5 UNK         0.1400 
     48 CB         -4.6245  -16.9537  -42.3003 C.3       5 UNK        -0.1800 
     49 N          -3.2926  -16.1951  -44.2038 N.am      5 UNK        -0.5000 
     50 C          -2.3524  -16.1204  -45.1563 C.2       4 UNK         0.5000 
     51 O          -1.4123  -16.9106  -45.2467 O.2       4 UNK        -0.5000 
     52 CA         -2.4705  -14.9764  -46.1825 C.3       4 UNK         0.1400 
     53 CB         -3.7245  -14.0898  -46.0112 C.3       4 UNK        -0.1800 
     54 N          -1.2704  -14.1393  -46.2195 N.am      4 UNK        -0.5000 
     55 C          -0.7165  -13.4616  -45.2020 C.2       3 UNK         0.5000 
     56 O          -1.1186  -13.5153  -44.0389 O.2       3 UNK        -0.5000 
     57 CA          0.4791  -12.5497  -45.5456 C.3       3 UNK         0.1400 
     58 CB          1.8066  -13.2127  -45.1580 C.3       3 UNK        -0.1800 
     59 N           0.5283  -12.2009  -46.9666 N.am      3 UNK        -0.5000 
     60 C          -0.2186  -11.2607  -47.5560 C.2       2 UNK         0.5000 
     61 O          -0.9679  -10.4989  -46.9443 O.2       2 UNK        -0.5000 
     62 CA         -0.1509  -11.1906  -49.0933 C.3       2 UNK         0.1400 
     63 CB          1.2350  -10.7379  -49.5940 C.3       2 UNK        -0.1800 
     64 N          -0.5935  -12.4354  -49.7351 N.am      2 UNK        -0.5000 
     65 C          -0.0289  -13.6510  -49.7278 C.2       1 UNK         0.5000 
     66 O           1.0692  -13.8704  -49.2145 O.2       1 UNK        -0.5000 
     67 C           3.1613  -24.5346  -45.4629 C.2       11 UNK         0.5000 
     68 O           3.5206  -25.4386  -46.2178 O.2       11 UNK        -0.5000 
     69 N           2.1930  -24.6650  -44.5425 N.am      12 UNK        -0.5000 
     70 CA          1.3704  -25.8409  -44.2394 C.3       12 UNK         0.1400 
     71 CB          2.2408  -27.0193  -43.7556 C.3       12 UNK        -0.1800 
     72 C           0.4060  -26.2314  -45.3795 C.2       12 UNK         0.5000 
     73 O          -0.0563  -27.3728  -45.4283 O.2       12 UNK        -0.5000 
     74 N           0.1018  -25.2742  -46.2614 N.am      13 UNK        -0.5000 
     75 CA         -0.7786  -25.3938  -47.4152 C.3       13 UNK         0.1400 
     76 CB         -0.1472  -26.3000  -48.4909 C.3       13 UNK        -0.1800 
     77 C          -1.0175  -23.9896  -47.9826 C.2       13 UNK         0.5000 
     78 O          -0.1560  -23.1193  -47.8370 O.2       13 UNK        -0.5000 
     79 N          -2.1633  -23.8176  -48.6458 N.am      14 UNK        -0.5000 
     80 CA         -2.5593  -22.6410  -49.4111 C.3       14 UNK         0.1400 
     81 CB         -2.8221  -21.4343  -48.4923 C.3       14 UNK        -0.1800 
     82 C          -3.8074  -22.9939  -50.2312 C.2       14 UNK         0.5000 
     83 O          -4.4223  -24.0377  -49.9879 O.2       14 UNK        -0.5000 
     84 N          -4.1678  -22.1203  -51.1771 N.am      15 UNK        -0.5000 
     85 CA         -5.4119  -22.2089  -51.9398 C.3       15 UNK         0.1400 
     86 CB         -5.2042  -21.5062  -53.2896 C.3       15 UNK        -0.1800 
     87 C          -6.5935  -21.6060  -51.1507 C.2       15 UNK         0.5000 
     88 O          -6.4313  -21.1965  -49.9972 O.2       15 UNK        -0.5000 
     89 N          -7.7718  -21.5570  -51.7886 N.am      16 UNK        -0.5000 
     90 CA         -9.0039  -20.9720  -51.2494 C.3       16 UNK         0.1400 
     91 CB        -10.1155  -21.0802  -52.3038 C.3       16 UNK        -0.1800 
     92 C          -8.8144  -19.5064  -50.8116 C.2       16 UNK         0.5000 
     93 O          -8.1665  -18.7393  -51.5256 O.2       16 UNK        -0.5000 
     94 N          -9.3438  -19.1663  -49.6276 N.am      17 UNK        -0.5000 
     95 CA         -9.1864  -17.8797  -48.9311 C.3       17 UNK         0.1400 
     96 CB         -9.8756  -16.7423  -49.7147 C.3       17 UNK        -0.1800 
     97 C          -7.7195  -17.5470  -48.5654 C.2       17 UNK         0.5000 
     98 O          -7.3797  -16.3742  -48.4032 O.2       17 UNK        -0.5000 
     99 N          -6.8821  -18.5899  -48.4455 N.am      18 UNK        -0.5000 
    100 CA        -5.4367  -18.5574  -48.2048 C.3       18 UNK         0.1400 
    101 CB        -5.1140  -17.9884  -46.8080 C.3       18 UNK        -0.1800 
    102 C         -4.6465  -17.8678  -49.3375 C.2       18 UNK         0.5000 
    103 O         -3.6140  -17.2501  -49.0733 O.2       18 UNK        -0.5000 
    104 N         -5.1500  -17.9683  -50.5760 N.am      19 UNK        -0.5000 
    105 CA        -4.5291  -17.4122  -51.7768 C.3       19 UNK         0.1400 
    106 CB        -5.5762  -17.3473  -52.8999 C.3       19 UNK        -0.1800 
    107 C         -3.2788  -18.1926  -52.2239 C.2       19 UNK         0.5000 
    108 O         -3.0706  -19.3349  -51.8089 O.2       19 UNK        -0.5000 
    109 N         -2.4913  -17.5514  -53.0971 N.am      20 UNK        -0.5000 
    110 CA        -1.2291  -18.0503  -53.6508 C.3       20 UNK         0.1400 
    111 CB        -0.3070  -16.8458  -53.9161 C.3       20 UNK        -0.1800 
    112 C         -1.4001  -18.8860  -54.9379 C.2       20 UNK         0.5000 
    113 O         -0.4082  -19.1415  -55.6230 O.2       20 UNK        -0.5000 
    114 N         -2.6326  -19.2940  -55.2713 N.am      21 UNK        -0.5000 
    115 CA        -2.9733  -20.1232  -56.4343 C.3       21 UNK         0.1400 
    116 CB        -4.4623  -19.9151  -56.7651 C.3       21 UNK        -0.1800 
    117 C         -2.6111  -21.6092  -56.2065 C.2       21 UNK         0.5000 
    118 O         -3.4799  -22.4820  -56.2512 O.2       21 UNK        -0.5000 
    119 N         -1.3339  -21.8594  -55.9161 N.am      22 UNK        -0.5000 
    120 CA        -0.7889  -23.1128  -55.3873 C.3       22 UNK         0.1400 
    121 C          0.7458  -23.2015  -55.6066 C.2       22 UNK         0.5000 
    122 N          1.3339  -24.3775  -55.4319 N.am      22 UNK        -0.7600 
    123 O          1.4158  -22.2225  -55.9293 O.2       22 UNK        -0.5000 
    124 C124       -1.1906  -23.3435  -53.8999 C.3       23 UNK        -0.0398 
    125 S125       -0.9614  -21.8808  -52.8248 S.3       23 UNK        -0.2404 
    126 C126        0.5541  -22.2981  -51.9014 C.3       23 UNK        -0.0205 
    127 H127       -5.2917  -14.5691  -50.3643 H         1 UNK         0.0600 
    128 H128       -4.9927  -13.2136  -49.2746 H         1 UNK         0.0600 
    129 H129       -4.5703  -14.8458  -48.7759 H         1 UNK         0.0600 
    130 H130       -2.5122  -15.6520  -49.3607 H         1 UNK         0.3000 
    131 H131       -0.8675  -14.5894  -51.4299 H         1 UNK         0.0600 
    132 H132        0.8262  -16.1910  -50.6606 H         1 UNK         0.0800 
    133 H133       -0.7355  -16.9409  -50.7908 H         1 UNK         0.0800 
    134 H134       -0.7346  -18.9092  -47.6141 H         1 UNK         0.0800 
    135 H135       -1.4917  -18.6005  -49.1531 H         1 UNK         0.0800 
    136 H136       -0.9348  -20.2814  -50.6462 H         1 UNK         0.1150 
    137 H137        2.9661  -22.0579  -50.7474 H         1 UNK         0.1150 
    138 H138        2.1085  -18.8896  -47.9932 H         1 UNK         0.1150 
    139 H139        4.6908  -21.3258  -49.3400 H         1 UNK         0.0800 
    140 H140        4.6388  -19.6009  -49.0787 H         1 UNK         0.0800 
    141 H141        2.2972  -22.1453  -46.7173 H         1 UNK         0.0800 
    142 H142        3.4792  -22.9796  -47.6991 H         1 UNK         0.0800 
    143 H143        4.9201  -23.3498  -45.6816 H         1 UNK         0.0600 
    144 H144        3.0898  -21.5539  -44.3922 H         1 UNK         0.3000 
    145 H145        4.2249  -22.2050  -41.0523 H         1 UNK         0.0600 
    146 H146        4.4154  -19.7267  -41.2091 H         1 UNK         0.0600 
    147 H147        4.4163  -19.8199  -42.9685 H         1 UNK         0.0600 
    148 H148        5.7410  -20.5191  -42.0485 H         1 UNK         0.0600 
    149 H149        2.1464  -20.5974  -42.3175 H         1 UNK         0.3000 
    150 H150       -0.5120  -22.8155  -41.4916 H         1 UNK         0.0600 
    151 H151       -0.0346  -21.6714  -39.3131 H         1 UNK         0.0600 
    152 H152       -1.3318  -20.8745  -40.1910 H         1 UNK         0.0600 
    153 H153        0.2812  -20.1650  -40.1690 H         1 UNK         0.0600 
    154 H154       -0.5144  -20.1514  -42.4987 H         1 UNK         0.3000 
    155 H155       -0.1008  -20.9481  -45.9613 H         1 UNK         0.0600 
    156 H156       -2.4975  -21.2890  -45.5116 H         1 UNK         0.0600 
    157 H157       -2.2510  -19.6047  -45.9554 H         1 UNK         0.0600 
    158 H158       -2.4934  -20.0550  -44.2684 H         1 UNK         0.0600 
    159 H159       -0.4624  -18.4321  -44.8184 H         1 UNK         0.3000 
    160 H160        2.9021  -17.7889  -43.7279 H         1 UNK         0.0600 
    161 H161        1.3070  -16.4878  -45.9657 H         1 UNK         0.0600 
    162 H162        2.7466  -17.4610  -46.2662 H         1 UNK         0.0600 
    163 H163        2.8691  -16.0158  -45.2891 H         1 UNK         0.0600 
    164 H164        0.2795  -16.4368  -43.8416 H         1 UNK         0.3000 
    165 H165       -0.3333  -16.8965  -40.3682 H         1 UNK         0.0600 
    166 H166       -0.5080  -14.4168  -40.4102 H         1 UNK         0.0600 
    167 H167        1.1774  -14.9128  -40.3993 H         1 UNK         0.0600 
    168 H168        0.4409  -14.3513  -41.8949 H         1 UNK         0.0600 
    169 H169       -1.7102  -15.4701  -42.4411 H         1 UNK         0.3000 
    170 H170       -3.6016  -18.1796  -43.7197 H         1 UNK         0.0600 
    171 H171       -4.7554  -17.7331  -41.5481 H         1 UNK         0.0600 
    172 H172       -4.5187  -16.0040  -41.7744 H         1 UNK         0.0600 
    173 H173       -5.5427  -16.9137  -42.8868 H         1 UNK         0.0600 
    174 H174       -4.0095  -15.4847  -44.1902 H         1 UNK         0.3000 
    175 H175       -2.5403  -15.4622  -47.1555 H         1 UNK         0.0600 
    176 H176       -3.7647  -13.3243  -46.7862 H         1 UNK         0.0600 
    177 H177       -4.6412  -14.6743  -46.0954 H         1 UNK         0.0600 
    178 H178       -3.7385  -13.5771  -45.0487 H         1 UNK         0.0600 
    179 H179       -0.8137  -14.0750  -47.1166 H         1 UNK         0.3000 
    180 H180        0.3695  -11.6376  -44.9553 H         1 UNK         0.0600 
    181 H181        2.6241  -12.4921  -45.1827 H         1 UNK         0.0600 
    182 H182        2.0552  -14.0159  -45.8493 H         1 UNK         0.0600 
    183 H183        1.7700  -13.6315  -44.1512 H         1 UNK         0.0600 
    184 H184        1.0745  -12.8062  -47.5733 H         1 UNK         0.3000 
    185 H185       -0.8688  -10.4302  -49.4048 H         1 UNK         0.0600 
    186 H186        1.2479  -10.6436  -50.6798 H         1 UNK         0.0600 
    187 H187        1.4946   -9.7629  -49.1803 H         1 UNK         0.0600 
    188 H188        2.0275  -11.4301  -49.3097 H         1 UNK         0.0600 
    189 H189       -1.5051  -12.3821  -50.1855 H         1 UNK         0.3000 
    190 H190        1.9301  -23.8298  -44.0343 H         1 UNK         0.3000 
    191 H191        0.7341  -25.5434  -43.4047 H         1 UNK         0.0600 
    192 H192        1.6220  -27.8290  -43.3675 H         1 UNK         0.0600 
    193 H193        2.9096  -26.7104  -42.9520 H         1 UNK         0.0600 
    194 H194        2.8493  -27.4322  -44.5603 H         1 UNK         0.0600 
    195 H195        0.4776  -24.3429  -46.1240 H         1 UNK         0.3000 
    196 H196       -1.7322  -25.8130  -47.0881 H         1 UNK         0.0600 
    197 H197       -0.7747  -26.3474  -49.3817 H         1 UNK         0.0600 
    198 H198       -0.0214  -27.3220  -48.1344 H         1 UNK         0.0600 
    199 H199        0.8320  -25.9301  -48.7982 H         1 UNK         0.0600 
    200 H200       -2.8216  -24.5831  -48.7337 H         1 UNK         0.3000 
    201 H201       -1.7547  -22.4081  -50.1044 H         1 UNK         0.0600 
    202 H202       -3.6154  -21.6408  -47.7735 H         1 UNK         0.0600 
    203 H203       -3.1161  -20.5615  -49.0749 H         1 UNK         0.0600 
    204 H204       -1.9256  -21.1550  -47.9418 H         1 UNK         0.0600 
    205 H205       -3.6349  -21.2647  -51.3021 H         1 UNK         0.3000 
    206 H206       -5.6402  -23.2586  -52.1355 H         1 UNK         0.0600 
    207 H207       -5.1017  -20.4300  -53.1716 H         1 UNK         0.0600 
    208 H208       -6.0361  -21.6879  -53.9702 H         1 UNK         0.0600 
    209 H209       -4.3025  -21.8715  -53.7783 H         1 UNK         0.0600 
    210 H210       -7.8221  -21.8931  -52.7386 H         1 UNK         0.3000 
    211 H211       -9.2926  -21.5654  -50.3796 H         1 UNK         0.0600 
    212 H212       -9.8624  -20.5309  -53.2116 H         1 UNK         0.0600 
    213 H213      -11.0541  -20.6731  -51.9252 H         1 UNK         0.0600 
    214 H214      -10.3007  -22.1187  -52.5791 H         1 UNK         0.0600 
    215 H215       -9.8553  -19.8709  -49.1138 H         1 UNK         0.3000 
    216 H216       -9.7117  -17.9852  -47.9809 H         1 UNK         0.0600 
    217 H217       -9.9068  -15.8247  -49.1261 H         1 UNK         0.0600 
    218 H218      -10.9048  -17.0011  -49.9631 H         1 UNK         0.0600 
    219 H219       -9.3526  -16.5142  -50.6438 H         1 UNK         0.0600 
    220 H220       -7.2492  -19.5107  -48.6505 H         1 UNK         0.3000 
    221 H221       -5.1153  -19.5983  -48.2084 H         1 UNK         0.0600 
    222 H222       -4.0553  -18.1074  -46.5787 H         1 UNK         0.0600 
    223 H223       -5.3465  -16.9262  -46.7392 H         1 UNK         0.0600 
    224 H224       -5.6726  -18.5072  -46.0292 H         1 UNK         0.0600 
    225 H225       -6.0105  -18.4834  -50.7104 H         1 UNK         0.3000 
    226 H226       -4.2135  -16.3934  -51.5541 H         1 UNK         0.0600 
    227 H227       -6.4193  -16.7205  -52.6083 H         1 UNK         0.0600 
    228 H228       -5.1607  -16.9203  -53.8132 H         1 UNK         0.0600 
    229 H229       -5.9712  -18.3318  -53.1475 H         1 UNK         0.0600 
    230 H230       -2.7693  -16.6338  -53.4144 H         1 UNK         0.3000 
    231 H231       -0.7460  -18.6929  -52.9114 H         1 UNK         0.0600 
    232 H232        0.6857  -17.1714  -54.2295 H         1 UNK         0.0600 
    233 H233       -0.1718  -16.2356  -53.0266 H         1 UNK         0.0600 
    234 H234       -0.7042  -16.2025  -54.7022 H         1 UNK         0.0600 
    235 H235       -3.3858  -19.0779  -54.6371 H         1 UNK         0.3000 
    236 H236       -2.3935  -19.7791  -57.2933 H         1 UNK         0.0600 
    237 H237       -5.1071  -20.2268  -55.9433 H         1 UNK         0.0600 
    238 H238       -4.6754  -18.8675  -56.9784 H         1 UNK         0.0600 
    239 H239       -4.7512  -20.4893  -57.6463 H         1 UNK         0.0600 
    240 H240       -0.6797  -21.0812  -55.9060 H         1 UNK         0.3000 
    241 H241       -1.2153  -23.9213  -55.9840 H         1 UNK         0.0600 
    242 H242        2.3300  -24.4486  -55.5716 H         1 UNK         0.3800 
    243 H243        0.8121  -25.2039  -55.1843 H         1 UNK         0.3800 
    244 H244       -0.6736  -24.2042  -53.4735 H         1 UNK         0.0800 
    245 H245       -2.2499  -23.5998  -53.8580 H         1 UNK         0.0800 
    246 H246        0.4131  -23.2619  -51.4104 H         1 UNK         0.0800 
    247 H247        1.3665  -22.4244  -52.6187 H         1 UNK         0.0800 
@<TRIPOS>BOND
     1    1    2 1    
     2    1  127 1    
     3    1  128 1    
     4    1  129 1    
     5    2    3 2    
     6    2    4 am   BACKBONE|DICT|INTERRES
     7    4    5 1    
     8    4  130 1    
     9    5    6 1    
    10    5   65 1    
    11    5  131 1    
    12    6    7 1    
    13    6  132 1    
    14    6  133 1    
    15    7    8 1    
    16    8    9 1    
    17    8  134 1    
    18    8  135 1    
    19    9   10 ar   
    20    9   14 ar   
    21   10   11 ar   
    22   10  136 1    
    23   11   12 ar   
    24   11  126 1    
    25   12   13 ar   
    26   12  137 1    
    27   13   14 ar   
    28   13   15 1    
    29   14  138 1    
    30   15   16 1    
    31   15  139 1    
    32   15  140 1    
    33   16   17 1    
    34   17   18 1    
    35   17  141 1    
    36   17  142 1    
    37   18   19 1    
    38   18   67 1    
    39   18  143 1    
    40   19   20 am   BACKBONE|DICT|INTERRES
    41   19  144 1    
    42   20   21 2    
    43   20   22 1    
    44   22   23 1    
    45   22   24 1    
    46   22  145 1    
    47   23  146 1    
    48   23  147 1    
    49   23  148 1    
    50   24   25 am   BACKBONE|DICT|INTERRES
    51   24  149 1    
    52   25   26 2    
    53   25   27 1    
    54   27   28 1    
    55   27   29 1    
    56   27  150 1    
    57   28  151 1    
    58   28  152 1    
    59   28  153 1    
    60   29   30 am   BACKBONE|DICT|INTERRES
    61   29  154 1    
    62   30   31 2    
    63   30   32 1    
    64   32   33 1    
    65   32   34 1    
    66   32  155 1    
    67   33  156 1    
    68   33  157 1    
    69   33  158 1    
    70   34   35 am   BACKBONE|DICT|INTERRES
    71   34  159 1    
    72   35   36 2    
    73   35   37 1    
    74   37   38 1    
    75   37   39 1    
    76   37  160 1    
    77   38  161 1    
    78   38  162 1    
    79   38  163 1    
    80   39   40 am   BACKBONE|DICT|INTERRES
    81   39  164 1    
    82   40   41 2    
    83   40   42 1    
    84   42   43 1    
    85   42   44 1    
    86   42  165 1    
    87   43  166 1    
    88   43  167 1    
    89   43  168 1    
    90   44   45 am   BACKBONE|DICT|INTERRES
    91   44  169 1    
    92   45   46 2    
    93   45   47 1    
    94   47   48 1    
    95   47   49 1    
    96   47  170 1    
    97   48  171 1    
    98   48  172 1    
    99   48  173 1    
   100   49   50 am   BACKBONE|DICT|INTERRES
   101   49  174 1    
   102   50   51 2    
   103   50   52 1    
   104   52   53 1    
   105   52   54 1    
   106   52  175 1    
   107   53  176 1    
   108   53  177 1    
   109   53  178 1    
   110   54   55 am   BACKBONE|DICT|INTERRES
   111   54  179 1    
   112   55   56 2    
   113   55   57 1    
   114   57   58 1    
   115   57   59 1    
   116   57  180 1    
   117   58  181 1    
   118   58  182 1    
   119   58  183 1    
   120   59   60 am   BACKBONE|DICT|INTERRES
   121   59  184 1    
   122   60   61 2    
   123   60   62 1    
   124   62   63 1    
   125   62   64 1    
   126   62  185 1    
   127   63  186 1    
   128   63  187 1    
   129   63  188 1    
   130   64   65 am   BACKBONE|DICT|INTERRES
   131   64  189 1    
   132   65   66 2    
   133   67   68 2    
   134   67   69 am   BACKBONE|DICT|INTERRES
   135   69   70 1    
   136   69  190 1    
   137   70   71 1    
   138   70   72 1    
   139   70  191 1    
   140   71  192 1    
   141   71  193 1    
   142   71  194 1    
   143   72   73 2    
   144   72   74 am   BACKBONE|DICT|INTERRES
   145   74   75 1    
   146   74  195 1    
   147   75   76 1    
   148   75   77 1    
   149   75  196 1    
   150   76  197 1    
   151   76  198 1    
   152   76  199 1    
   153   77   78 2    
   154   77   79 am   BACKBONE|DICT|INTERRES
   155   79   80 1    
   156   79  200 1    
   157   80   81 1    
   158   80   82 1    
   159   80  201 1    
   160   81  202 1    
   161   81  203 1    
   162   81  204 1    
   163   82   83 2    
   164   82   84 am   BACKBONE|DICT|INTERRES
   165   84   85 1    
   166   84  205 1    
   167   85   86 1    
   168   85   87 1    
   169   85  206 1    
   170   86  207 1    
   171   86  208 1    
   172   86  209 1    
   173   87   88 2    
   174   87   89 am   BACKBONE|DICT|INTERRES
   175   89   90 1    
   176   89  210 1    
   177   90   91 1    
   178   90   92 1    
   179   90  211 1    
   180   91  212 1    
   181   91  213 1    
   182   91  214 1    
   183   92   93 2    
   184   92   94 am   BACKBONE|DICT|INTERRES
   185   94   95 1    
   186   94  215 1    
   187   95   96 1    
   188   95   97 1    
   189   95  216 1    
   190   96  217 1    
   191   96  218 1    
   192   96  219 1    
   193   97   98 2    
   194   97   99 am   BACKBONE|DICT|INTERRES
   195   99  100 1    
   196   99  220 1    
   197  100  101 1    
   198  100  102 1    
   199  100  221 1    
   200  101  222 1    
   201  101  223 1    
   202  101  224 1    
   203  102  103 2    
   204  102  104 am   BACKBONE|DICT|INTERRES
   205  104  105 1    
   206  104  225 1    
   207  105  106 1    
   208  105  107 1    
   209  105  226 1    
   210  106  227 1    
   211  106  228 1    
   212  106  229 1    
   213  107  108 2    
   214  107  109 am   BACKBONE|DICT|INTERRES
   215  109  110 1    
   216  109  230 1    
   217  110  111 1    
   218  110  112 1    
   219  110  231 1    
   220  111  232 1    
   221  111  233 1    
   222  111  234 1    
   223  112  113 2    
   224  112  114 am   BACKBONE|DICT|INTERRES
   225  114  115 1    
   226  114  235 1    
   227  115  116 1    
   228  115  117 1    
   229  115  236 1    
   230  116  237 1    
   231  116  238 1    
   232  116  239 1    
   233  117  118 2    
   234  117  119 am   BACKBONE|DICT|INTERRES
   235  119  120 1    
   236  119  240 1    
   237  120  121 1    
   238  120  124 1    
   239  120  241 1    
   240  121  122 am   BACKBONE|DICT|INTERRES
   241  121  123 2    
   242  122  242 1    
   243  122  243 1    
   244  124  125 1    
   245  124  244 1    
   246  124  245 1    
   247  125  126 1    
   248  126  246 1    
   249  126  247 1    
@<TRIPOS>SUBSTRUCTURE
     1 UNK         1 GROUP             0       ****    0 ROOT    
