@<TRIPOS>MOLECULE
3R540
247   249    1
SMALL
USER_CHARGES


@<TRIPOS>ATOM
      1 CA         -2.3259  -13.5684  -46.1552 C.3       0 UNK        -0.1800 
      2 C          -1.6648  -12.7321  -47.2383 C.2       0 UNK         0.5000 
      3 O          -2.2989  -11.8335  -47.7926 O.2       0 UNK        -0.5000 
      4 N          -0.3912  -13.0122  -47.5378 N.am      1 UNK        -0.5000 
      5 CA          0.4132  -12.2906  -48.5279 C.3       1 UNK         0.1400 
      6 C6          1.4783  -13.2036  -49.1837 C.3       23 UNK        -0.0398 
      7 S7          0.7146  -14.4840  -50.2325 S.3       23 UNK        -0.2404 
      8 C8          0.8188  -15.9295  -49.1341 C.3       23 UNK        -0.0205 
      9 C9         -0.0355  -17.0809  -49.6375 C.ar      23 UNK        -0.0193 
     10 C10        -1.4256  -16.9480  -49.6827 C.ar      23 UNK        -0.1150 
     11 C11        -2.2295  -18.0052  -50.1140 C.ar      23 UNK        -0.0193 
     12 C12        -1.6290  -19.2110  -50.4939 C.ar      23 UNK        -0.1150 
     13 C13        -0.2387  -19.3560  -50.4566 C.ar      23 UNK        -0.0193 
     14 C14         0.5530  -18.2864  -50.0288 C.ar      23 UNK        -0.1150 
     15 C15         0.4130  -20.6609  -50.8913 C.3       23 UNK        -0.0205 
     16 S16         0.9153  -21.6853  -49.4752 S.3       23 UNK        -0.2404 
     17 C17        -0.7051  -22.1696  -48.7994 C.3       23 UNK        -0.0398 
     18 CA         -0.5848  -23.2867  -47.7383 C.3       11 UNK         0.1400 
     19 N           0.1224  -22.8418  -46.5310 N.am      11 UNK        -0.5000 
     20 C           0.5101  -23.6554  -45.5386 C.2       10 UNK         0.5000 
     21 O           0.3440  -24.8738  -45.5542 O.2       10 UNK        -0.5000 
     22 CA          1.1337  -23.0016  -44.2936 C.3       10 UNK         0.1400 
     23 CB          2.6030  -22.6287  -44.5399 C.3       10 UNK        -0.1800 
     24 N           0.3832  -21.8285  -43.8466 N.am      10 UNK        -0.5000 
     25 C          -0.8778  -21.8662  -43.3924 C.2       9 UNK         0.5000 
     26 O          -1.5181  -22.9076  -43.2481 O.2       9 UNK        -0.5000 
     27 CA         -1.5563  -20.5155  -43.0940 C.3       9 UNK         0.1400 
     28 CB         -1.1636  -19.9997  -41.7023 C.3       9 UNK        -0.1800 
     29 N          -1.2586  -19.4958  -44.1009 N.am      9 UNK        -0.5000 
     30 C          -1.6006  -19.5836  -45.3949 C.2       8 UNK         0.5000 
     31 O          -2.2456  -20.5156  -45.8727 O.2       8 UNK        -0.5000 
     32 CA         -1.0880  -18.4700  -46.3222 C.3       8 UNK         0.1400 
     33 CB         -1.9934  -17.2340  -46.2421 C.3       8 UNK        -0.1800 
     34 N           0.2952  -18.0961  -46.0245 N.am      8 UNK        -0.5000 
     35 C           1.3393  -18.9230  -46.1798 C.2       7 UNK         0.5000 
     36 O           1.2443  -20.0720  -46.6073 O.2       7 UNK        -0.5000 
     37 CA          2.7073  -18.4016  -45.7095 C.3       7 UNK         0.1400 
     38 CB          3.3124  -17.4303  -46.7331 C.3       7 UNK        -0.1800 
     39 N           2.6222  -17.7496  -44.4032 N.am      7 UNK        -0.5000 
     40 C           2.3273  -18.3865  -43.2605 C.2       6 UNK         0.5000 
     41 O           2.1481  -19.6006  -43.1826 O.2       6 UNK        -0.5000 
     42 CA          2.1673  -17.5188  -41.9991 C.3       6 UNK         0.1400 
     43 CB          3.5119  -17.3755  -41.2711 C.3       6 UNK        -0.1800 
     44 N           1.6269  -16.1878  -42.2789 N.am      6 UNK        -0.5000 
     45 C           0.4100  -15.9382  -42.7853 C.2       5 UNK         0.5000 
     46 O          -0.4048  -16.8157  -43.0718 O.2       5 UNK        -0.5000 
     47 CA          0.0741  -14.4603  -43.0580 C.3       5 UNK         0.1400 
     48 CB         -0.5674  -13.8101  -41.8244 C.3       5 UNK        -0.1800 
     49 N           1.2576  -13.6932  -43.4501 N.am      5 UNK        -0.5000 
     50 C           1.8949  -13.8152  -44.6208 C.2       4 UNK         0.5000 
     51 O           1.4639  -14.4793  -45.5675 O.2       4 UNK        -0.5000 
     52 CA          3.2405  -13.0720  -44.7200 C.3       4 UNK         0.1400 
     53 CB          4.0659  -13.4632  -45.9565 C.3       4 UNK        -0.1800 
     54 N           3.0484  -11.6228  -44.6940 N.am      4 UNK        -0.5000 
     55 C           2.9049  -10.8931  -43.5778 C.2       3 UNK         0.5000 
     56 O           2.9105  -11.3838  -42.4474 O.2       3 UNK        -0.5000 
     57 CA          2.7158   -9.3711  -43.7361 C.3       3 UNK         0.1400 
     58 CB          4.0600   -8.6449  -43.5760 C.3       3 UNK        -0.1800 
     59 N           2.1202   -8.9914  -45.0171 N.am      3 UNK        -0.5000 
     60 C           0.8456   -9.2170  -45.3588 C.2       2 UNK         0.5000 
     61 O           0.0164   -9.7261  -44.6030 O.2       2 UNK        -0.5000 
     62 CA          0.4209   -8.8477  -46.7942 C.3       2 UNK         0.1400 
     63 CB          1.4054   -7.9138  -47.5349 C.3       2 UNK        -0.1800 
     64 N           0.1584  -10.0595  -47.5731 N.am      2 UNK        -0.5000 
     65 C           1.0208  -11.0489  -47.8482 C.2       1 UNK         0.5000 
     66 O           2.2135  -11.0279  -47.5379 O.2       1 UNK        -0.5000 
     67 C          -1.9710  -23.8838  -47.4137 C.2       11 UNK         0.5000 
     68 O          -2.3538  -24.8908  -48.0156 O.2       11 UNK        -0.5000 
     69 N          -2.6863  -23.2767  -46.4554 N.am      12 UNK        -0.5000 
     70 CA         -3.9675  -23.7576  -45.9405 C.3       12 UNK         0.1400 
     71 CB         -4.6012  -22.7057  -45.0196 C.3       12 UNK        -0.1800 
     72 C          -3.8444  -25.1190  -45.2374 C.2       12 UNK         0.5000 
     73 O          -4.6469  -26.0126  -45.5061 O.2       12 UNK        -0.5000 
     74 N          -2.8188  -25.2703  -44.3902 N.am      13 UNK        -0.5000 
     75 CA         -2.4900  -26.5259  -43.7162 C.3       13 UNK         0.1400 
     76 CB         -1.4069  -26.2676  -42.6578 C.3       13 UNK        -0.1800 
     77 C          -2.0475  -27.6326  -44.6932 C.2       13 UNK         0.5000 
     78 O          -2.4193  -28.7914  -44.5035 O.2       13 UNK        -0.5000 
     79 N          -1.2645  -27.2571  -45.7133 N.am      14 UNK        -0.5000 
     80 CA         -0.7161  -28.1659  -46.7154 C.3       14 UNK         0.1400 
     81 CB          0.4321  -27.4750  -47.4679 C.3       14 UNK        -0.1800 
     82 C          -1.7649  -28.6964  -47.7070 C.2       14 UNK         0.5000 
     83 O          -1.8123  -29.9072  -47.9312 O.2       14 UNK        -0.5000 
     84 N          -2.5513  -27.7966  -48.3158 N.am      15 UNK        -0.5000 
     85 CA         -3.3861  -28.1261  -49.4759 C.3       15 UNK         0.1400 
     86 CB         -2.5183  -28.0923  -50.7520 C.3       15 UNK        -0.1800 
     87 C          -4.6394  -27.2413  -49.6019 C.2       15 UNK         0.5000 
     88 O          -5.1458  -27.0738  -50.7122 O.2       15 UNK        -0.5000 
     89 N          -5.1236  -26.6807  -48.4826 N.am      16 UNK        -0.5000 
     90 CA         -6.3140  -25.8185  -48.3778 C.3       16 UNK         0.1400 
     91 CB         -7.5926  -26.5828  -48.7822 C.3       16 UNK        -0.1800 
     92 C          -6.1887  -24.4608  -49.1067 C.2       16 UNK         0.5000 
     93 O          -7.1959  -23.7739  -49.2846 O.2       16 UNK        -0.5000 
     94 N          -4.9573  -24.0889  -49.4871 N.am      17 UNK        -0.5000 
     95 CA         -4.5012  -22.8648  -50.1554 C.3       17 UNK         0.1400 
     96 CB         -4.7144  -21.6317  -49.2622 C.3       17 UNK        -0.1800 
     97 C          -5.0523  -22.6210  -51.5737 C.2       17 UNK         0.5000 
     98 O          -4.2743  -22.2535  -52.4561 O.2       17 UNK        -0.5000 
     99 N          -6.3626  -22.8243  -51.7676 N.am      18 UNK        -0.5000 
    100 CA        -7.1351  -22.6255  -52.9959 C.3       18 UNK         0.1400 
    101 CB        -6.8083  -23.7427  -54.0125 C.3       18 UNK        -0.1800 
    102 C         -6.9480  -21.1964  -53.5464 C.2       18 UNK         0.5000 
    103 O         -7.4918  -20.2510  -52.9737 O.2       18 UNK        -0.5000 
    104 N         -6.1539  -21.0694  -54.6125 N.am      19 UNK        -0.5000 
    105 CA        -5.6501  -19.8139  -55.1570 C.3       19 UNK         0.1400 
    106 CB        -6.6108  -19.2906  -56.2415 C.3       19 UNK        -0.1800 
    107 C         -4.2116  -20.0293  -55.6646 C.2       19 UNK         0.5000 
    108 O         -3.8480  -19.4977  -56.7143 O.2       19 UNK        -0.5000 
    109 N         -3.4298  -20.8469  -54.9383 N.am      20 UNK        -0.5000 
    110 CA        -2.0972  -21.3104  -55.3401 C.3       20 UNK         0.1400 
    111 CB        -1.6039  -22.3708  -54.3441 C.3       20 UNK        -0.1800 
    112 C         -1.0598  -20.1834  -55.4978 C.2       20 UNK         0.5000 
    113 O         -0.2970  -20.1935  -56.4651 O.2       20 UNK        -0.5000 
    114 N         -1.0670  -19.2272  -54.5624 N.am      21 UNK        -0.5000 
    115 CA        -0.2246  -18.0282  -54.5918 C.3       21 UNK         0.1400 
    116 CB         1.1665  -18.3432  -54.0085 C.3       21 UNK        -0.1800 
    117 C         -0.8999  -16.8417  -53.8786 C.2       21 UNK         0.5000 
    118 O         -0.2212  -15.8702  -53.5448 O.2       21 UNK        -0.5000 
    119 N         -2.2145  -16.9445  -53.6438 N.am      22 UNK        -0.5000 
    120 CA        -3.0213  -15.9626  -52.9084 C.3       22 UNK         0.1400 
    121 C         -3.1468  -14.6008  -53.6467 C.2       22 UNK         0.5000 
    122 N         -3.1386  -13.4900  -52.9222 N.am      22 UNK        -0.7600 
    123 O         -3.3010  -14.5453  -54.8650 O.2       22 UNK        -0.5000 
    124 C124       -4.4281  -16.5174  -52.5621 C.3       23 UNK        -0.0398 
    125 S125       -4.4386  -18.1775  -51.7955 S.3       23 UNK        -0.2404 
    126 C126       -3.7440  -17.8474  -50.1436 C.3       23 UNK        -0.0205 
    127 H127       -3.2618  -13.9903  -46.5214 H         1 UNK         0.0600 
    128 H128       -2.5417  -12.9527  -45.2821 H         1 UNK         0.0600 
    129 H129       -1.6833  -14.3894  -45.8460 H         1 UNK         0.0600 
    130 H130        0.1114  -13.7044  -46.9932 H         1 UNK         0.3000 
    131 H131       -0.2351  -11.9274  -49.3287 H         1 UNK         0.0600 
    132 H132        2.1068  -13.6786  -48.4313 H         1 UNK         0.0800 
    133 H133        2.1462  -12.6181  -49.8178 H         1 UNK         0.0800 
    134 H134        1.8637  -16.2298  -49.0538 H         1 UNK         0.0800 
    135 H135        0.4908  -15.6617  -48.1293 H         1 UNK         0.0800 
    136 H136       -1.8783  -16.0152  -49.3774 H         1 UNK         0.1150 
    137 H137       -2.2458  -20.0343  -50.8252 H         1 UNK         0.1150 
    138 H138        1.6272  -18.3999  -49.9925 H         1 UNK         0.1150 
    139 H139       -0.2559  -21.2317  -51.5350 H         1 UNK         0.0800 
    140 H140        1.2978  -20.4440  -51.4906 H         1 UNK         0.0800 
    141 H141       -1.3153  -22.5034  -49.6383 H         1 UNK         0.0800 
    142 H142       -1.1964  -21.2892  -48.3814 H         1 UNK         0.0800 
    143 H143        0.0045  -24.0958  -48.1747 H         1 UNK         0.0600 
    144 H144        0.3427  -21.8515  -46.4720 H         1 UNK         0.3000 
    145 H145        1.1068  -23.7375  -43.4873 H         1 UNK         0.0600 
    146 H146        3.0674  -22.2407  -43.6333 H         1 UNK         0.0600 
    147 H147        3.1788  -23.5005  -44.8529 H         1 UNK         0.0600 
    148 H148        2.7056  -21.8721  -45.3173 H         1 UNK         0.0600 
    149 H149        0.8678  -20.9372  -43.8841 H         1 UNK         0.3000 
    150 H150       -2.6359  -20.6773  -43.1012 H         1 UNK         0.0600 
    151 H151       -1.4516  -20.7125  -40.9287 H         1 UNK         0.0600 
    152 H152       -1.6579  -19.0546  -41.4761 H         1 UNK         0.0600 
    153 H153       -0.0886  -19.8445  -41.6189 H         1 UNK         0.0600 
    154 H154       -0.7659  -18.6668  -43.7844 H         1 UNK         0.3000 
    155 H155       -1.1186  -18.8501  -47.3454 H         1 UNK         0.0600 
    156 H156       -2.0260  -16.8178  -45.2350 H         1 UNK         0.0600 
    157 H157       -3.0157  -17.4829  -46.5289 H         1 UNK         0.0600 
    158 H158       -1.6486  -16.4538  -46.9180 H         1 UNK         0.0600 
    159 H159        0.4489  -17.1832  -45.6220 H         1 UNK         0.3000 
    160 H160        3.3767  -19.2599  -45.6195 H         1 UNK         0.0600 
    161 H161        2.7233  -16.5178  -46.8200 H         1 UNK         0.0600 
    162 H162        3.3629  -17.8874  -47.7223 H         1 UNK         0.0600 
    163 H163        4.3274  -17.1475  -46.4540 H         1 UNK         0.0600 
    164 H164        2.7335  -16.7475  -44.3841 H         1 UNK         0.3000 
    165 H165        1.4701  -18.0281  -41.3313 H         1 UNK         0.0600 
    166 H166        3.3971  -16.8316  -40.3333 H         1 UNK         0.0600 
    167 H167        3.9300  -18.3535  -41.0285 H         1 UNK         0.0600 
    168 H168        4.2462  -16.8463  -41.8798 H         1 UNK         0.0600 
    169 H169        2.2263  -15.4040  -42.0682 H         1 UNK         0.3000 
    170 H170       -0.6486  -14.4288  -43.8718 H         1 UNK         0.0600 
    171 H171       -1.4642  -14.3515  -41.5201 H         1 UNK         0.0600 
    172 H172        0.1146  -13.7974  -40.9733 H         1 UNK         0.0600 
    173 H173       -0.8638  -12.7817  -42.0322 H         1 UNK         0.0600 
    174 H174        1.6572  -13.0710  -42.7562 H         1 UNK         0.3000 
    175 H175        3.8286  -13.3692  -43.8490 H         1 UNK         0.0600 
    176 H176        3.5975  -13.1350  -46.8806 H         1 UNK         0.0600 
    177 H177        5.0602  -13.0184  -45.9171 H         1 UNK         0.0600 
    178 H178        4.1978  -14.5437  -46.0171 H         1 UNK         0.0600 
    179 H179        2.9543  -11.1691  -45.5967 H         1 UNK         0.3000 
    180 H180        2.0512   -9.0375  -42.9363 H         1 UNK         0.0600 
    181 H181        4.7655   -8.9265  -44.3587 H         1 UNK         0.0600 
    182 H182        4.5213   -8.8837  -42.6167 H         1 UNK         0.0600 
    183 H183        3.9310   -7.5630  -43.6124 H         1 UNK         0.0600 
    184 H184        2.7404   -8.5934  -45.7074 H         1 UNK         0.3000 
    185 H185       -0.5301   -8.3203  -46.7067 H         1 UNK         0.0600 
    186 H186        1.5660   -6.9916  -46.9749 H         1 UNK         0.0600 
    187 H187        2.3791   -8.3749  -47.7017 H         1 UNK         0.0600 
    188 H188        1.0083   -7.6298  -48.5095 H         1 UNK         0.0600 
    189 H189       -0.8160  -10.2303  -47.7948 H         1 UNK         0.3000 
    190 H190       -2.3379  -22.4073  -46.0593 H         1 UNK         0.3000 
    191 H191       -4.6348  -23.8856  -46.7894 H         1 UNK         0.0600 
    192 H192       -4.7528  -21.7631  -45.5457 H         1 UNK         0.0600 
    193 H193       -5.5763  -23.0386  -44.6619 H         1 UNK         0.0600 
    194 H194       -3.9832  -22.5054  -44.1455 H         1 UNK         0.0600 
    195 H195       -2.2261  -24.4705  -44.1856 H         1 UNK         0.3000 
    196 H196       -3.3882  -26.8761  -43.2033 H         1 UNK         0.0600 
    197 H197       -1.1569  -27.1841  -42.1219 H         1 UNK         0.0600 
    198 H198       -1.7438  -25.5397  -41.9195 H         1 UNK         0.0600 
    199 H199       -0.4884  -25.8869  -43.1057 H         1 UNK         0.0600 
    200 H200       -0.9421  -26.2942  -45.7502 H         1 UNK         0.3000 
    201 H201       -0.2945  -29.0263  -46.1911 H         1 UNK         0.0600 
    202 H202        1.2378  -27.1980  -46.7879 H         1 UNK         0.0600 
    203 H203        0.0956  -26.5700  -47.9743 H         1 UNK         0.0600 
    204 H204        0.8589  -28.1353  -48.2239 H         1 UNK         0.0600 
    205 H205       -2.4510  -26.8086  -48.0932 H         1 UNK         0.3000 
    206 H206       -3.7734  -29.1404  -49.3593 H         1 UNK         0.0600 
    207 H207       -1.6735  -28.7771  -50.6786 H         1 UNK         0.0600 
    208 H208       -3.0902  -28.3895  -51.6319 H         1 UNK         0.0600 
    209 H209       -2.1232  -27.0925  -50.9361 H         1 UNK         0.0600 
    210 H210       -4.6474  -26.8595  -47.6063 H         1 UNK         0.3000 
    211 H211       -6.4201  -25.5720  -47.3220 H         1 UNK         0.0600 
    212 H212       -7.6266  -26.7855  -49.8528 H         1 UNK         0.0600 
    213 H213       -8.4860  -26.0089  -48.5338 H         1 UNK         0.0600 
    214 H214       -7.6658  -27.5348  -48.2565 H         1 UNK         0.0600 
    215 H215       -4.2142  -24.7426  -49.2737 H         1 UNK         0.3000 
    216 H216       -3.4271  -22.9966  -50.2776 H         1 UNK         0.0600 
    217 H217       -4.3218  -20.7427  -49.7510 H         1 UNK         0.0600 
    218 H218       -4.1972  -21.7316  -48.3088 H         1 UNK         0.0600 
    219 H219       -5.7698  -21.4517  -49.0570 H         1 UNK         0.0600 
    220 H220       -6.8969  -23.1058  -50.9483 H         1 UNK         0.3000 
    221 H221       -8.1877  -22.7192  -52.7250 H         1 UNK         0.0600 
    222 H222       -5.7506  -23.7699  -54.2767 H         1 UNK         0.0600 
    223 H223       -7.0660  -24.7206  -53.6053 H         1 UNK         0.0600 
    224 H224       -7.3813  -23.6181  -54.9322 H         1 UNK         0.0600 
    225 H225       -5.7399  -21.9068  -54.9985 H         1 UNK         0.3000 
    226 H226       -5.5907  -19.0686  -54.3629 H         1 UNK         0.0600 
    227 H227       -7.6128  -19.1388  -55.8400 H         1 UNK         0.0600 
    228 H228       -6.2730  -18.3317  -56.6363 H         1 UNK         0.0600 
    229 H229       -6.6867  -19.9860  -57.0782 H         1 UNK         0.0600 
    230 H230       -3.7965  -21.2411  -54.0749 H         1 UNK         0.3000 
    231 H231       -2.2005  -21.7914  -56.3150 H         1 UNK         0.0600 
    232 H232       -2.2602  -23.2413  -54.3410 H         1 UNK         0.0600 
    233 H233       -1.5686  -21.9797  -53.3277 H         1 UNK         0.0600 
    234 H234       -0.6026  -22.7190  -54.6009 H         1 UNK         0.0600 
    235 H235       -1.6977  -19.3153  -53.7786 H         1 UNK         0.3000 
    236 H236       -0.0970  -17.7154  -55.6302 H         1 UNK         0.0600 
    237 H237        1.8409  -17.4939  -54.1231 H         1 UNK         0.0600 
    238 H238        1.1078  -18.5698  -52.9453 H         1 UNK         0.0600 
    239 H239        1.6303  -19.1922  -54.5103 H         1 UNK         0.0600 
    240 H240       -2.7167  -17.7348  -54.0136 H         1 UNK         0.3000 
    241 H241       -2.4983  -15.7720  -51.9707 H         1 UNK         0.0600 
    242 H242       -3.2363  -12.6021  -53.3897 H         1 UNK         0.3800 
    243 H243       -3.0143  -13.5093  -51.9220 H         1 UNK         0.3800 
    244 H244       -5.0376  -16.5802  -53.4655 H         1 UNK         0.0800 
    245 H245       -4.9529  -15.8293  -51.8972 H         1 UNK         0.0800 
    246 H246       -4.1820  -18.5354  -49.4218 H         1 UNK         0.0800 
    247 H247       -4.0416  -16.8500  -49.8170 H         1 UNK         0.0800 
@<TRIPOS>BOND
     1    1    2 1    
     2    1  127 1    
     3    1  128 1    
     4    1  129 1    
     5    2    3 2    
     6    2    4 am   BACKBONE|DICT|INTERRES
     7    4    5 1    
     8    4  130 1    
     9    5    6 1    
    10    5   65 1    
    11    5  131 1    
    12    6    7 1    
    13    6  132 1    
    14    6  133 1    
    15    7    8 1    
    16    8    9 1    
    17    8  134 1    
    18    8  135 1    
    19    9   10 ar   
    20    9   14 ar   
    21   10   11 ar   
    22   10  136 1    
    23   11   12 ar   
    24   11  126 1    
    25   12   13 ar   
    26   12  137 1    
    27   13   14 ar   
    28   13   15 1    
    29   14  138 1    
    30   15   16 1    
    31   15  139 1    
    32   15  140 1    
    33   16   17 1    
    34   17   18 1    
    35   17  141 1    
    36   17  142 1    
    37   18   19 1    
    38   18   67 1    
    39   18  143 1    
    40   19   20 am   BACKBONE|DICT|INTERRES
    41   19  144 1    
    42   20   21 2    
    43   20   22 1    
    44   22   23 1    
    45   22   24 1    
    46   22  145 1    
    47   23  146 1    
    48   23  147 1    
    49   23  148 1    
    50   24   25 am   BACKBONE|DICT|INTERRES
    51   24  149 1    
    52   25   26 2    
    53   25   27 1    
    54   27   28 1    
    55   27   29 1    
    56   27  150 1    
    57   28  151 1    
    58   28  152 1    
    59   28  153 1    
    60   29   30 am   BACKBONE|DICT|INTERRES
    61   29  154 1    
    62   30   31 2    
    63   30   32 1    
    64   32   33 1    
    65   32   34 1    
    66   32  155 1    
    67   33  156 1    
    68   33  157 1    
    69   33  158 1    
    70   34   35 am   BACKBONE|DICT|INTERRES
    71   34  159 1    
    72   35   36 2    
    73   35   37 1    
    74   37   38 1    
    75   37   39 1    
    76   37  160 1    
    77   38  161 1    
    78   38  162 1    
    79   38  163 1    
    80   39   40 am   BACKBONE|DICT|INTERRES
    81   39  164 1    
    82   40   41 2    
    83   40   42 1    
    84   42   43 1    
    85   42   44 1    
    86   42  165 1    
    87   43  166 1    
    88   43  167 1    
    89   43  168 1    
    90   44   45 am   BACKBONE|DICT|INTERRES
    91   44  169 1    
    92   45   46 2    
    93   45   47 1    
    94   47   48 1    
    95   47   49 1    
    96   47  170 1    
    97   48  171 1    
    98   48  172 1    
    99   48  173 1    
   100   49   50 am   BACKBONE|DICT|INTERRES
   101   49  174 1    
   102   50   51 2    
   103   50   52 1    
   104   52   53 1    
   105   52   54 1    
   106   52  175 1    
   107   53  176 1    
   108   53  177 1    
   109   53  178 1    
   110   54   55 am   BACKBONE|DICT|INTERRES
   111   54  179 1    
   112   55   56 2    
   113   55   57 1    
   114   57   58 1    
   115   57   59 1    
   116   57  180 1    
   117   58  181 1    
   118   58  182 1    
   119   58  183 1    
   120   59   60 am   BACKBONE|DICT|INTERRES
   121   59  184 1    
   122   60   61 2    
   123   60   62 1    
   124   62   63 1    
   125   62   64 1    
   126   62  185 1    
   127   63  186 1    
   128   63  187 1    
   129   63  188 1    
   130   64   65 am   BACKBONE|DICT|INTERRES
   131   64  189 1    
   132   65   66 2    
   133   67   68 2    
   134   67   69 am   BACKBONE|DICT|INTERRES
   135   69   70 1    
   136   69  190 1    
   137   70   71 1    
   138   70   72 1    
   139   70  191 1    
   140   71  192 1    
   141   71  193 1    
   142   71  194 1    
   143   72   73 2    
   144   72   74 am   BACKBONE|DICT|INTERRES
   145   74   75 1    
   146   74  195 1    
   147   75   76 1    
   148   75   77 1    
   149   75  196 1    
   150   76  197 1    
   151   76  198 1    
   152   76  199 1    
   153   77   78 2    
   154   77   79 am   BACKBONE|DICT|INTERRES
   155   79   80 1    
   156   79  200 1    
   157   80   81 1    
   158   80   82 1    
   159   80  201 1    
   160   81  202 1    
   161   81  203 1    
   162   81  204 1    
   163   82   83 2    
   164   82   84 am   BACKBONE|DICT|INTERRES
   165   84   85 1    
   166   84  205 1    
   167   85   86 1    
   168   85   87 1    
   169   85  206 1    
   170   86  207 1    
   171   86  208 1    
   172   86  209 1    
   173   87   88 2    
   174   87   89 am   BACKBONE|DICT|INTERRES
   175   89   90 1    
   176   89  210 1    
   177   90   91 1    
   178   90   92 1    
   179   90  211 1    
   180   91  212 1    
   181   91  213 1    
   182   91  214 1    
   183   92   93 2    
   184   92   94 am   BACKBONE|DICT|INTERRES
   185   94   95 1    
   186   94  215 1    
   187   95   96 1    
   188   95   97 1    
   189   95  216 1    
   190   96  217 1    
   191   96  218 1    
   192   96  219 1    
   193   97   98 2    
   194   97   99 am   BACKBONE|DICT|INTERRES
   195   99  100 1    
   196   99  220 1    
   197  100  101 1    
   198  100  102 1    
   199  100  221 1    
   200  101  222 1    
   201  101  223 1    
   202  101  224 1    
   203  102  103 2    
   204  102  104 am   BACKBONE|DICT|INTERRES
   205  104  105 1    
   206  104  225 1    
   207  105  106 1    
   208  105  107 1    
   209  105  226 1    
   210  106  227 1    
   211  106  228 1    
   212  106  229 1    
   213  107  108 2    
   214  107  109 am   BACKBONE|DICT|INTERRES
   215  109  110 1    
   216  109  230 1    
   217  110  111 1    
   218  110  112 1    
   219  110  231 1    
   220  111  232 1    
   221  111  233 1    
   222  111  234 1    
   223  112  113 2    
   224  112  114 am   BACKBONE|DICT|INTERRES
   225  114  115 1    
   226  114  235 1    
   227  115  116 1    
   228  115  117 1    
   229  115  236 1    
   230  116  237 1    
   231  116  238 1    
   232  116  239 1    
   233  117  118 2    
   234  117  119 am   BACKBONE|DICT|INTERRES
   235  119  120 1    
   236  119  240 1    
   237  120  121 1    
   238  120  124 1    
   239  120  241 1    
   240  121  122 am   BACKBONE|DICT|INTERRES
   241  121  123 2    
   242  122  242 1    
   243  122  243 1    
   244  124  125 1    
   245  124  244 1    
   246  124  245 1    
   247  125  126 1    
   248  126  246 1    
   249  126  247 1    
@<TRIPOS>SUBSTRUCTURE
     1 UNK         1 GROUP             0       ****    0 ROOT    
