@<TRIPOS>MOLECULE
3R540
247   249    1
SMALL
USER_CHARGES


@<TRIPOS>ATOM
      1 CA          0.5158  -10.2824  -47.8223 C.3       0 UNK        -0.1800 
      2 C           1.9180  -10.8317  -48.0434 C.2       0 UNK         0.5000 
      3 O           2.6215  -10.3726  -48.9433 O.2       0 UNK        -0.5000 
      4 N           2.3252  -11.8070  -47.2237 N.am      1 UNK        -0.5000 
      5 CA          3.6719  -12.3889  -47.2180 C.3       1 UNK         0.1400 
      6 C6          3.6801  -13.8215  -46.6348 C.3       23 UNK        -0.0398 
      7 S7          2.7216  -14.9868  -47.6591 S.3       23 UNK        -0.2404 
      8 C8          4.0681  -15.7611  -48.6082 C.3       23 UNK        -0.0205 
      9 C9          3.5637  -16.8642  -49.5257 C.ar      23 UNK        -0.0193 
     10 C10         3.1374  -16.5615  -50.8215 C.ar      23 UNK        -0.1150 
     11 C11         2.7204  -17.5759  -51.6889 C.ar      23 UNK        -0.0193 
     12 C12         2.7328  -18.9036  -51.2466 C.ar      23 UNK        -0.1150 
     13 C13         3.1310  -19.2185  -49.9443 C.ar      23 UNK        -0.0193 
     14 C14         3.5550  -18.1933  -49.0932 C.ar      23 UNK        -0.1150 
     15 C15         3.1206  -20.6637  -49.4625 C.3       23 UNK        -0.0205 
     16 S16         1.4390  -21.3687  -49.4246 S.3       23 UNK        -0.2404 
     17 C17         1.7548  -22.9660  -48.6049 C.3       23 UNK        -0.0398 
     18 CA          0.6272  -23.4810  -47.6760 C.3       11 UNK         0.1400 
     19 N           0.3624  -22.6332  -46.5052 N.am      11 UNK        -0.5000 
     20 C          -0.2510  -23.0988  -45.4043 C.2       10 UNK         0.5000 
     21 O          -0.6311  -24.2640  -45.2860 O.2       10 UNK        -0.5000 
     22 CA         -0.5212  -22.1155  -44.2524 C.3       10 UNK         0.1400 
     23 CB          0.7614  -21.8275  -43.4585 C.3       10 UNK        -0.1800 
     24 N          -1.1379  -20.8663  -44.6942 N.am      10 UNK        -0.5000 
     25 C          -2.3496  -20.7771  -45.2618 C.2       9 UNK         0.5000 
     26 O          -3.0819  -21.7444  -45.4644 O.2       9 UNK        -0.5000 
     27 CA         -2.8043  -19.3804  -45.7241 C.3       9 UNK         0.1400 
     28 CB         -3.3720  -18.5654  -44.5528 C.3       9 UNK        -0.1800 
     29 N          -1.7270  -18.6324  -46.3674 N.am      9 UNK        -0.5000 
     30 C          -1.1100  -19.0171  -47.4931 C.2       8 UNK         0.5000 
     31 O          -1.4414  -20.0007  -48.1539 O.2       8 UNK        -0.5000 
     32 CA          0.1166  -18.1941  -47.9124 C.3       8 UNK         0.1400 
     33 CB         -0.3021  -16.9162  -48.6522 C.3       8 UNK        -0.1800 
     34 N           0.9721  -17.8710  -46.7687 N.am      8 UNK        -0.5000 
     35 C           1.6659  -18.7762  -46.0617 C.2       7 UNK         0.5000 
     36 O           1.7016  -19.9766  -46.3309 O.2       7 UNK        -0.5000 
     37 CA          2.4074  -18.2671  -44.8114 C.3       7 UNK         0.1400 
     38 CB          3.8222  -17.7796  -45.1526 C.3       7 UNK        -0.1800 
     39 N           1.6718  -17.2109  -44.1146 N.am      7 UNK        -0.5000 
     40 C           0.5405  -17.4281  -43.4298 C.2       6 UNK         0.5000 
     41 O           0.0236  -18.5374  -43.3034 O.2       6 UNK        -0.5000 
     42 CA         -0.1509  -16.1974  -42.8175 C.3       6 UNK         0.1400 
     43 CB          0.4727  -15.8417  -41.4597 C.3       6 UNK        -0.1800 
     44 N          -0.1278  -15.0161  -43.6828 N.am      6 UNK        -0.5000 
     45 C          -0.6885  -14.9361  -44.8979 C.2       5 UNK         0.5000 
     46 O          -1.2240  -15.8950  -45.4544 O.2       5 UNK        -0.5000 
     47 CA         -0.6630  -13.5544  -45.5861 C.3       5 UNK         0.1400 
     48 CB         -1.7933  -13.3949  -46.6185 C.3       5 UNK        -0.1800 
     49 N          -0.7722  -12.4730  -44.6024 N.am      5 UNK        -0.5000 
     50 C           0.2476  -11.7803  -44.0859 C.2       4 UNK         0.5000 
     51 O           1.4226  -11.9285  -44.4378 O.2       4 UNK        -0.5000 
     52 CA         -0.1102  -10.7824  -42.9734 C.3       4 UNK         0.1400 
     53 CB         -0.5860  -11.5102  -41.7029 C.3       4 UNK        -0.1800 
     54 N           1.0682   -9.9876  -42.6561 N.am      4 UNK        -0.5000 
     55 C           1.0843   -8.7025  -42.2848 C.2       3 UNK         0.5000 
     56 O           0.0679   -8.0319  -42.0999 O.2       3 UNK        -0.5000 
     57 CA          2.4714   -8.0519  -42.0872 C.3       3 UNK         0.1400 
     58 CB          2.7904   -7.9103  -40.5907 C.3       3 UNK        -0.1800 
     59 N           3.5569   -8.7982  -42.7328 N.am      3 UNK        -0.5000 
     60 C           3.7475   -8.8739  -44.0565 C.2       2 UNK         0.5000 
     61 O           3.0738   -8.2466  -44.8757 O.2       2 UNK        -0.5000 
     62 CA          4.8201   -9.8501  -44.5638 C.3       2 UNK         0.1400 
     63 CB          5.6274  -10.5631  -43.4575 C.3       2 UNK        -0.1800 
     64 N           4.1312  -10.8336  -45.3876 N.am      2 UNK        -0.5000 
     65 C           4.6455  -11.4853  -46.4354 C.2       1 UNK         0.5000 
     66 O           5.8182  -11.3869  -46.7993 O.2       1 UNK        -0.5000 
     67 C          -0.6617  -23.8724  -48.4323 C.2       11 UNK         0.5000 
     68 O          -0.7383  -24.9935  -48.9356 O.2       11 UNK        -0.5000 
     69 N          -1.6726  -22.9892  -48.4470 N.am      12 UNK        -0.5000 
     70 CA         -3.0106  -23.2863  -48.9627 C.3       12 UNK         0.1400 
     71 CB         -3.8422  -21.9989  -49.0386 C.3       12 UNK        -0.1800 
     72 C          -3.7349  -24.3577  -48.1271 C.2       12 UNK         0.5000 
     73 O          -4.3172  -25.2795  -48.7000 O.2       12 UNK        -0.5000 
     74 N          -3.6561  -24.2451  -46.7926 N.am      13 UNK        -0.5000 
     75 CA         -4.1883  -25.2190  -45.8378 C.3       13 UNK         0.1400 
     76 CB         -4.0914  -24.6659  -44.4088 C.3       13 UNK        -0.1800 
     77 C          -3.4982  -26.5894  -45.9461 C.2       13 UNK         0.5000 
     78 O          -4.1878  -27.6092  -45.9706 O.2       13 UNK        -0.5000 
     79 N          -2.1627  -26.5879  -46.0727 N.am      14 UNK        -0.5000 
     80 CA         -1.3352  -27.7806  -46.2862 C.3       14 UNK         0.1400 
     81 CB          0.1489  -27.3924  -46.2202 C.3       14 UNK        -0.1800 
     82 C          -1.6420  -28.5143  -47.6074 C.2       14 UNK         0.5000 
     83 O          -1.4882  -29.7337  -47.6743 O.2       14 UNK        -0.5000 
     84 N          -2.1226  -27.7711  -48.6126 N.am      15 UNK        -0.5000 
     85 CA         -2.6248  -28.2747  -49.8919 C.3       15 UNK         0.1400 
     86 CB         -2.3833  -27.2031  -50.9687 C.3       15 UNK        -0.1800 
     87 C          -4.1062  -28.7195  -49.8289 C.2       15 UNK         0.5000 
     88 O          -4.7528  -28.8126  -50.8727 O.2       15 UNK        -0.5000 
     89 N          -4.6131  -28.9970  -48.6175 N.am      16 UNK        -0.5000 
     90 CA         -5.9673  -29.4479  -48.2830 C.3       16 UNK         0.1400 
     91 CB         -6.2939  -30.8019  -48.9490 C.3       16 UNK        -0.1800 
     92 C          -7.0290  -28.3608  -48.5365 C.2       16 UNK         0.5000 
     93 O          -8.0853  -28.6445  -49.1045 O.2       16 UNK        -0.5000 
     94 N          -6.7166  -27.1350  -48.0898 N.am      17 UNK        -0.5000 
     95 CA         -7.5212  -25.9126  -48.2027 C.3       17 UNK         0.1400 
     96 CB         -8.8131  -26.0215  -47.3663 C.3       17 UNK        -0.1800 
     97 C          -7.7701  -25.5221  -49.6725 C.2       17 UNK         0.5000 
     98 O          -8.9141  -25.3225  -50.0870 O.2       17 UNK        -0.5000 
     99 N          -6.6755  -25.4499  -50.4385 N.am      18 UNK        -0.5000 
    100 CA        -6.6663  -25.0827  -51.8517 C.3       18 UNK         0.1400 
    101 CB        -5.2712  -25.3660  -52.4279 C.3       18 UNK        -0.1800 
    102 C         -7.0340  -23.6046  -52.0675 C.2       18 UNK         0.5000 
    103 O         -6.6658  -22.7512  -51.2566 O.2       18 UNK        -0.5000 
    104 N         -7.6950  -23.3154  -53.1943 N.am      19 UNK        -0.5000 
    105 CA        -8.0210  -21.9641  -53.6551 C.3       19 UNK         0.1400 
    106 CB        -9.2579  -22.0367  -54.5689 C.3       19 UNK        -0.1800 
    107 C         -6.8022  -21.3186  -54.3476 C.2       19 UNK         0.5000 
    108 O         -6.8431  -21.0321  -55.5459 O.2       19 UNK        -0.5000 
    109 N         -5.7147  -21.1576  -53.5844 N.am      20 UNK        -0.5000 
    110 CA        -4.4348  -20.6192  -54.0358 C.3       20 UNK         0.1400 
    111 CB        -3.3913  -20.8200  -52.9245 C.3       20 UNK        -0.1800 
    112 C         -4.5323  -19.1315  -54.4159 C.2       20 UNK         0.5000 
    113 O         -5.1596  -18.3512  -53.6941 O.2       20 UNK        -0.5000 
    114 N         -3.8524  -18.7555  -55.5076 N.am      21 UNK        -0.5000 
    115 CA        -3.7542  -17.3788  -56.0090 C.3       21 UNK         0.1400 
    116 CB        -3.0748  -17.3992  -57.3871 C.3       21 UNK        -0.1800 
    117 C         -3.0102  -16.4219  -55.0539 C.2       21 UNK         0.5000 
    118 O         -3.1787  -15.2062  -55.1562 O.2       21 UNK        -0.5000 
    119 N         -2.2188  -16.9919  -54.1377 N.am      22 UNK        -0.5000 
    120 CA        -1.5256  -16.2993  -53.0428 C.3       22 UNK         0.1400 
    121 C         -2.4723  -15.7086  -51.9547 C.2       22 UNK         0.5000 
    122 N         -3.7372  -16.1099  -51.8776 N.am      22 UNK        -0.7600 
    123 O         -2.0491  -14.8673  -51.1678 O.2       22 UNK        -0.5000 
    124 C124       -0.4620  -17.2118  -52.3798 C.3       23 UNK        -0.0398 
    125 S125        0.6880  -17.9809  -53.5737 S.3       23 UNK        -0.2404 
    126 C126        2.2818  -17.2289  -53.1077 C.3       23 UNK        -0.0205 
    127 H127       -0.1176  -10.5134  -48.6787 H         1 UNK         0.0600 
    128 H128        0.5519   -9.1994  -47.7039 H         1 UNK         0.0600 
    129 H129        0.0512  -10.7024  -46.9311 H         1 UNK         0.0600 
    130 H130        1.7276  -12.0970  -46.4600 H         1 UNK         0.3000 
    131 H131        4.0375  -12.4430  -48.2459 H         1 UNK         0.0600 
    132 H132        4.7015  -14.1934  -46.5345 H         1 UNK         0.0800 
    133 H133        3.2596  -13.8275  -45.6276 H         1 UNK         0.0800 
    134 H134        4.5781  -14.9962  -49.1958 H         1 UNK         0.0800 
    135 H135        4.8138  -16.1670  -47.9232 H         1 UNK         0.0800 
    136 H136        3.1427  -15.5336  -51.1561 H         1 UNK         0.1150 
    137 H137        2.4164  -19.6948  -51.9117 H         1 UNK         0.1150 
    138 H138        3.8818  -18.4296  -48.0914 H         1 UNK         0.1150 
    139 H139        3.7508  -21.2668  -50.1173 H         1 UNK         0.0800 
    140 H140        3.5547  -20.7282  -48.4635 H         1 UNK         0.0800 
    141 H141        2.6725  -22.8866  -48.0211 H         1 UNK         0.0800 
    142 H142        1.9668  -23.7049  -49.3797 H         1 UNK         0.0800 
    143 H143        1.0143  -24.4207  -47.2766 H         1 UNK         0.0600 
    144 H144        0.6731  -21.6660  -46.5483 H         1 UNK         0.3000 
    145 H145       -1.2261  -22.5981  -43.5721 H         1 UNK         0.0600 
    146 H146        0.5599  -21.1840  -42.6020 H         1 UNK         0.0600 
    147 H147        1.1958  -22.7514  -43.0749 H         1 UNK         0.0600 
    148 H148        1.5189  -21.3426  -44.0723 H         1 UNK         0.0600 
    149 H149       -0.6197  -20.0132  -44.5123 H         1 UNK         0.3000 
    150 H150       -3.5996  -19.5158  -46.4599 H         1 UNK         0.0600 
    151 H151       -4.2068  -19.0875  -44.0838 H         1 UNK         0.0600 
    152 H152       -3.7405  -17.5962  -44.8896 H         1 UNK         0.0600 
    153 H153       -2.6221  -18.3870  -43.7823 H         1 UNK         0.0600 
    154 H154       -1.4234  -17.7754  -45.9138 H         1 UNK         0.3000 
    155 H155        0.6949  -18.7955  -48.6102 H         1 UNK         0.0600 
    156 H156        0.5553  -16.4310  -49.1166 H         1 UNK         0.0600 
    157 H157       -0.7777  -16.1973  -47.9889 H         1 UNK         0.0600 
    158 H158       -1.0144  -17.1427  -49.4455 H         1 UNK         0.0600 
    159 H159        0.9800  -16.9079  -46.4691 H         1 UNK         0.3000 
    160 H160        2.5106  -19.1128  -44.1284 H         1 UNK         0.0600 
    161 H161        3.8044  -16.8981  -45.7897 H         1 UNK         0.0600 
    162 H162        4.3872  -18.5535  -45.6735 H         1 UNK         0.0600 
    163 H163        4.3780  -17.5263  -44.2497 H         1 UNK         0.0600 
    164 H164        2.0329  -16.2709  -44.1789 H         1 UNK         0.3000 
    165 H165       -1.1974  -16.4615  -42.6511 H         1 UNK         0.0600 
    166 H166        1.5119  -15.5271  -41.5626 H         1 UNK         0.0600 
    167 H167       -0.0758  -15.0350  -40.9730 H         1 UNK         0.0600 
    168 H168        0.4540  -16.6987  -40.7850 H         1 UNK         0.0600 
    169 H169        0.3010  -14.1860  -43.3025 H         1 UNK         0.3000 
    170 H170        0.2861  -13.4873  -46.1195 H         1 UNK         0.0600 
    171 H171       -1.6991  -14.1217  -47.4252 H         1 UNK         0.0600 
    172 H172       -2.7750  -13.5334  -46.1641 H         1 UNK         0.0600 
    173 H173       -1.7740  -12.4065  -47.0772 H         1 UNK         0.0600 
    174 H174       -1.7014  -12.3052  -44.2420 H         1 UNK         0.3000 
    175 H175       -0.9052  -10.1344  -43.3481 H         1 UNK         0.0600 
    176 H176       -0.8319  -10.8000  -40.9131 H         1 UNK         0.0600 
    177 H177       -1.4827  -12.1012  -41.8925 H         1 UNK         0.0600 
    178 H178        0.1785  -12.1853  -41.3163 H         1 UNK         0.0600 
    179 H179        1.9461  -10.4534  -42.8395 H         1 UNK         0.3000 
    180 H180        2.4306   -7.0523  -42.5251 H         1 UNK         0.0600 
    181 H181        2.8503   -8.8817  -40.0982 H         1 UNK         0.0600 
    182 H182        2.0203   -7.3305  -40.0799 H         1 UNK         0.0600 
    183 H183        3.7385   -7.3950  -40.4361 H         1 UNK         0.0600 
    184 H184        4.1522   -9.3433  -42.1257 H         1 UNK         0.3000 
    185 H185        5.5071   -9.2705  -45.1838 H         1 UNK         0.0600 
    186 H186        6.3946  -11.2055  -43.8901 H         1 UNK         0.0600 
    187 H187        6.1407   -9.8456  -42.8162 H         1 UNK         0.0600 
    188 H188        4.9936  -11.1901  -42.8290 H         1 UNK         0.0600 
    189 H189        3.1481  -10.9673  -45.1779 H         1 UNK         0.3000 
    190 H190       -1.5244  -22.0593  -48.0674 H         1 UNK         0.3000 
    191 H191       -2.9018  -23.6761  -49.9770 H         1 UNK         0.0600 
    192 H192       -3.3853  -21.2756  -49.7136 H         1 UNK         0.0600 
    193 H193       -4.8460  -22.2031  -49.4107 H         1 UNK         0.0600 
    194 H194       -3.9454  -21.5256  -48.0623 H         1 UNK         0.0600 
    195 H195       -3.2080  -23.4241  -46.3941 H         1 UNK         0.3000 
    196 H196       -5.2456  -25.3632  -46.0643 H         1 UNK         0.0600 
    197 H197       -4.4904  -25.3783  -43.6857 H         1 UNK         0.0600 
    198 H198       -4.6636  -23.7439  -44.3051 H         1 UNK         0.0600 
    199 H199       -3.0608  -24.4523  -44.1254 H         1 UNK         0.0600 
    200 H200       -1.6683  -25.7031  -45.9869 H         1 UNK         0.3000 
    201 H201       -1.5426  -28.4747  -45.4693 H         1 UNK         0.0600 
    202 H202        0.3908  -26.9089  -45.2736 H         1 UNK         0.0600 
    203 H203        0.4194  -26.7107  -47.0261 H         1 UNK         0.0600 
    204 H204        0.7867  -28.2727  -46.3083 H         1 UNK         0.0600 
    205 H205       -2.1890  -26.7702  -48.4762 H         1 UNK         0.3000 
    206 H206       -2.0476  -29.1576  -50.1729 H         1 UNK         0.0600 
    207 H207       -1.3265  -26.9436  -51.0331 H         1 UNK         0.0600 
    208 H208       -2.6894  -27.5524  -51.9553 H         1 UNK         0.0600 
    209 H209       -2.9350  -26.2888  -50.7542 H         1 UNK         0.0600 
    210 H210       -4.0152  -28.8339  -47.8174 H         1 UNK         0.3000 
    211 H211       -5.9657  -29.6149  -47.2048 H         1 UNK         0.0600 
    212 H212       -6.3858  -30.7141  -50.0318 H         1 UNK         0.0600 
    213 H213       -7.2378  -31.2002  -48.5753 H         1 UNK         0.0600 
    214 H214       -5.5231  -31.5424  -48.7358 H         1 UNK         0.0600 
    215 H215       -5.7942  -27.0129  -47.6934 H         1 UNK         0.3000 
    216 H216       -6.9269  -25.1055  -47.7733 H         1 UNK         0.0600 
    217 H217       -8.5900  -26.2688  -46.3284 H         1 UNK         0.0600 
    218 H218       -9.4891  -26.7835  -47.7549 H         1 UNK         0.0600 
    219 H219       -9.3556  -25.0754  -47.3650 H         1 UNK         0.0600 
    220 H220       -5.7730  -25.5767  -49.9909 H         1 UNK         0.3000 
    221 H221       -7.3945  -25.7095  -52.3707 H         1 UNK         0.0600 
    222 H222       -4.5022  -24.7805  -51.9221 H         1 UNK         0.0600 
    223 H223       -5.0131  -26.4202  -52.3298 H         1 UNK         0.0600 
    224 H224       -5.2262  -25.1192  -53.4894 H         1 UNK         0.0600 
    225 H225       -7.9261  -24.0658  -53.8295 H         1 UNK         0.3000 
    226 H226       -8.2793  -21.3404  -52.7965 H         1 UNK         0.0600 
    227 H227      -10.1147  -22.4527  -54.0384 H         1 UNK         0.0600 
    228 H228       -9.5447  -21.0438  -54.9176 H         1 UNK         0.0600 
    229 H229       -9.0760  -22.6553  -55.4486 H         1 UNK         0.0600 
    230 H230       -5.7792  -21.4326  -52.6109 H         1 UNK         0.3000 
    231 H231       -4.1222  -21.1911  -54.9120 H         1 UNK         0.0600 
    232 H232       -2.4066  -20.4750  -53.2426 H         1 UNK         0.0600 
    233 H233       -3.2951  -21.8726  -52.6565 H         1 UNK         0.0600 
    234 H234       -3.6558  -20.2680  -52.0215 H         1 UNK         0.0600 
    235 H235       -3.3571  -19.4569  -56.0395 H         1 UNK         0.3000 
    236 H236       -4.7683  -16.9929  -56.1311 H         1 UNK         0.0600 
    237 H237       -3.0127  -16.3945  -57.8075 H         1 UNK         0.0600 
    238 H238       -2.0595  -17.7937  -57.3290 H         1 UNK         0.0600 
    239 H239       -3.6344  -18.0111  -58.0948 H         1 UNK         0.0600 
    240 H240       -2.1204  -17.9951  -54.1550 H         1 UNK         0.3000 
    241 H241       -1.0017  -15.4499  -53.4850 H         1 UNK         0.0600 
    242 H242       -4.3364  -15.7131  -51.1716 H         1 UNK         0.3800 
    243 H243       -4.1100  -16.7978  -52.5195 H         1 UNK         0.3800 
    244 H244        0.1092  -16.6423  -51.6453 H         1 UNK         0.0800 
    245 H245       -0.9453  -18.0188  -51.8260 H         1 UNK         0.0800 
    246 H246        3.0485  -17.5735  -53.8026 H         1 UNK         0.0800 
    247 H247        2.2090  -16.1481  -53.2396 H         1 UNK         0.0800 
@<TRIPOS>BOND
     1    1    2 1    
     2    1  127 1    
     3    1  128 1    
     4    1  129 1    
     5    2    3 2    
     6    2    4 am   BACKBONE|DICT|INTERRES
     7    4    5 1    
     8    4  130 1    
     9    5    6 1    
    10    5   65 1    
    11    5  131 1    
    12    6    7 1    
    13    6  132 1    
    14    6  133 1    
    15    7    8 1    
    16    8    9 1    
    17    8  134 1    
    18    8  135 1    
    19    9   10 ar   
    20    9   14 ar   
    21   10   11 ar   
    22   10  136 1    
    23   11   12 ar   
    24   11  126 1    
    25   12   13 ar   
    26   12  137 1    
    27   13   14 ar   
    28   13   15 1    
    29   14  138 1    
    30   15   16 1    
    31   15  139 1    
    32   15  140 1    
    33   16   17 1    
    34   17   18 1    
    35   17  141 1    
    36   17  142 1    
    37   18   19 1    
    38   18   67 1    
    39   18  143 1    
    40   19   20 am   BACKBONE|DICT|INTERRES
    41   19  144 1    
    42   20   21 2    
    43   20   22 1    
    44   22   23 1    
    45   22   24 1    
    46   22  145 1    
    47   23  146 1    
    48   23  147 1    
    49   23  148 1    
    50   24   25 am   BACKBONE|DICT|INTERRES
    51   24  149 1    
    52   25   26 2    
    53   25   27 1    
    54   27   28 1    
    55   27   29 1    
    56   27  150 1    
    57   28  151 1    
    58   28  152 1    
    59   28  153 1    
    60   29   30 am   BACKBONE|DICT|INTERRES
    61   29  154 1    
    62   30   31 2    
    63   30   32 1    
    64   32   33 1    
    65   32   34 1    
    66   32  155 1    
    67   33  156 1    
    68   33  157 1    
    69   33  158 1    
    70   34   35 am   BACKBONE|DICT|INTERRES
    71   34  159 1    
    72   35   36 2    
    73   35   37 1    
    74   37   38 1    
    75   37   39 1    
    76   37  160 1    
    77   38  161 1    
    78   38  162 1    
    79   38  163 1    
    80   39   40 am   BACKBONE|DICT|INTERRES
    81   39  164 1    
    82   40   41 2    
    83   40   42 1    
    84   42   43 1    
    85   42   44 1    
    86   42  165 1    
    87   43  166 1    
    88   43  167 1    
    89   43  168 1    
    90   44   45 am   BACKBONE|DICT|INTERRES
    91   44  169 1    
    92   45   46 2    
    93   45   47 1    
    94   47   48 1    
    95   47   49 1    
    96   47  170 1    
    97   48  171 1    
    98   48  172 1    
    99   48  173 1    
   100   49   50 am   BACKBONE|DICT|INTERRES
   101   49  174 1    
   102   50   51 2    
   103   50   52 1    
   104   52   53 1    
   105   52   54 1    
   106   52  175 1    
   107   53  176 1    
   108   53  177 1    
   109   53  178 1    
   110   54   55 am   BACKBONE|DICT|INTERRES
   111   54  179 1    
   112   55   56 2    
   113   55   57 1    
   114   57   58 1    
   115   57   59 1    
   116   57  180 1    
   117   58  181 1    
   118   58  182 1    
   119   58  183 1    
   120   59   60 am   BACKBONE|DICT|INTERRES
   121   59  184 1    
   122   60   61 2    
   123   60   62 1    
   124   62   63 1    
   125   62   64 1    
   126   62  185 1    
   127   63  186 1    
   128   63  187 1    
   129   63  188 1    
   130   64   65 am   BACKBONE|DICT|INTERRES
   131   64  189 1    
   132   65   66 2    
   133   67   68 2    
   134   67   69 am   BACKBONE|DICT|INTERRES
   135   69   70 1    
   136   69  190 1    
   137   70   71 1    
   138   70   72 1    
   139   70  191 1    
   140   71  192 1    
   141   71  193 1    
   142   71  194 1    
   143   72   73 2    
   144   72   74 am   BACKBONE|DICT|INTERRES
   145   74   75 1    
   146   74  195 1    
   147   75   76 1    
   148   75   77 1    
   149   75  196 1    
   150   76  197 1    
   151   76  198 1    
   152   76  199 1    
   153   77   78 2    
   154   77   79 am   BACKBONE|DICT|INTERRES
   155   79   80 1    
   156   79  200 1    
   157   80   81 1    
   158   80   82 1    
   159   80  201 1    
   160   81  202 1    
   161   81  203 1    
   162   81  204 1    
   163   82   83 2    
   164   82   84 am   BACKBONE|DICT|INTERRES
   165   84   85 1    
   166   84  205 1    
   167   85   86 1    
   168   85   87 1    
   169   85  206 1    
   170   86  207 1    
   171   86  208 1    
   172   86  209 1    
   173   87   88 2    
   174   87   89 am   BACKBONE|DICT|INTERRES
   175   89   90 1    
   176   89  210 1    
   177   90   91 1    
   178   90   92 1    
   179   90  211 1    
   180   91  212 1    
   181   91  213 1    
   182   91  214 1    
   183   92   93 2    
   184   92   94 am   BACKBONE|DICT|INTERRES
   185   94   95 1    
   186   94  215 1    
   187   95   96 1    
   188   95   97 1    
   189   95  216 1    
   190   96  217 1    
   191   96  218 1    
   192   96  219 1    
   193   97   98 2    
   194   97   99 am   BACKBONE|DICT|INTERRES
   195   99  100 1    
   196   99  220 1    
   197  100  101 1    
   198  100  102 1    
   199  100  221 1    
   200  101  222 1    
   201  101  223 1    
   202  101  224 1    
   203  102  103 2    
   204  102  104 am   BACKBONE|DICT|INTERRES
   205  104  105 1    
   206  104  225 1    
   207  105  106 1    
   208  105  107 1    
   209  105  226 1    
   210  106  227 1    
   211  106  228 1    
   212  106  229 1    
   213  107  108 2    
   214  107  109 am   BACKBONE|DICT|INTERRES
   215  109  110 1    
   216  109  230 1    
   217  110  111 1    
   218  110  112 1    
   219  110  231 1    
   220  111  232 1    
   221  111  233 1    
   222  111  234 1    
   223  112  113 2    
   224  112  114 am   BACKBONE|DICT|INTERRES
   225  114  115 1    
   226  114  235 1    
   227  115  116 1    
   228  115  117 1    
   229  115  236 1    
   230  116  237 1    
   231  116  238 1    
   232  116  239 1    
   233  117  118 2    
   234  117  119 am   BACKBONE|DICT|INTERRES
   235  119  120 1    
   236  119  240 1    
   237  120  121 1    
   238  120  124 1    
   239  120  241 1    
   240  121  122 am   BACKBONE|DICT|INTERRES
   241  121  123 2    
   242  122  242 1    
   243  122  243 1    
   244  124  125 1    
   245  124  244 1    
   246  124  245 1    
   247  125  126 1    
   248  126  246 1    
   249  126  247 1    
@<TRIPOS>SUBSTRUCTURE
     1 UNK         1 GROUP             0       ****    0 ROOT    
