@<TRIPOS>MOLECULE
3R540
247   249    1
SMALL
USER_CHARGES


@<TRIPOS>ATOM
      1 CA          5.9444  -11.8902  -49.6050 C.3       0 UNK        -0.1800 
      2 C           4.5139  -12.3946  -49.4786 C.2       0 UNK         0.5000 
      3 O           3.6302  -11.9035  -50.1807 O.2       0 UNK        -0.5000 
      4 N           4.2900  -13.3675  -48.5839 N.am      1 UNK        -0.5000 
      5 CA          2.9993  -14.0148  -48.3005 C.3       1 UNK         0.1400 
      6 C6          2.4413  -14.8492  -49.4843 C.3       23 UNK        -0.0398 
      7 S7          3.5793  -16.1798  -49.9987 S.3       23 UNK        -0.2404 
      8 C8          2.6513  -16.9282  -51.3746 C.3       23 UNK        -0.0205 
      9 C9          1.5247  -17.8269  -50.8850 C.ar      23 UNK        -0.0193 
     10 C10         0.2477  -17.3015  -50.6670 C.ar      23 UNK        -0.1150 
     11 C11        -0.7923  -18.1239  -50.2280 C.ar      23 UNK        -0.0193 
     12 C12        -0.5527  -19.4836  -50.0161 C.ar      23 UNK        -0.1150 
     13 C13         0.7140  -20.0268  -50.2510 C.ar      23 UNK        -0.0193 
     14 C14         1.7508  -19.1919  -50.6786 C.ar      23 UNK        -0.1150 
     15 C15         0.9414  -21.5240  -50.0905 C.3       23 UNK        -0.0205 
     16 S16         1.9972  -21.9486  -48.6690 S.3       23 UNK        -0.2404 
     17 C17         1.0321  -21.2919  -47.2706 C.3       23 UNK        -0.0398 
     18 CA          0.1703  -22.3521  -46.5446 C.3       11 UNK         0.1400 
     19 N          -0.1238  -21.9339  -45.1728 N.am      11 UNK        -0.5000 
     20 C          -0.7574  -22.6699  -44.2507 C.2       10 UNK         0.5000 
     21 O          -1.1019  -23.8378  -44.4243 O.2       10 UNK        -0.5000 
     22 CA         -1.1142  -21.9559  -42.9345 C.3       10 UNK         0.1400 
     23 CB          0.0619  -21.9994  -41.9477 C.3       10 UNK        -0.1800 
     24 N          -1.5205  -20.5665  -43.1604 N.am      10 UNK        -0.5000 
     25 C          -2.6688  -20.2025  -43.7508 C.2       9 UNK         0.5000 
     26 O          -3.5261  -21.0020  -44.1229 O.2       9 UNK        -0.5000 
     27 CA         -2.8667  -18.6978  -44.0162 C.3       9 UNK         0.1400 
     28 CB         -3.3465  -17.9765  -42.7477 C.3       9 UNK        -0.1800 
     29 N          -1.6455  -18.0570  -44.5037 N.am      9 UNK        -0.5000 
     30 C          -1.0635  -18.3238  -45.6817 C.2       8 UNK         0.5000 
     31 O          -1.5407  -19.0851  -46.5215 O.2       8 UNK        -0.5000 
     32 CA          0.3114  -17.6778  -45.9321 C.3       8 UNK         0.1400 
     33 CB          0.1611  -16.3537  -46.6898 C.3       8 UNK        -0.1800 
     34 N           1.0624  -17.4598  -44.6910 N.am      8 UNK        -0.5000 
     35 C           1.5571  -18.4500  -43.9318 C.2       7 UNK         0.5000 
     36 O           1.3989  -19.6397  -44.2087 O.2       7 UNK        -0.5000 
     37 CA          2.2904  -18.0647  -42.6285 C.3       7 UNK         0.1400 
     38 CB          3.3872  -19.0784  -42.2422 C.3       7 UNK        -0.1800 
     39 N           2.8089  -16.6935  -42.6174 N.am      7 UNK        -0.5000 
     40 C           3.7630  -16.1677  -43.4014 C.2       6 UNK         0.5000 
     41 O           4.3888  -16.8135  -44.2424 O.2       6 UNK        -0.5000 
     42 CA          4.0498  -14.6599  -43.2470 C.3       6 UNK         0.1400 
     43 CB          3.9574  -13.9562  -44.6067 C.3       6 UNK        -0.1800 
     44 N           3.1032  -14.0124  -42.3379 N.am      6 UNK        -0.5000 
     45 C           3.3584  -13.6633  -41.0704 C.2       5 UNK         0.5000 
     46 O           4.4604  -13.7835  -40.5343 O.2       5 UNK        -0.5000 
     47 CA          2.1722  -13.1181  -40.2481 C.3       5 UNK         0.1400 
     48 CB          2.1586  -11.5823  -40.2708 C.3       5 UNK        -0.1800 
     49 N           0.8714  -13.6175  -40.7041 N.am      5 UNK        -0.5000 
     50 C           0.4796  -14.8985  -40.6429 C.2       4 UNK         0.5000 
     51 O           1.1655  -15.7973  -40.1576 O.2       4 UNK        -0.5000 
     52 CA         -0.8728  -15.2563  -41.2878 C.3       4 UNK         0.1400 
     53 CB         -1.9864  -15.2786  -40.2310 C.3       4 UNK        -0.1800 
     54 N          -1.2673  -14.3661  -42.3828 N.am      4 UNK        -0.5000 
     55 C          -0.5897  -14.1871  -43.5248 C.2       3 UNK         0.5000 
     56 O           0.4670  -14.7724  -43.7790 O.2       3 UNK        -0.5000 
     57 CA         -1.2055  -13.2163  -44.5573 C.3       3 UNK         0.1400 
     58 CB         -2.1505  -12.1662  -43.9307 C.3       3 UNK        -0.1800 
     59 N          -0.2011  -12.5537  -45.3941 N.am      3 UNK        -0.5000 
     60 C           0.7970  -11.7552  -44.9943 C.2       2 UNK         0.5000 
     61 O           1.0512  -11.5152  -43.8123 O.2       2 UNK        -0.5000 
     62 CA          1.6482  -11.1237  -46.1196 C.3       2 UNK         0.1400 
     63 CB          2.6063  -10.0397  -45.5938 C.3       2 UNK        -0.1800 
     64 N           2.4325  -12.1152  -46.8562 N.am      2 UNK        -0.5000 
     65 C           1.9605  -13.0245  -47.7203 C.2       1 UNK         0.5000 
     66 O           0.7722  -13.1012  -48.0395 O.2       1 UNK        -0.5000 
     67 C          -1.1213  -22.6890  -47.3241 C.2       11 UNK         0.5000 
     68 O          -1.1947  -23.7466  -47.9481 O.2       11 UNK        -0.5000 
     69 N          -2.1342  -21.8142  -47.2280 N.am      12 UNK        -0.5000 
     70 CA         -3.4622  -22.0200  -47.8070 C.3       12 UNK         0.1400 
     71 CB         -4.2594  -20.7095  -47.7576 C.3       12 UNK        -0.1800 
     72 C          -4.2469  -23.1620  -47.1335 C.2       12 UNK         0.5000 
     73 O          -4.9442  -23.8998  -47.8274 O.2       12 UNK        -0.5000 
     74 N          -4.1021  -23.3297  -45.8106 N.am      13 UNK        -0.5000 
     75 CA         -4.6895  -24.4432  -45.0543 C.3       13 UNK         0.1400 
     76 CB         -4.5197  -24.2005  -43.5475 C.3       13 UNK        -0.1800 
     77 C          -4.1117  -25.8158  -45.4582 C.2       13 UNK         0.5000 
     78 O          -4.8346  -26.8119  -45.4353 O.2       13 UNK        -0.5000 
     79 N          -2.8381  -25.8313  -45.8729 N.am      14 UNK        -0.5000 
     80 CA         -2.1450  -26.9759  -46.4683 C.3       14 UNK         0.1400 
     81 CB         -0.6370  -26.8213  -46.2074 C.3       14 UNK        -0.1800 
     82 C          -2.4334  -27.1476  -47.9784 C.2       14 UNK         0.5000 
     83 O          -1.8363  -28.0240  -48.6064 O.2       14 UNK        -0.5000 
     84 N          -3.3265  -26.3167  -48.5365 N.am      15 UNK        -0.5000 
     85 CA         -3.7163  -26.1833  -49.9404 C.3       15 UNK         0.1400 
     86 CB         -4.2882  -27.4926  -50.5225 C.3       15 UNK        -0.1800 
     87 C          -2.5877  -25.5881  -50.7972 C.2       15 UNK         0.5000 
     88 O          -2.6807  -24.4270  -51.2008 O.2       15 UNK        -0.5000 
     89 N          -1.5584  -26.4062  -51.0664 N.am      16 UNK        -0.5000 
     90 CA         -0.3205  -26.0902  -51.7917 C.3       16 UNK         0.1400 
     91 CB          0.5904  -25.2295  -50.8941 C.3       16 UNK        -0.1800 
     92 C          -0.5426  -25.4590  -53.1860 C.2       16 UNK         0.5000 
     93 O           0.2682  -24.6428  -53.6270 O.2       16 UNK        -0.5000 
     94 N          -1.6691  -25.8066  -53.8288 N.am      17 UNK        -0.5000 
     95 CA         -2.2479  -25.2593  -55.0666 C.3       17 UNK         0.1400 
     96 CB         -1.3101  -25.4701  -56.2699 C.3       17 UNK        -0.1800 
     97 C          -2.7044  -23.7860  -54.9697 C.2       17 UNK         0.5000 
     98 O          -3.7496  -23.4408  -55.5226 O.2       17 UNK        -0.5000 
     99 N          -1.9361  -22.9523  -54.2580 N.am      18 UNK        -0.5000 
    100 CA        -2.1374  -21.5175  -54.0542 C.3       18 UNK         0.1400 
    101 CB        -0.9836  -20.9745  -53.2038 C.3       18 UNK        -0.1800 
    102 C         -3.4862  -21.1401  -53.4180 C.2       18 UNK         0.5000 
    103 O         -3.9976  -20.0587  -53.7073 O.2       18 UNK        -0.5000 
    104 N         -4.0722  -22.0389  -52.6121 N.am      19 UNK        -0.5000 
    105 CA        -5.3928  -21.8774  -51.9932 C.3       19 UNK         0.1400 
    106 CB        -5.7171  -23.1179  -51.1557 C.3       19 UNK        -0.1800 
    107 C         -6.5396  -21.5920  -52.9835 C.2       19 UNK         0.5000 
    108 O         -7.5048  -20.9276  -52.6058 O.2       19 UNK        -0.5000 
    109 N         -6.3980  -22.0459  -54.2379 N.am      20 UNK        -0.5000 
    110 CA        -7.3184  -21.7453  -55.3363 C.3       20 UNK         0.1400 
    111 CB        -6.9501  -22.6112  -56.5501 C.3       20 UNK        -0.1800 
    112 C         -7.3433  -20.2519  -55.7259 C.2       20 UNK         0.5000 
    113 O         -8.3646  -19.7812  -56.2286 O.2       20 UNK        -0.5000 
    114 N         -6.2363  -19.5372  -55.4820 N.am      21 UNK        -0.5000 
    115 CA        -6.1165  -18.0945  -55.6755 C.3       21 UNK         0.1400 
    116 CB        -4.7205  -17.7686  -56.2307 C.3       21 UNK        -0.1800 
    117 C         -6.3684  -17.3386  -54.3600 C.2       21 UNK         0.5000 
    118 O         -7.0576  -16.3176  -54.3774 O.2       21 UNK        -0.5000 
    119 N         -5.8062  -17.8401  -53.2508 N.am      22 UNK        -0.5000 
    120 CA        -5.9065  -17.2195  -51.9177 C.3       22 UNK         0.1400 
    121 C         -7.3205  -17.2951  -51.2738 C.2       22 UNK         0.5000 
    122 N         -8.1412  -18.2918  -51.5815 N.am      22 UNK        -0.7600 
    123 O         -7.6804  -16.4281  -50.4824 O.2       22 UNK        -0.5000 
    124 C124       -4.8410  -17.7561  -50.9277 C.3       23 UNK        -0.0398 
    125 S125       -3.1363  -17.6032  -51.5564 S.3       23 UNK        -0.2404 
    126 C126       -2.1823  -17.5535  -50.0097 C.3       23 UNK        -0.0205 
    127 H127        6.6202  -12.4098  -48.9254 H         1 UNK         0.0600 
    128 H128        5.9878  -10.8247  -49.3789 H         1 UNK         0.0600 
    129 H129        6.3055  -12.0390  -50.6226 H         1 UNK         0.0600 
    130 H130        5.0740  -13.7298  -48.0595 H         1 UNK         0.3000 
    131 H131        3.2000  -14.7170  -47.4903 H         1 UNK         0.0600 
    132 H132        1.4991  -15.3156  -49.1986 H         1 UNK         0.0800 
    133 H133        2.2226  -14.2113  -50.3418 H         1 UNK         0.0800 
    134 H134        2.2589  -16.1455  -52.0258 H         1 UNK         0.0800 
    135 H135        3.3433  -17.5090  -51.9861 H         1 UNK         0.0800 
    136 H136        0.0579  -16.2529  -50.8475 H         1 UNK         0.1150 
    137 H137       -1.3619  -20.1226  -49.6910 H         1 UNK         0.1150 
    138 H138        2.7313  -19.6089  -50.8607 H         1 UNK         0.1150 
    139 H139       -0.0122  -22.0439  -49.9929 H         1 UNK         0.0800 
    140 H140        1.4044  -21.9121  -50.9989 H         1 UNK         0.0800 
    141 H141        1.7675  -20.8831  -46.5766 H         1 UNK         0.0800 
    142 H142        0.4313  -20.4415  -47.5866 H         1 UNK         0.0800 
    143 H143        0.7540  -23.2719  -46.4660 H         1 UNK         0.0600 
    144 H144        0.1927  -21.0069  -44.9058 H         1 UNK         0.3000 
    145 H145       -1.9535  -22.4864  -42.4808 H         1 UNK         0.0600 
    146 H146       -0.1978  -21.5235  -41.0021 H         1 UNK         0.0600 
    147 H147        0.3433  -23.0297  -41.7262 H         1 UNK         0.0600 
    148 H148        0.9447  -21.4992  -42.3448 H         1 UNK         0.0600 
    149 H149       -0.8477  -19.8545  -42.9221 H         1 UNK         0.3000 
    150 H150       -3.6359  -18.5913  -44.7842 H         1 UNK         0.0600 
    151 H151       -4.2807  -18.4076  -42.3856 H         1 UNK         0.0600 
    152 H152       -3.5308  -16.9194  -42.9406 H         1 UNK         0.0600 
    153 H153       -2.6181  -18.0489  -41.9394 H         1 UNK         0.0600 
    154 H154       -1.1828  -17.4133  -43.8811 H         1 UNK         0.3000 
    155 H155        0.8942  -18.3542  -46.5595 H         1 UNK         0.0600 
    156 H156        1.1247  -15.8620  -46.8093 H         1 UNK         0.0600 
    157 H157       -0.5063  -15.6640  -46.1764 H         1 UNK         0.0600 
    158 H158       -0.2486  -16.5215  -47.6861 H         1 UNK         0.0600 
    159 H159        1.1647  -16.4976  -44.3816 H         1 UNK         0.3000 
    160 H160        1.5316  -18.0983  -41.8458 H         1 UNK         0.0600 
    161 H161        4.1453  -19.1732  -43.0198 H         1 UNK         0.0600 
    162 H162        2.9655  -20.0705  -42.0789 H         1 UNK         0.0600 
    163 H163        3.8869  -18.7856  -41.3188 H         1 UNK         0.0600 
    164 H164        2.3741  -16.0801  -41.9398 H         1 UNK         0.3000 
    165 H165        5.0710  -14.5566  -42.8751 H         1 UNK         0.0600 
    166 H166        2.9702  -14.1000  -45.0455 H         1 UNK         0.0600 
    167 H167        4.1351  -12.8854  -44.5082 H         1 UNK         0.0600 
    168 H168        4.6955  -14.3473  -45.3078 H         1 UNK         0.0600 
    169 H169        2.1643  -13.8850  -42.6981 H         1 UNK         0.3000 
    170 H170        2.3127  -13.4428  -39.2150 H         1 UNK         0.0600 
    171 H171        3.1026  -11.1781  -39.9030 H         1 UNK         0.0600 
    172 H172        2.0078  -11.1959  -41.2793 H         1 UNK         0.0600 
    173 H173        1.3665  -11.1845  -39.6363 H         1 UNK         0.0600 
    174 H174        0.2606  -12.9471  -41.1481 H         1 UNK         0.3000 
    175 H175       -0.7750  -16.2621  -41.7005 H         1 UNK         0.0600 
    176 H176       -2.1469  -14.2917  -39.7952 H         1 UNK         0.0600 
    177 H177       -2.9313  -15.6150  -40.6579 H         1 UNK         0.0600 
    178 H178       -1.7390  -15.9610  -39.4166 H         1 UNK         0.0600 
    179 H179       -2.1221  -13.8458  -42.2478 H         1 UNK         0.3000 
    180 H180       -1.8007  -13.8322  -45.2321 H         1 UNK         0.0600 
    181 H181       -1.6504  -11.5756  -43.1619 H         1 UNK         0.0600 
    182 H182       -3.0260  -12.6326  -43.4780 H         1 UNK         0.0600 
    183 H183       -2.5211  -11.4746  -44.6875 H         1 UNK         0.0600 
    184 H184       -0.2471  -12.7578  -46.3880 H         1 UNK         0.3000 
    185 H185        0.9581  -10.6444  -46.8171 H         1 UNK         0.0600 
    186 H186        3.1437   -9.5581  -46.4109 H         1 UNK         0.0600 
    187 H187        3.3436  -10.4518  -44.9037 H         1 UNK         0.0600 
    188 H188        2.0597   -9.2595  -45.0625 H         1 UNK         0.0600 
    189 H189        3.4230  -12.1220  -46.6641 H         1 UNK         0.3000 
    190 H190       -1.9824  -20.9335  -46.7436 H         1 UNK         0.3000 
    191 H191       -3.3247  -22.2903  -48.8563 H         1 UNK         0.0600 
    192 H192       -3.7546  -19.9240  -48.3167 H         1 UNK         0.0600 
    193 H193       -5.2492  -20.8363  -48.1982 H         1 UNK         0.0600 
    194 H194       -4.3946  -20.3583  -46.7342 H         1 UNK         0.0600 
    195 H195       -3.5819  -22.6383  -45.2804 H         1 UNK         0.3000 
    196 H196       -5.7594  -24.4611  -45.2719 H         1 UNK         0.0600 
    197 H197       -5.0190  -24.9797  -42.9706 H         1 UNK         0.0600 
    198 H198       -4.9536  -23.2464  -43.2482 H         1 UNK         0.0600 
    199 H199       -3.4708  -24.2011  -43.2541 H         1 UNK         0.0600 
    200 H200       -2.3033  -24.9724  -45.8057 H         1 UNK         0.3000 
    201 H201       -2.4808  -27.8883  -45.9717 H         1 UNK         0.0600 
    202 H202       -0.4295  -26.7218  -45.1417 H         1 UNK         0.0600 
    203 H203       -0.2299  -25.9433  -46.7094 H         1 UNK         0.0600 
    204 H204       -0.0834  -27.6901  -46.5652 H         1 UNK         0.0600 
    205 H205       -3.7336  -25.6096  -47.9364 H         1 UNK         0.3000 
    206 H206       -4.5316  -25.4620  -49.9487 H         1 UNK         0.0600 
    207 H207       -5.1378  -27.8408  -49.9350 H         1 UNK         0.0600 
    208 H208       -4.6425  -27.3379  -51.5422 H         1 UNK         0.0600 
    209 H209       -3.5551  -28.2982  -50.5535 H         1 UNK         0.0600 
    210 H210       -1.5821  -27.3166  -50.6210 H         1 UNK         0.3000 
    211 H211        0.1865  -27.0397  -51.9674 H         1 UNK         0.0600 
    212 H212        0.1406  -24.2581  -50.6944 H         1 UNK         0.0600 
    213 H213        1.5626  -25.0569  -51.3568 H         1 UNK         0.0600 
    214 H214        0.7693  -25.7135  -49.9338 H         1 UNK         0.0600 
    215 H215       -2.2629  -26.4671  -53.3479 H         1 UNK         0.3000 
    216 H216       -3.1488  -25.8468  -55.2506 H         1 UNK         0.0600 
    217 H217       -1.7976  -25.1686  -57.1978 H         1 UNK         0.0600 
    218 H218       -0.3933  -24.8867  -56.1822 H         1 UNK         0.0600 
    219 H219       -1.0325  -26.5189  -56.3745 H         1 UNK         0.0600 
    220 H220       -1.0880  -23.3486  -53.8636 H         1 UNK         0.3000 
    221 H221       -2.0971  -21.0397  -55.0348 H         1 UNK         0.0600 
    222 H222       -0.9583  -21.4622  -52.2298 H         1 UNK         0.0600 
    223 H223       -0.0200  -21.1371  -53.6867 H         1 UNK         0.0600 
    224 H224       -1.0874  -19.9016  -53.0339 H         1 UNK         0.0600 
    225 H225       -3.5689  -22.8922  -52.3927 H         1 UNK         0.3000 
    226 H226       -5.3310  -21.0235  -51.3179 H         1 UNK         0.0600 
    227 H227       -4.9867  -23.2370  -50.3591 H         1 UNK         0.0600 
    228 H228       -6.6969  -23.0344  -50.6837 H         1 UNK         0.0600 
    229 H229       -5.7139  -24.0257  -51.7600 H         1 UNK         0.0600 
    230 H230       -5.5600  -22.5620  -54.4784 H         1 UNK         0.3000 
    231 H231       -8.3254  -22.0184  -55.0142 H         1 UNK         0.0600 
    232 H232       -7.6476  -22.4483  -57.3727 H         1 UNK         0.0600 
    233 H233       -6.9806  -23.6725  -56.3029 H         1 UNK         0.0600 
    234 H234       -5.9492  -22.3812  -56.9176 H         1 UNK         0.0600 
    235 H235       -5.4548  -19.9872  -55.0172 H         1 UNK         0.3000 
    236 H236       -6.8522  -17.7526  -56.4066 H         1 UNK         0.0600 
    237 H237       -4.5472  -18.2751  -57.1802 H         1 UNK         0.0600 
    238 H238       -4.6132  -16.6979  -56.4083 H         1 UNK         0.0600 
    239 H239       -3.9283  -18.0670  -55.5431 H         1 UNK         0.0600 
    240 H240       -5.1983  -18.6506  -53.3286 H         1 UNK         0.3000 
    241 H241       -5.6983  -16.1564  -52.0547 H         1 UNK         0.0600 
    242 H242       -9.0559  -18.3201  -51.1607 H         1 UNK         0.3800 
    243 H243       -7.8440  -19.0650  -52.1683 H         1 UNK         0.3800 
    244 H244       -5.0259  -18.8046  -50.6944 H         1 UNK         0.0800 
    245 H245       -4.9072  -17.2155  -49.9815 H         1 UNK         0.0800 
    246 H246       -2.1213  -16.5243  -49.6530 H         1 UNK         0.0800 
    247 H247       -2.6913  -18.1188  -49.2293 H         1 UNK         0.0800 
@<TRIPOS>BOND
     1    1    2 1    
     2    1  127 1    
     3    1  128 1    
     4    1  129 1    
     5    2    3 2    
     6    2    4 am   BACKBONE|DICT|INTERRES
     7    4    5 1    
     8    4  130 1    
     9    5    6 1    
    10    5   65 1    
    11    5  131 1    
    12    6    7 1    
    13    6  132 1    
    14    6  133 1    
    15    7    8 1    
    16    8    9 1    
    17    8  134 1    
    18    8  135 1    
    19    9   10 ar   
    20    9   14 ar   
    21   10   11 ar   
    22   10  136 1    
    23   11   12 ar   
    24   11  126 1    
    25   12   13 ar   
    26   12  137 1    
    27   13   14 ar   
    28   13   15 1    
    29   14  138 1    
    30   15   16 1    
    31   15  139 1    
    32   15  140 1    
    33   16   17 1    
    34   17   18 1    
    35   17  141 1    
    36   17  142 1    
    37   18   19 1    
    38   18   67 1    
    39   18  143 1    
    40   19   20 am   BACKBONE|DICT|INTERRES
    41   19  144 1    
    42   20   21 2    
    43   20   22 1    
    44   22   23 1    
    45   22   24 1    
    46   22  145 1    
    47   23  146 1    
    48   23  147 1    
    49   23  148 1    
    50   24   25 am   BACKBONE|DICT|INTERRES
    51   24  149 1    
    52   25   26 2    
    53   25   27 1    
    54   27   28 1    
    55   27   29 1    
    56   27  150 1    
    57   28  151 1    
    58   28  152 1    
    59   28  153 1    
    60   29   30 am   BACKBONE|DICT|INTERRES
    61   29  154 1    
    62   30   31 2    
    63   30   32 1    
    64   32   33 1    
    65   32   34 1    
    66   32  155 1    
    67   33  156 1    
    68   33  157 1    
    69   33  158 1    
    70   34   35 am   BACKBONE|DICT|INTERRES
    71   34  159 1    
    72   35   36 2    
    73   35   37 1    
    74   37   38 1    
    75   37   39 1    
    76   37  160 1    
    77   38  161 1    
    78   38  162 1    
    79   38  163 1    
    80   39   40 am   BACKBONE|DICT|INTERRES
    81   39  164 1    
    82   40   41 2    
    83   40   42 1    
    84   42   43 1    
    85   42   44 1    
    86   42  165 1    
    87   43  166 1    
    88   43  167 1    
    89   43  168 1    
    90   44   45 am   BACKBONE|DICT|INTERRES
    91   44  169 1    
    92   45   46 2    
    93   45   47 1    
    94   47   48 1    
    95   47   49 1    
    96   47  170 1    
    97   48  171 1    
    98   48  172 1    
    99   48  173 1    
   100   49   50 am   BACKBONE|DICT|INTERRES
   101   49  174 1    
   102   50   51 2    
   103   50   52 1    
   104   52   53 1    
   105   52   54 1    
   106   52  175 1    
   107   53  176 1    
   108   53  177 1    
   109   53  178 1    
   110   54   55 am   BACKBONE|DICT|INTERRES
   111   54  179 1    
   112   55   56 2    
   113   55   57 1    
   114   57   58 1    
   115   57   59 1    
   116   57  180 1    
   117   58  181 1    
   118   58  182 1    
   119   58  183 1    
   120   59   60 am   BACKBONE|DICT|INTERRES
   121   59  184 1    
   122   60   61 2    
   123   60   62 1    
   124   62   63 1    
   125   62   64 1    
   126   62  185 1    
   127   63  186 1    
   128   63  187 1    
   129   63  188 1    
   130   64   65 am   BACKBONE|DICT|INTERRES
   131   64  189 1    
   132   65   66 2    
   133   67   68 2    
   134   67   69 am   BACKBONE|DICT|INTERRES
   135   69   70 1    
   136   69  190 1    
   137   70   71 1    
   138   70   72 1    
   139   70  191 1    
   140   71  192 1    
   141   71  193 1    
   142   71  194 1    
   143   72   73 2    
   144   72   74 am   BACKBONE|DICT|INTERRES
   145   74   75 1    
   146   74  195 1    
   147   75   76 1    
   148   75   77 1    
   149   75  196 1    
   150   76  197 1    
   151   76  198 1    
   152   76  199 1    
   153   77   78 2    
   154   77   79 am   BACKBONE|DICT|INTERRES
   155   79   80 1    
   156   79  200 1    
   157   80   81 1    
   158   80   82 1    
   159   80  201 1    
   160   81  202 1    
   161   81  203 1    
   162   81  204 1    
   163   82   83 2    
   164   82   84 am   BACKBONE|DICT|INTERRES
   165   84   85 1    
   166   84  205 1    
   167   85   86 1    
   168   85   87 1    
   169   85  206 1    
   170   86  207 1    
   171   86  208 1    
   172   86  209 1    
   173   87   88 2    
   174   87   89 am   BACKBONE|DICT|INTERRES
   175   89   90 1    
   176   89  210 1    
   177   90   91 1    
   178   90   92 1    
   179   90  211 1    
   180   91  212 1    
   181   91  213 1    
   182   91  214 1    
   183   92   93 2    
   184   92   94 am   BACKBONE|DICT|INTERRES
   185   94   95 1    
   186   94  215 1    
   187   95   96 1    
   188   95   97 1    
   189   95  216 1    
   190   96  217 1    
   191   96  218 1    
   192   96  219 1    
   193   97   98 2    
   194   97   99 am   BACKBONE|DICT|INTERRES
   195   99  100 1    
   196   99  220 1    
   197  100  101 1    
   198  100  102 1    
   199  100  221 1    
   200  101  222 1    
   201  101  223 1    
   202  101  224 1    
   203  102  103 2    
   204  102  104 am   BACKBONE|DICT|INTERRES
   205  104  105 1    
   206  104  225 1    
   207  105  106 1    
   208  105  107 1    
   209  105  226 1    
   210  106  227 1    
   211  106  228 1    
   212  106  229 1    
   213  107  108 2    
   214  107  109 am   BACKBONE|DICT|INTERRES
   215  109  110 1    
   216  109  230 1    
   217  110  111 1    
   218  110  112 1    
   219  110  231 1    
   220  111  232 1    
   221  111  233 1    
   222  111  234 1    
   223  112  113 2    
   224  112  114 am   BACKBONE|DICT|INTERRES
   225  114  115 1    
   226  114  235 1    
   227  115  116 1    
   228  115  117 1    
   229  115  236 1    
   230  116  237 1    
   231  116  238 1    
   232  116  239 1    
   233  117  118 2    
   234  117  119 am   BACKBONE|DICT|INTERRES
   235  119  120 1    
   236  119  240 1    
   237  120  121 1    
   238  120  124 1    
   239  120  241 1    
   240  121  122 am   BACKBONE|DICT|INTERRES
   241  121  123 2    
   242  122  242 1    
   243  122  243 1    
   244  124  125 1    
   245  124  244 1    
   246  124  245 1    
   247  125  126 1    
   248  126  246 1    
   249  126  247 1    
@<TRIPOS>SUBSTRUCTURE
     1 UNK         1 GROUP             0       ****    0 ROOT    
