@<TRIPOS>MOLECULE
3R540
247   249    1
SMALL
USER_CHARGES


@<TRIPOS>ATOM
      1 CA          3.7283  -11.8681  -52.1061 C.3       0 UNK        -0.1800 
      2 C           3.9203  -11.9889  -50.6010 C.2       0 UNK         0.5000 
      3 O           4.8574  -11.4078  -50.0537 O.2       0 UNK        -0.5000 
      4 N           3.0348  -12.7381  -49.9319 N.am      1 UNK        -0.5000 
      5 CA          3.0700  -12.9851  -48.4827 C.3       1 UNK         0.1400 
      6 C6          2.2970  -14.2665  -48.0939 C.3       23 UNK        -0.0398 
      7 S7          2.9382  -15.7691  -48.9052 S.3       23 UNK        -0.2404 
      8 C8          1.5585  -16.2090  -50.0061 C.3       23 UNK        -0.0205 
      9 C9          1.7964  -17.5606  -50.6601 C.ar      23 UNK        -0.0193 
     10 C10         2.5522  -17.6553  -51.8323 C.ar      23 UNK        -0.1150 
     11 C11         2.7948  -18.8999  -52.4227 C.ar      23 UNK        -0.0193 
     12 C12         2.2692  -20.0540  -51.8334 C.ar      23 UNK        -0.1150 
     13 C13         1.5005  -19.9693  -50.6702 C.ar      23 UNK        -0.0193 
     14 C14         1.2691  -18.7213  -50.0881 C.ar      23 UNK        -0.1150 
     15 C15         0.9116  -21.2223  -50.0476 C.3       23 UNK        -0.0205 
     16 S16         1.9528  -21.8532  -48.6953 S.3       23 UNK        -0.2404 
     17 C17         1.0534  -23.3964  -48.3469 C.3       23 UNK        -0.0398 
     18 CA          1.4630  -24.1286  -47.0469 C.3       11 UNK         0.1400 
     19 N           1.5033  -23.2366  -45.8828 N.am      11 UNK        -0.5000 
     20 C           2.1702  -23.4918  -44.7486 C.2       10 UNK         0.5000 
     21 O           2.8757  -24.4876  -44.5838 O.2       10 UNK        -0.5000 
     22 CA          2.0008  -22.4892  -43.5898 C.3       10 UNK         0.1400 
     23 CB          3.2275  -21.5707  -43.5015 C.3       10 UNK        -0.1800 
     24 N           0.7790  -21.6768  -43.6635 N.am      10 UNK        -0.5000 
     25 C          -0.4702  -22.1664  -43.5960 C.2       9 UNK         0.5000 
     26 O          -0.7101  -23.3725  -43.5152 O.2       9 UNK        -0.5000 
     27 CA         -1.6462  -21.1701  -43.6833 C.3       9 UNK         0.1400 
     28 CB         -2.8494  -21.5848  -42.8123 C.3       9 UNK        -0.1800 
     29 N          -1.2735  -19.7720  -43.4573 N.am      9 UNK        -0.5000 
     30 C          -0.8614  -19.1925  -42.3190 C.2       8 UNK         0.5000 
     31 O          -0.7707  -19.7793  -41.2399 O.2       8 UNK        -0.5000 
     32 CA         -0.4647  -17.7025  -42.4325 C.3       8 UNK         0.1400 
     33 CB          0.4381  -17.2176  -41.2792 C.3       8 UNK        -0.1800 
     34 N           0.1288  -17.3844  -43.7367 N.am      8 UNK        -0.5000 
     35 C           1.2456  -17.9123  -44.2628 C.2       7 UNK         0.5000 
     36 O           1.9892  -18.6728  -43.6460 O.2       7 UNK        -0.5000 
     37 CA          1.5502  -17.5713  -45.7363 C.3       7 UNK         0.1400 
     38 CB          2.3919  -18.6632  -46.4316 C.3       7 UNK        -0.1800 
     39 N           0.3402  -17.2640  -46.5081 N.am      7 UNK        -0.5000 
     40 C          -0.6820  -18.0900  -46.7790 C.2       6 UNK         0.5000 
     41 O          -0.7259  -19.2686  -46.4242 O.2       6 UNK        -0.5000 
     42 CA         -1.8731  -17.4541  -47.5270 C.3       6 UNK         0.1400 
     43 CB         -3.1106  -18.3683  -47.5863 C.3       6 UNK        -0.1800 
     44 N          -2.2355  -16.1333  -46.9997 N.am      6 UNK        -0.5000 
     45 C          -2.5497  -15.8318  -45.7317 C.2       5 UNK         0.5000 
     46 O          -2.6184  -16.6546  -44.8168 O.2       5 UNK        -0.5000 
     47 CA         -2.7321  -14.3352  -45.4187 C.3       5 UNK         0.1400 
     48 CB         -4.0899  -14.0735  -44.7486 C.3       5 UNK        -0.1800 
     49 N          -1.6643  -13.8203  -44.5573 N.am      5 UNK        -0.5000 
     50 C          -0.3488  -13.9089  -44.7956 C.2       4 UNK         0.5000 
     51 O           0.1314  -14.4372  -45.7991 O.2       4 UNK        -0.5000 
     52 CA          0.5782  -13.2617  -43.7534 C.3       4 UNK         0.1400 
     53 CB          1.9815  -13.8926  -43.7397 C.3       4 UNK        -0.1800 
     54 N           0.6937  -11.8339  -44.0353 N.am      4 UNK        -0.5000 
     55 C          -0.2057  -10.9151  -43.6570 C.2       3 UNK         0.5000 
     56 O          -1.1801  -11.1731  -42.9482 O.2       3 UNK        -0.5000 
     57 CA         -0.0007   -9.4698  -44.1518 C.3       3 UNK         0.1400 
     58 CB          0.6689   -8.6197  -43.0612 C.3       3 UNK        -0.1800 
     59 N           0.7849   -9.3646  -45.3830 N.am      3 UNK        -0.5000 
     60 C           0.3972   -9.7964  -46.5909 C.2       2 UNK         0.5000 
     61 O          -0.6799  -10.3553  -46.8037 O.2       2 UNK        -0.5000 
     62 CA          1.3681   -9.5666  -47.7684 C.3       2 UNK         0.1400 
     63 CB          2.5347   -8.6030  -47.4514 C.3       2 UNK        -0.1800 
     64 N           1.8848  -10.8258  -48.3107 N.am      2 UNK        -0.5000 
     65 C           2.5698  -11.7768  -47.6551 C.2       1 UNK         0.5000 
     66 O           2.8229  -11.7266  -46.4498 O.2       1 UNK        -0.5000 
     67 C           0.5424  -25.3568  -46.8304 C.2       11 UNK         0.5000 
     68 O           0.5189  -26.2388  -47.6905 O.2       11 UNK        -0.5000 
     69 N          -0.2156  -25.3912  -45.7204 N.am      12 UNK        -0.5000 
     70 CA         -1.1688  -26.4325  -45.3281 C.3       12 UNK         0.1400 
     71 CB         -0.4310  -27.7446  -44.9786 C.3       12 UNK        -0.1800 
     72 C          -2.2846  -26.5907  -46.3793 C.2       12 UNK         0.5000 
     73 O          -3.0678  -25.6586  -46.5608 O.2       12 UNK        -0.5000 
     74 N          -2.3257  -27.7334  -47.0790 N.am      13 UNK        -0.5000 
     75 CA         -3.2849  -28.0393  -48.1453 C.3       13 UNK         0.1400 
     76 CB         -3.0723  -29.4870  -48.6118 C.3       13 UNK        -0.1800 
     77 C          -3.2164  -27.0707  -49.3437 C.2       13 UNK         0.5000 
     78 O          -4.2385  -26.8250  -49.9832 O.2       13 UNK        -0.5000 
     79 N          -2.0322  -26.4960  -49.5945 N.am      14 UNK        -0.5000 
     80 CA         -1.7988  -25.4662  -50.6101 C.3       14 UNK         0.1400 
     81 CB         -0.3510  -25.5870  -51.1190 C.3       14 UNK        -0.1800 
     82 C          -2.1600  -24.0388  -50.1358 C.2       14 UNK         0.5000 
     83 O          -1.8787  -23.0782  -50.8529 O.2       14 UNK        -0.5000 
     84 N          -2.7720  -23.9169  -48.9504 N.am      15 UNK        -0.5000 
     85 CA         -3.3617  -22.6957  -48.4034 C.3       15 UNK         0.1400 
     86 CB         -2.3861  -22.0506  -47.4033 C.3       15 UNK        -0.1800 
     87 C          -4.7394  -22.9830  -47.7716 C.2       15 UNK         0.5000 
     88 O          -5.1793  -22.2274  -46.9020 O.2       15 UNK        -0.5000 
     89 N          -5.4004  -24.0717  -48.1978 N.am      16 UNK        -0.5000 
     90 CA         -6.6991  -24.5201  -47.6900 C.3       16 UNK         0.1400 
     91 CB         -7.0952  -25.8308  -48.3846 C.3       16 UNK        -0.1800 
     92 C          -7.7888  -23.4502  -47.8788 C.2       16 UNK         0.5000 
     93 O          -7.9446  -22.9338  -48.9859 O.2       16 UNK        -0.5000 
     94 N          -8.4791  -23.0992  -46.7840 N.am      17 UNK        -0.5000 
     95 CA         -9.4826  -22.0274  -46.6861 C.3       17 UNK         0.1400 
     96 CB        -10.7539  -22.4047  -47.4755 C.3       17 UNK        -0.1800 
     97 C          -8.9376  -20.6299  -47.0698 C.2       17 UNK         0.5000 
     98 O          -9.7032  -19.7725  -47.5125 O.2       17 UNK        -0.5000 
     99 N          -7.6181  -20.4407  -46.9096 N.am      18 UNK        -0.5000 
    100 CA        -6.8180  -19.2778  -47.3047 C.3       18 UNK         0.1400 
    101 CB        -7.2579  -18.0031  -46.5552 C.3       18 UNK        -0.1800 
    102 C         -6.7171  -19.0718  -48.8328 C.2       18 UNK         0.5000 
    103 O         -6.3191  -17.9912  -49.2708 O.2       18 UNK        -0.5000 
    104 N         -7.0351  -20.1034  -49.6282 N.am      19 UNK        -0.5000 
    105 CA        -6.8291  -20.1186  -51.0730 C.3       19 UNK         0.1400 
    106 CB        -7.8942  -21.0082  -51.7371 C.3       19 UNK        -0.1800 
    107 C         -5.3985  -20.6046  -51.3541 C.2       19 UNK         0.5000 
    108 O         -5.1684  -21.8094  -51.4710 O.2       19 UNK        -0.5000 
    109 N         -4.4536  -19.6569  -51.3963 N.am      20 UNK        -0.5000 
    110 CA        -3.0423  -19.8985  -51.6928 C.3       20 UNK         0.1400 
    111 CB        -2.2551  -18.5939  -51.5006 C.3       20 UNK        -0.1800 
    112 C         -2.8458  -20.4282  -53.1235 C.2       20 UNK         0.5000 
    113 O         -3.3745  -19.8340  -54.0666 O.2       20 UNK        -0.5000 
    114 N         -2.0637  -21.5055  -53.2621 N.am      21 UNK        -0.5000 
    115 CA        -1.7634  -22.1832  -54.5283 C.3       21 UNK         0.1400 
    116 CB        -0.8838  -23.4088  -54.2414 C.3       21 UNK        -0.1800 
    117 C         -1.1117  -21.2898  -55.6044 C.2       21 UNK         0.5000 
    118 O         -1.3022  -21.5448  -56.7945 O.2       21 UNK        -0.5000 
    119 N         -0.3820  -20.2537  -55.1731 N.am      22 UNK        -0.5000 
    120 CA         0.1925  -19.2139  -56.0432 C.3       22 UNK         0.1400 
    121 C         -0.8277  -18.1299  -56.5061 C.2       22 UNK         0.5000 
    122 N         -2.0703  -18.1197  -56.0366 N.am      22 UNK        -0.7600 
    123 O         -0.4862  -17.2796  -57.3238 O.2       22 UNK        -0.5000 
    124 C124        1.4481  -18.5603  -55.4118 C.3       23 UNK        -0.0398 
    125 S125        2.7659  -19.7779  -55.0743 S.3       23 UNK        -0.2404 
    126 C126        3.6456  -18.9983  -53.6821 C.3       23 UNK        -0.0205 
    127 H127        3.5779  -10.8246  -52.3828 H         1 UNK         0.0600 
    128 H128        2.8670  -12.4397  -52.4528 H         1 UNK         0.0600 
    129 H129        4.6119  -12.2363  -52.6274 H         1 UNK         0.0600 
    130 H130        2.2954  -13.2017  -50.4391 H         1 UNK         0.3000 
    131 H131        4.1131  -13.1381  -48.1970 H         1 UNK         0.0600 
    132 H132        2.3861  -14.4364  -47.0209 H         1 UNK         0.0800 
    133 H133        1.2311  -14.1538  -48.2990 H         1 UNK         0.0800 
    134 H134        1.4393  -15.4401  -50.7705 H         1 UNK         0.0800 
    135 H135        0.6284  -16.2298  -49.4373 H         1 UNK         0.0800 
    136 H136        2.9644  -16.7587  -52.2737 H         1 UNK         0.1150 
    137 H137        2.4582  -21.0183  -52.2842 H         1 UNK         0.1150 
    138 H138        0.6881  -18.6601  -49.1812 H         1 UNK         0.1150 
    139 H139       -0.0891  -21.0072  -49.6713 H         1 UNK         0.0800 
    140 H140        0.7925  -21.9970  -50.8072 H         1 UNK         0.0800 
    141 H141        1.2226  -24.0480  -49.2023 H         1 UNK         0.0800 
    142 H142       -0.0113  -23.1780  -48.3363 H         1 UNK         0.0800 
    143 H143        2.4716  -24.5184  -47.1993 H         1 UNK         0.0600 
    144 H144        0.9730  -22.3802  -45.9502 H         1 UNK         0.3000 
    145 H145        1.9495  -23.0716  -42.6677 H         1 UNK         0.0600 
    146 H146        3.1686  -20.9159  -42.6320 H         1 UNK         0.0600 
    147 H147        4.1463  -22.1508  -43.4063 H         1 UNK         0.0600 
    148 H148        3.3253  -20.9463  -44.3902 H         1 UNK         0.0600 
    149 H149        0.9096  -20.6745  -43.7232 H         1 UNK         0.3000 
    150 H150       -1.9783  -21.2074  -44.7188 H         1 UNK         0.0600 
    151 H151       -3.2357  -22.5577  -43.1186 H         1 UNK         0.0600 
    152 H152       -3.6678  -20.8707  -42.9044 H         1 UNK         0.0600 
    153 H153       -2.5825  -21.6589  -41.7579 H         1 UNK         0.0600 
    154 H154       -1.2678  -19.2050  -44.2974 H         1 UNK         0.3000 
    155 H155       -1.3966  -17.1384  -42.3764 H         1 UNK         0.0600 
    156 H156        1.3651  -17.7884  -41.2194 H         1 UNK         0.0600 
    157 H157        0.6982  -16.1658  -41.3980 H         1 UNK         0.0600 
    158 H158       -0.0686  -17.3193  -40.3190 H         1 UNK         0.0600 
    159 H159       -0.4591  -16.8286  -44.3448 H         1 UNK         0.3000 
    160 H160        2.1427  -16.6558  -45.7206 H         1 UNK         0.0600 
    161 H161        1.9015  -19.6365  -46.4032 H         1 UNK         0.0600 
    162 H162        3.3628  -18.7750  -45.9483 H         1 UNK         0.0600 
    163 H163        2.5812  -18.4161  -47.4752 H         1 UNK         0.0600 
    164 H164        0.2310  -16.2820  -46.7387 H         1 UNK         0.3000 
    165 H165       -1.5316  -17.2880  -48.5484 H         1 UNK         0.0600 
    166 H166       -3.9405  -17.8636  -48.0780 H         1 UNK         0.0600 
    167 H167       -2.8994  -19.2716  -48.1582 H         1 UNK         0.0600 
    168 H168       -3.4411  -18.6695  -46.5916 H         1 UNK         0.0600 
    169 H169       -2.1696  -15.3722  -47.6610 H         1 UNK         0.3000 
    170 H170       -2.7009  -13.7706  -46.3527 H         1 UNK         0.0600 
    171 H171       -4.1636  -14.5694  -43.7798 H         1 UNK         0.0600 
    172 H172       -4.2541  -13.0070  -44.5928 H         1 UNK         0.0600 
    173 H173       -4.9085  -14.4412  -45.3687 H         1 UNK         0.0600 
    174 H174       -1.9617  -13.3253  -43.7274 H         1 UNK         0.3000 
    175 H175        0.1417  -13.4111  -42.7633 H         1 UNK         0.0600 
    176 H176        2.6044  -13.4443  -42.9657 H         1 UNK         0.0600 
    177 H177        2.4962  -13.7683  -44.6921 H         1 UNK         0.0600 
    178 H178        1.9264  -14.9613  -43.5318 H         1 UNK         0.0600 
    179 H179        1.4347  -11.5600  -44.6699 H         1 UNK         0.3000 
    180 H180       -0.9900   -9.0521  -44.3499 H         1 UNK         0.0600 
    181 H181        1.6747   -8.9759  -42.8348 H         1 UNK         0.0600 
    182 H182        0.0941   -8.6488  -42.1344 H         1 UNK         0.0600 
    183 H183        0.7415   -7.5748  -43.3634 H         1 UNK         0.0600 
    184 H184        1.6960   -8.9375  -45.2999 H         1 UNK         0.3000 
    185 H185        0.7752   -9.1092  -48.5618 H         1 UNK         0.0600 
    186 H186        2.1657   -7.6369  -47.1043 H         1 UNK         0.0600 
    187 H187        3.2061   -8.9995  -46.6889 H         1 UNK         0.0600 
    188 H188        3.1317   -8.4134  -48.3436 H         1 UNK         0.0600 
    189 H189        1.7087  -10.9800  -49.2929 H         1 UNK         0.3000 
    190 H190       -0.1676  -24.6050  -45.0813 H         1 UNK         0.3000 
    191 H191       -1.6561  -26.0765  -44.4192 H         1 UNK         0.0600 
    192 H192       -1.1289  -28.5071  -44.6303 H         1 UNK         0.0600 
    193 H193        0.1167  -28.1556  -45.8271 H         1 UNK         0.0600 
    194 H194        0.2878  -27.5798  -44.1758 H         1 UNK         0.0600 
    195 H195       -1.6260  -28.4355  -46.8869 H         1 UNK         0.3000 
    196 H196       -4.2870  -27.9611  -47.7192 H         1 UNK         0.0600 
    197 H197       -3.7889  -29.7563  -49.3890 H         1 UNK         0.0600 
    198 H198       -3.2070  -30.1907  -47.7902 H         1 UNK         0.0600 
    199 H199       -2.0723  -29.6347  -49.0215 H         1 UNK         0.0600 
    200 H200       -1.2468  -26.7205  -48.9943 H         1 UNK         0.3000 
    201 H201       -2.4513  -25.6572  -51.4647 H         1 UNK         0.0600 
    202 H202        0.3549  -25.7466  -50.3071 H         1 UNK         0.0600 
    203 H203       -0.2551  -26.4370  -51.7946 H         1 UNK         0.0600 
    204 H204       -0.0276  -24.7036  -51.6695 H         1 UNK         0.0600 
    205 H205       -2.9166  -24.7447  -48.3811 H         1 UNK         0.3000 
    206 H206       -3.5518  -21.9819  -49.2057 H         1 UNK         0.0600 
    207 H207       -1.5286  -21.6165  -47.9128 H         1 UNK         0.0600 
    208 H208       -2.8554  -21.2350  -46.8546 H         1 UNK         0.0600 
    209 H209       -2.0247  -22.7744  -46.6720 H         1 UNK         0.0600 
    210 H210       -5.0021  -24.6176  -48.9484 H         1 UNK         0.3000 
    211 H211       -6.5811  -24.7217  -46.6234 H         1 UNK         0.0600 
    212 H212       -7.1501  -25.7111  -49.4675 H         1 UNK         0.0600 
    213 H213       -8.0709  -26.1771  -48.0413 H         1 UNK         0.0600 
    214 H214       -6.3776  -26.6224  -48.1704 H         1 UNK         0.0600 
    215 H215       -8.2635  -23.5658  -45.9136 H         1 UNK         0.3000 
    216 H216       -9.7571  -21.9619  -45.6325 H         1 UNK         0.0600 
    217 H217      -11.5582  -21.6924  -47.2879 H         1 UNK         0.0600 
    218 H218      -11.1212  -23.3888  -47.1848 H         1 UNK         0.0600 
    219 H219      -10.5740  -22.4178  -48.5509 H         1 UNK         0.0600 
    220 H220       -7.0677  -21.2265  -46.5808 H         1 UNK         0.3000 
    221 H221       -5.8035  -19.5056  -46.9767 H         1 UNK         0.0600 
    222 H222       -8.2319  -17.6481  -46.8924 H         1 UNK         0.0600 
    223 H223       -7.3154  -18.1769  -45.4807 H         1 UNK         0.0600 
    224 H224       -6.5446  -17.1930  -46.7123 H         1 UNK         0.0600 
    225 H225       -7.3367  -20.9803  -49.2156 H         1 UNK         0.3000 
    226 H226       -6.9465  -19.1119  -51.4803 H         1 UNK         0.0600 
    227 H227       -8.9002  -20.6631  -51.4981 H         1 UNK         0.0600 
    228 H228       -7.7908  -20.9881  -52.8224 H         1 UNK         0.0600 
    229 H229       -7.8160  -22.0492  -51.4237 H         1 UNK         0.0600 
    230 H230       -4.7293  -18.6939  -51.2651 H         1 UNK         0.3000 
    231 H231       -2.6663  -20.6299  -50.9774 H         1 UNK         0.0600 
    232 H232       -2.5902  -17.8152  -52.1872 H         1 UNK         0.0600 
    233 H233       -1.1906  -18.7501  -51.6782 H         1 UNK         0.0600 
    234 H234       -2.3659  -18.2142  -50.4873 H         1 UNK         0.0600 
    235 H235       -1.7511  -21.9788  -52.4177 H         1 UNK         0.3000 
    236 H236       -2.7121  -22.5353  -54.9382 H         1 UNK         0.0600 
    237 H237       -1.4046  -24.1210  -53.6019 H         1 UNK         0.0600 
    238 H238       -0.6247  -23.9325  -55.1625 H         1 UNK         0.0600 
    239 H239        0.0477  -23.1275  -53.7485 H         1 UNK         0.0600 
    240 H240       -0.2677  -20.1229  -54.1795 H         1 UNK         0.3000 
    241 H241        0.5221  -19.7020  -56.9624 H         1 UNK         0.0600 
    242 H242       -2.7086  -17.4105  -56.3597 H         1 UNK         0.3800 
    243 H243       -2.3980  -18.8137  -55.3710 H         1 UNK         0.3800 
    244 H244        1.8670  -17.8027  -56.0765 H         1 UNK         0.0800 
    245 H245        1.1746  -18.0423  -54.4917 H         1 UNK         0.0800 
    246 H246        4.5361  -19.5864  -53.4566 H         1 UNK         0.0800 
    247 H247        3.9990  -18.0141  -53.9935 H         1 UNK         0.0800 
@<TRIPOS>BOND
     1    1    2 1    
     2    1  127 1    
     3    1  128 1    
     4    1  129 1    
     5    2    3 2    
     6    2    4 am   BACKBONE|DICT|INTERRES
     7    4    5 1    
     8    4  130 1    
     9    5    6 1    
    10    5   65 1    
    11    5  131 1    
    12    6    7 1    
    13    6  132 1    
    14    6  133 1    
    15    7    8 1    
    16    8    9 1    
    17    8  134 1    
    18    8  135 1    
    19    9   10 ar   
    20    9   14 ar   
    21   10   11 ar   
    22   10  136 1    
    23   11   12 ar   
    24   11  126 1    
    25   12   13 ar   
    26   12  137 1    
    27   13   14 ar   
    28   13   15 1    
    29   14  138 1    
    30   15   16 1    
    31   15  139 1    
    32   15  140 1    
    33   16   17 1    
    34   17   18 1    
    35   17  141 1    
    36   17  142 1    
    37   18   19 1    
    38   18   67 1    
    39   18  143 1    
    40   19   20 am   BACKBONE|DICT|INTERRES
    41   19  144 1    
    42   20   21 2    
    43   20   22 1    
    44   22   23 1    
    45   22   24 1    
    46   22  145 1    
    47   23  146 1    
    48   23  147 1    
    49   23  148 1    
    50   24   25 am   BACKBONE|DICT|INTERRES
    51   24  149 1    
    52   25   26 2    
    53   25   27 1    
    54   27   28 1    
    55   27   29 1    
    56   27  150 1    
    57   28  151 1    
    58   28  152 1    
    59   28  153 1    
    60   29   30 am   BACKBONE|DICT|INTERRES
    61   29  154 1    
    62   30   31 2    
    63   30   32 1    
    64   32   33 1    
    65   32   34 1    
    66   32  155 1    
    67   33  156 1    
    68   33  157 1    
    69   33  158 1    
    70   34   35 am   BACKBONE|DICT|INTERRES
    71   34  159 1    
    72   35   36 2    
    73   35   37 1    
    74   37   38 1    
    75   37   39 1    
    76   37  160 1    
    77   38  161 1    
    78   38  162 1    
    79   38  163 1    
    80   39   40 am   BACKBONE|DICT|INTERRES
    81   39  164 1    
    82   40   41 2    
    83   40   42 1    
    84   42   43 1    
    85   42   44 1    
    86   42  165 1    
    87   43  166 1    
    88   43  167 1    
    89   43  168 1    
    90   44   45 am   BACKBONE|DICT|INTERRES
    91   44  169 1    
    92   45   46 2    
    93   45   47 1    
    94   47   48 1    
    95   47   49 1    
    96   47  170 1    
    97   48  171 1    
    98   48  172 1    
    99   48  173 1    
   100   49   50 am   BACKBONE|DICT|INTERRES
   101   49  174 1    
   102   50   51 2    
   103   50   52 1    
   104   52   53 1    
   105   52   54 1    
   106   52  175 1    
   107   53  176 1    
   108   53  177 1    
   109   53  178 1    
   110   54   55 am   BACKBONE|DICT|INTERRES
   111   54  179 1    
   112   55   56 2    
   113   55   57 1    
   114   57   58 1    
   115   57   59 1    
   116   57  180 1    
   117   58  181 1    
   118   58  182 1    
   119   58  183 1    
   120   59   60 am   BACKBONE|DICT|INTERRES
   121   59  184 1    
   122   60   61 2    
   123   60   62 1    
   124   62   63 1    
   125   62   64 1    
   126   62  185 1    
   127   63  186 1    
   128   63  187 1    
   129   63  188 1    
   130   64   65 am   BACKBONE|DICT|INTERRES
   131   64  189 1    
   132   65   66 2    
   133   67   68 2    
   134   67   69 am   BACKBONE|DICT|INTERRES
   135   69   70 1    
   136   69  190 1    
   137   70   71 1    
   138   70   72 1    
   139   70  191 1    
   140   71  192 1    
   141   71  193 1    
   142   71  194 1    
   143   72   73 2    
   144   72   74 am   BACKBONE|DICT|INTERRES
   145   74   75 1    
   146   74  195 1    
   147   75   76 1    
   148   75   77 1    
   149   75  196 1    
   150   76  197 1    
   151   76  198 1    
   152   76  199 1    
   153   77   78 2    
   154   77   79 am   BACKBONE|DICT|INTERRES
   155   79   80 1    
   156   79  200 1    
   157   80   81 1    
   158   80   82 1    
   159   80  201 1    
   160   81  202 1    
   161   81  203 1    
   162   81  204 1    
   163   82   83 2    
   164   82   84 am   BACKBONE|DICT|INTERRES
   165   84   85 1    
   166   84  205 1    
   167   85   86 1    
   168   85   87 1    
   169   85  206 1    
   170   86  207 1    
   171   86  208 1    
   172   86  209 1    
   173   87   88 2    
   174   87   89 am   BACKBONE|DICT|INTERRES
   175   89   90 1    
   176   89  210 1    
   177   90   91 1    
   178   90   92 1    
   179   90  211 1    
   180   91  212 1    
   181   91  213 1    
   182   91  214 1    
   183   92   93 2    
   184   92   94 am   BACKBONE|DICT|INTERRES
   185   94   95 1    
   186   94  215 1    
   187   95   96 1    
   188   95   97 1    
   189   95  216 1    
   190   96  217 1    
   191   96  218 1    
   192   96  219 1    
   193   97   98 2    
   194   97   99 am   BACKBONE|DICT|INTERRES
   195   99  100 1    
   196   99  220 1    
   197  100  101 1    
   198  100  102 1    
   199  100  221 1    
   200  101  222 1    
   201  101  223 1    
   202  101  224 1    
   203  102  103 2    
   204  102  104 am   BACKBONE|DICT|INTERRES
   205  104  105 1    
   206  104  225 1    
   207  105  106 1    
   208  105  107 1    
   209  105  226 1    
   210  106  227 1    
   211  106  228 1    
   212  106  229 1    
   213  107  108 2    
   214  107  109 am   BACKBONE|DICT|INTERRES
   215  109  110 1    
   216  109  230 1    
   217  110  111 1    
   218  110  112 1    
   219  110  231 1    
   220  111  232 1    
   221  111  233 1    
   222  111  234 1    
   223  112  113 2    
   224  112  114 am   BACKBONE|DICT|INTERRES
   225  114  115 1    
   226  114  235 1    
   227  115  116 1    
   228  115  117 1    
   229  115  236 1    
   230  116  237 1    
   231  116  238 1    
   232  116  239 1    
   233  117  118 2    
   234  117  119 am   BACKBONE|DICT|INTERRES
   235  119  120 1    
   236  119  240 1    
   237  120  121 1    
   238  120  124 1    
   239  120  241 1    
   240  121  122 am   BACKBONE|DICT|INTERRES
   241  121  123 2    
   242  122  242 1    
   243  122  243 1    
   244  124  125 1    
   245  124  244 1    
   246  124  245 1    
   247  125  126 1    
   248  126  246 1    
   249  126  247 1    
@<TRIPOS>SUBSTRUCTURE
     1 UNK         1 GROUP             0       ****    0 ROOT    
