@<TRIPOS>MOLECULE
3R540
247   249    1
SMALL
USER_CHARGES


@<TRIPOS>ATOM
      1 CA          3.0623  -10.2445  -48.6993 C.3       0 UNK        -0.1800 
      2 C           1.8828  -11.2060  -48.6715 C.2       0 UNK         0.5000 
      3 O           0.7724  -10.8033  -48.3245 O.2       0 UNK        -0.5000 
      4 N           2.1275  -12.4754  -49.0225 N.am      1 UNK        -0.5000 
      5 CA          1.1754  -13.5923  -49.1507 C.3       1 UNK         0.1400 
      6 C6          0.0193  -13.3439  -50.1571 C.3       23 UNK        -0.0398 
      7 S7          0.5532  -12.7908  -51.8165 S.3       23 UNK        -0.2404 
      8 C8          1.4344  -14.2436  -52.4837 C.3       23 UNK        -0.0205 
      9 C9          0.6501  -15.5426  -52.3533 C.ar      23 UNK        -0.0193 
     10 C10        -0.6242  -15.6666  -52.9157 C.ar      23 UNK        -0.1150 
     11 C11        -1.3534  -16.8495  -52.7652 C.ar      23 UNK        -0.0193 
     12 C12        -0.7915  -17.9203  -52.0660 C.ar      23 UNK        -0.1150 
     13 C13         0.4846  -17.8128  -51.5070 C.ar      23 UNK        -0.0193 
     14 C14         1.2013  -16.6229  -51.6584 C.ar      23 UNK        -0.1150 
     15 C15         1.0931  -18.9769  -50.7391 C.3       23 UNK        -0.0205 
     16 S16         1.2483  -18.6166  -48.9597 S.3       23 UNK        -0.2404 
     17 C17        -0.4926  -18.6893  -48.4113 C.3       23 UNK        -0.0398 
     18 CA         -0.8470  -20.0786  -47.8247 C.3       11 UNK         0.1400 
     19 N          -0.0703  -20.3816  -46.6207 N.am      11 UNK        -0.5000 
     20 C           0.5029  -21.5584  -46.3464 C.2       10 UNK         0.5000 
     21 O           0.4223  -22.5478  -47.0731 O.2       10 UNK        -0.5000 
     22 CA          1.2845  -21.6507  -45.0233 C.3       10 UNK         0.1400 
     23 CB          2.7180  -21.1301  -45.2073 C.3       10 UNK        -0.1800 
     24 N           0.6386  -20.9338  -43.9204 N.am      10 UNK        -0.5000 
     25 C          -0.5403  -21.2791  -43.3831 C.2       9 UNK         0.5000 
     26 O          -1.2017  -22.2454  -43.7613 O.2       9 UNK        -0.5000 
     27 CA         -1.0794  -20.3975  -42.2422 C.3       9 UNK         0.1400 
     28 CB         -0.3887  -20.7430  -40.9142 C.3       9 UNK        -0.1800 
     29 N          -0.9274  -18.9699  -42.5170 N.am      9 UNK        -0.5000 
     30 C          -1.6253  -18.2958  -43.4420 C.2       8 UNK         0.5000 
     31 O          -2.5297  -18.7904  -44.1132 O.2       8 UNK        -0.5000 
     32 CA         -1.2264  -16.8274  -43.6827 C.3       8 UNK         0.1400 
     33 CB         -1.9136  -15.9009  -42.6687 C.3       8 UNK        -0.1800 
     34 N           0.2195  -16.6110  -43.6348 N.am      8 UNK        -0.5000 
     35 C           1.1058  -17.1923  -44.4558 C.2       7 UNK         0.5000 
     36 O           0.7992  -17.9782  -45.3498 O.2       7 UNK        -0.5000 
     37 CA          2.5893  -16.8999  -44.1793 C.3       7 UNK         0.1400 
     38 CB          2.9974  -15.5213  -44.7236 C.3       7 UNK        -0.1800 
     39 N           2.8941  -16.9816  -42.7506 N.am      7 UNK        -0.5000 
     40 C           2.8743  -18.1178  -42.0384 C.2       6 UNK         0.5000 
     41 O           2.6332  -19.2243  -42.5198 O.2       6 UNK        -0.5000 
     42 CA          3.1198  -17.9866  -40.5246 C.3       6 UNK         0.1400 
     43 CB          4.6228  -17.8896  -40.2233 C.3       6 UNK        -0.1800 
     44 N           2.4314  -16.8323  -39.9457 N.am      6 UNK        -0.5000 
     45 C           1.0988  -16.7057  -39.8713 C.2       5 UNK         0.5000 
     46 O           0.3080  -17.5694  -40.2479 O.2       5 UNK        -0.5000 
     47 CA          0.5601  -15.3687  -39.3297 C.3       5 UNK         0.1400 
     48 CB          0.4541  -15.4106  -37.7981 C.3       5 UNK        -0.1800 
     49 N           1.3626  -14.2089  -39.7311 N.am      5 UNK        -0.5000 
     50 C           1.5665  -13.8269  -40.9980 C.2       4 UNK         0.5000 
     51 O           1.1367  -14.4415  -41.9788 O.2       4 UNK        -0.5000 
     52 CA          2.4326  -12.5790  -41.2070 C.3       4 UNK         0.1400 
     53 CB          3.9213  -12.9602  -41.2368 C.3       4 UNK        -0.1800 
     54 N           2.0697  -11.9876  -42.4883 N.am      4 UNK        -0.5000 
     55 C           1.7031  -10.7192  -42.6955 C.2       3 UNK         0.5000 
     56 O           1.7415   -9.8439  -41.8297 O.2       3 UNK        -0.5000 
     57 CA          1.2025  -10.3638  -44.1106 C.3       3 UNK         0.1400 
     58 CB          2.2738   -9.5769  -44.8807 C.3       3 UNK        -0.1800 
     59 N           0.8108  -11.5308  -44.9083 N.am      3 UNK        -0.5000 
     60 C          -0.3031  -12.2538  -44.7196 C.2       2 UNK         0.5000 
     61 O          -1.1246  -12.0116  -43.8349 O.2       2 UNK        -0.5000 
     62 CA         -0.5324  -13.4304  -45.6866 C.3       2 UNK         0.1400 
     63 CB         -2.0229  -13.7622  -45.8923 C.3       2 UNK        -0.1800 
     64 N           0.0943  -13.1693  -46.9816 N.am      2 UNK        -0.5000 
     65 C           0.6144  -14.0885  -47.7998 C.2       1 UNK         0.5000 
     66 O           0.6643  -15.2860  -47.5276 O.2       1 UNK        -0.5000 
     67 C          -2.3651  -20.2584  -47.5997 C.2       11 UNK         0.5000 
     68 O          -3.1520  -19.7898  -48.4229 O.2       11 UNK        -0.5000 
     69 N          -2.7695  -20.9667  -46.5342 N.am      12 UNK        -0.5000 
     70 CA         -4.1411  -21.4403  -46.3433 C.3       12 UNK         0.1400 
     71 CB         -4.3264  -21.9182  -44.8959 C.3       12 UNK        -0.1800 
     72 C          -4.4337  -22.5843  -47.3296 C.2       12 UNK         0.5000 
     73 O          -3.6004  -23.4811  -47.4714 O.2       12 UNK        -0.5000 
     74 N          -5.6023  -22.5439  -47.9853 N.am      13 UNK        -0.5000 
     75 CA         -5.9803  -23.4058  -49.1157 C.3       13 UNK         0.1400 
     76 CB         -7.3916  -23.0299  -49.5898 C.3       13 UNK        -0.1800 
     77 C          -5.8791  -24.9244  -48.8709 C.2       13 UNK         0.5000 
     78 O          -5.6537  -25.6734  -49.8220 O.2       13 UNK        -0.5000 
     79 N          -5.9895  -25.3443  -47.6031 N.am      14 UNK        -0.5000 
     80 CA         -5.7884  -26.7178  -47.1355 C.3       14 UNK         0.1400 
     81 CB         -6.1204  -26.7813  -45.6368 C.3       14 UNK        -0.1800 
     82 C          -4.3735  -27.2798  -47.3977 C.2       14 UNK         0.5000 
     83 O          -4.2184  -28.5001  -47.4577 O.2       14 UNK        -0.5000 
     84 N          -3.3743  -26.4003  -47.5702 N.am      15 UNK        -0.5000 
     85 CA         -2.0053  -26.7619  -47.9480 C.3       15 UNK         0.1400 
     86 CB         -1.0680  -25.5895  -47.6206 C.3       15 UNK        -0.1800 
     87 C          -1.8640  -27.1770  -49.4291 C.2       15 UNK         0.5000 
     88 O          -0.8469  -27.7765  -49.7817 O.2       15 UNK        -0.5000 
     89 N          -2.8807  -26.8734  -50.2530 N.am      16 UNK        -0.5000 
     90 CA         -2.9940  -27.1599  -51.6866 C.3       16 UNK         0.1400 
     91 CB         -2.9900  -28.6837  -51.9397 C.3       16 UNK        -0.1800 
     92 C          -1.9616  -26.4035  -52.5530 C.2       16 UNK         0.5000 
     93 O          -1.2807  -25.4966  -52.0680 O.2       16 UNK        -0.5000 
     94 N          -1.8965  -26.7627  -53.8439 N.am      17 UNK        -0.5000 
     95 CA         -1.0156  -26.1974  -54.8720 C.3       17 UNK         0.1400 
     96 CB          0.4449  -26.6399  -54.6247 C.3       17 UNK        -0.1800 
     97 C          -1.2026  -24.6707  -55.0097 C.2       17 UNK         0.5000 
     98 O          -2.3145  -24.2286  -55.3027 O.2       17 UNK        -0.5000 
     99 N          -0.1381  -23.8927  -54.7711 N.am      18 UNK        -0.5000 
    100 CA        -0.1360  -22.4289  -54.8158 C.3       18 UNK         0.1400 
    101 CB         1.3080  -21.9243  -54.6738 C.3       18 UNK        -0.1800 
    102 C         -1.0378  -21.7688  -53.7554 C.2       18 UNK         0.5000 
    103 O         -1.5207  -20.6618  -53.9867 O.2       18 UNK        -0.5000 
    104 N         -1.2735  -22.4509  -52.6253 N.am      19 UNK        -0.5000 
    105 CA        -2.1534  -21.9726  -51.5596 C.3       19 UNK         0.1400 
    106 CB        -1.9394  -22.8230  -50.3045 C.3       19 UNK        -0.1800 
    107 C         -3.6335  -21.9870  -51.9773 C.2       19 UNK         0.5000 
    108 O         -4.3814  -21.0743  -51.6275 O.2       19 UNK        -0.5000 
    109 N         -4.0271  -23.0006  -52.7607 N.am      20 UNK        -0.5000 
    110 CA        -5.3883  -23.1786  -53.2733 C.3       20 UNK         0.1400 
    111 CB        -5.5464  -24.6096  -53.8082 C.3       20 UNK        -0.1800 
    112 C         -5.7982  -22.1384  -54.3356 C.2       20 UNK         0.5000 
    113 O         -6.9830  -22.0465  -54.6583 O.2       20 UNK        -0.5000 
    114 N         -4.8325  -21.3595  -54.8447 N.am      21 UNK        -0.5000 
    115 CA        -5.0601  -20.2511  -55.7706 C.3       21 UNK         0.1400 
    116 CB        -3.7275  -19.8538  -56.4239 C.3       21 UNK        -0.1800 
    117 C         -5.7304  -19.0272  -55.1123 C.2       21 UNK         0.5000 
    118 O         -6.2681  -18.1906  -55.8397 O.2       21 UNK        -0.5000 
    119 N         -5.7033  -18.9309  -53.7743 N.am      22 UNK        -0.5000 
    120 CA        -6.3605  -17.8500  -53.0220 C.3       22 UNK         0.1400 
    121 C         -6.8903  -18.2442  -51.6141 C.2       22 UNK         0.5000 
    122 N         -6.4951  -19.3616  -51.0172 N.am      22 UNK        -0.7600 
    123 O         -7.7145  -17.5257  -51.0547 O.2       22 UNK        -0.5000 
    124 C124       -5.5353  -16.5348  -53.0136 C.3       23 UNK        -0.0398 
    125 S125       -3.9904  -16.6140  -52.0421 S.3       23 UNK        -0.2404 
    126 C126       -2.7581  -16.9635  -53.3320 C.3       23 UNK        -0.0205 
    127 H127        3.3580   -9.9779  -47.6855 H         1 UNK         0.0600 
    128 H128        3.9260  -10.6796  -49.2027 H         1 UNK         0.0600 
    129 H129        2.7891   -9.3311  -49.2278 H         1 UNK         0.0600 
    130 H130        3.0783  -12.7198  -49.2615 H         1 UNK         0.3000 
    131 H131        1.7676  -14.4198  -49.5438 H         1 UNK         0.0600 
    132 H132       -0.5858  -14.2452  -50.2701 H         1 UNK         0.0800 
    133 H133       -0.6623  -12.5845  -49.7709 H         1 UNK         0.0800 
    134 H134        1.6512  -14.0681  -53.5382 H         1 UNK         0.0800 
    135 H135        2.4013  -14.3230  -51.9847 H         1 UNK         0.0800 
    136 H136       -1.0572  -14.8315  -53.4485 H         1 UNK         0.1150 
    137 H137       -1.3597  -18.8307  -51.9496 H         1 UNK         0.1150 
    138 H138        2.1857  -16.5385  -51.2196 H         1 UNK         0.1150 
    139 H139        0.5087  -19.8879  -50.8777 H         1 UNK         0.0800 
    140 H140        2.0847  -19.1866  -51.1425 H         1 UNK         0.0800 
    141 H141       -1.1355  -18.4367  -49.2552 H         1 UNK         0.0800 
    142 H142       -0.6540  -17.9073  -47.6675 H         1 UNK         0.0800 
    143 H143       -0.5940  -20.8087  -48.5954 H         1 UNK         0.0600 
    144 H144        0.1070  -19.5949  -45.9994 H         1 UNK         0.3000 
    145 H145        1.3414  -22.7057  -44.7473 H         1 UNK         0.0600 
    146 H146        3.3098  -21.2762  -44.3037 H         1 UNK         0.0600 
    147 H147        3.2246  -21.6570  -46.0168 H         1 UNK         0.0600 
    148 H148        2.7309  -20.0668  -45.4488 H         1 UNK         0.0600 
    149 H149        1.1494  -20.1484  -43.5300 H         1 UNK         0.3000 
    150 H150       -2.1450  -20.6104  -42.1330 H         1 UNK         0.0600 
    151 H151       -0.4924  -21.8040  -40.6837 H         1 UNK         0.0600 
    152 H152       -0.8277  -20.1858  -40.0865 H         1 UNK         0.0600 
    153 H153        0.6771  -20.5142  -40.9421 H         1 UNK         0.0600 
    154 H154       -0.2501  -18.4671  -41.9527 H         1 UNK         0.3000 
    155 H155       -1.5640  -16.5518  -44.6838 H         1 UNK         0.0600 
    156 H156       -1.6334  -14.8592  -42.8264 H         1 UNK         0.0600 
    157 H157       -1.6516  -16.1635  -41.6440 H         1 UNK         0.0600 
    158 H158       -2.9986  -15.9653  -42.7565 H         1 UNK         0.0600 
    159 H159        0.5609  -15.9607  -42.9316 H         1 UNK         0.3000 
    160 H160        3.1829  -17.6563  -44.6971 H         1 UNK         0.0600 
    161 H161        2.4210  -14.7148  -44.2722 H         1 UNK         0.0600 
    162 H162        2.8389  -15.4711  -45.8013 H         1 UNK         0.0600 
    163 H163        4.0535  -15.3219  -44.5421 H         1 UNK         0.0600 
    164 H164        3.0397  -16.1091  -42.2662 H         1 UNK         0.3000 
    165 H165        2.7326  -18.8884  -40.0453 H         1 UNK         0.0600 
    166 H166        5.0647  -16.9896  -40.6527 H         1 UNK         0.0600 
    167 H167        4.8091  -17.8757  -39.1492 H         1 UNK         0.0600 
    168 H168        5.1585  -18.7466  -40.6338 H         1 UNK         0.0600 
    169 H169        3.0068  -16.0739  -39.6112 H         1 UNK         0.3000 
    170 H170       -0.4441  -15.2311  -39.7353 H         1 UNK         0.0600 
    171 H171       -0.1555  -16.2545  -37.4721 H         1 UNK         0.0600 
    172 H172        1.4332  -15.5119  -37.3283 H         1 UNK         0.0600 
    173 H173       -0.0134  -14.5054  -37.4099 H         1 UNK         0.0600 
    174 H174        1.7605  -13.6590  -38.9832 H         1 UNK         0.3000 
    175 H175        2.2479  -11.8815  -40.3874 H         1 UNK         0.0600 
    176 H176        4.5465  -12.0820  -41.3997 H         1 UNK         0.0600 
    177 H177        4.2322  -13.4086  -40.2925 H         1 UNK         0.0600 
    178 H178        4.1398  -13.6761  -42.0305 H         1 UNK         0.0600 
    179 H179        1.9199  -12.6536  -43.2323 H         1 UNK         0.3000 
    180 H180        0.3283   -9.7201  -43.9925 H         1 UNK         0.0600 
    181 H181        3.1636  -10.1805  -45.0637 H         1 UNK         0.0600 
    182 H182        2.5858   -8.6916  -44.3250 H         1 UNK         0.0600 
    183 H183        1.8917   -9.2346  -45.8425 H         1 UNK         0.0600 
    184 H184        1.4369  -11.7976  -45.6533 H         1 UNK         0.3000 
    185 H185       -0.0495  -14.2922  -45.2239 H         1 UNK         0.0600 
    186 H186       -2.1469  -14.6397  -46.5271 H         1 UNK         0.0600 
    187 H187       -2.5184  -13.9788  -44.9458 H         1 UNK         0.0600 
    188 H188       -2.5542  -12.9325  -46.3595 H         1 UNK         0.0600 
    189 H189        0.1094  -12.2000  -47.2952 H         1 UNK         0.3000 
    190 H190       -2.0713  -21.3466  -45.9099 H         1 UNK         0.3000 
    191 H191       -4.8275  -20.6113  -46.5273 H         1 UNK         0.0600 
    192 H192       -4.0799  -21.1300  -44.1843 H         1 UNK         0.0600 
    193 H193       -5.3602  -22.2125  -44.7121 H         1 UNK         0.0600 
    194 H194       -3.6963  -22.7801  -44.6727 H         1 UNK         0.0600 
    195 H195       -6.2379  -21.7862  -47.7821 H         1 UNK         0.3000 
    196 H196       -5.2848  -23.1816  -49.9244 H         1 UNK         0.0600 
    197 H197       -7.6993  -23.6466  -50.4355 H         1 UNK         0.0600 
    198 H198       -7.4347  -21.9916  -49.9183 H         1 UNK         0.0600 
    199 H199       -8.1300  -23.1655  -48.7988 H         1 UNK         0.0600 
    200 H200       -6.1536  -24.6478  -46.8915 H         1 UNK         0.3000 
    201 H201       -6.4943  -27.3552  -47.6717 H         1 UNK         0.0600 
    202 H202       -7.1484  -26.4727  -45.4459 H         1 UNK         0.0600 
    203 H203       -5.4611  -26.1380  -45.0525 H         1 UNK         0.0600 
    204 H204       -6.0116  -27.7971  -45.2543 H         1 UNK         0.0600 
    205 H205       -3.5696  -25.4043  -47.4999 H         1 UNK         0.3000 
    206 H206       -1.6975  -27.6157  -47.3409 H         1 UNK         0.0600 
    207 H207       -1.3038  -24.7077  -48.2158 H         1 UNK         0.0600 
    208 H208       -1.1348  -25.3076  -46.5696 H         1 UNK         0.0600 
    209 H209       -0.0283  -25.8492  -47.8227 H         1 UNK         0.0600 
    210 H210       -3.6731  -26.3797  -49.8590 H         1 UNK         0.3000 
    211 H211       -3.9735  -26.7829  -51.9775 H         1 UNK         0.0600 
    212 H212       -1.9974  -29.1151  -51.8066 H         1 UNK         0.0600 
    213 H213       -3.3175  -28.9217  -52.9519 H         1 UNK         0.0600 
    214 H214       -3.6701  -29.1963  -51.2590 H         1 UNK         0.0600 
    215 H215       -2.5231  -27.4856  -54.1675 H         1 UNK         0.3000 
    216 H216       -1.3326  -26.6264  -55.8237 H         1 UNK         0.0600 
    217 H217        0.5198  -27.7272  -54.6000 H         1 UNK         0.0600 
    218 H218        0.8365  -26.2650  -53.6783 H         1 UNK         0.0600 
    219 H219        1.1039  -26.2950  -55.4225 H         1 UNK         0.0600 
    220 H220        0.7305  -24.3372  -54.5116 H         1 UNK         0.3000 
    221 H221       -0.5107  -22.1244  -55.7953 H         1 UNK         0.0600 
    222 H222        1.7463  -22.2222  -53.7204 H         1 UNK         0.0600 
    223 H223        1.9421  -22.3106  -55.4719 H         1 UNK         0.0600 
    224 H224        1.3481  -20.8352  -54.7267 H         1 UNK         0.0600 
    225 H225       -0.8880  -23.3822  -52.5152 H         1 UNK         0.3000 
    226 H226       -1.8794  -20.9449  -51.3180 H         1 UNK         0.0600 
    227 H227       -0.8845  -22.8955  -50.0390 H         1 UNK         0.0600 
    228 H228       -2.4559  -22.3740  -49.4621 H         1 UNK         0.0600 
    229 H229       -2.3329  -23.8329  -50.4164 H         1 UNK         0.0600 
    230 H230       -3.3347  -23.6682  -53.0707 H         1 UNK         0.3000 
    231 H231       -6.0798  -23.0580  -52.4371 H         1 UNK         0.0600 
    232 H232       -6.5440  -24.7676  -54.2199 H         1 UNK         0.0600 
    233 H233       -5.4137  -25.3394  -53.0114 H         1 UNK         0.0600 
    234 H234       -4.8280  -24.8301  -54.5977 H         1 UNK         0.0600 
    235 H235       -3.8827  -21.4977  -54.5286 H         1 UNK         0.3000 
    236 H236       -5.7279  -20.6035  -56.5594 H         1 UNK         0.0600 
    237 H237       -3.8860  -19.1142  -57.2097 H         1 UNK         0.0600 
    238 H238       -3.0390  -19.4156  -55.7022 H         1 UNK         0.0600 
    239 H239       -3.2359  -20.7131  -56.8804 H         1 UNK         0.0600 
    240 H240       -5.2460  -19.6491  -53.2301 H         1 UNK         0.3000 
    241 H241       -7.2808  -17.6230  -53.5644 H         1 UNK         0.0600 
    242 H242       -5.7401  -19.9465  -51.3675 H         1 UNK         0.3800 
    243 H243       -6.8781  -19.5651  -50.1097 H         1 UNK         0.3800 
    244 H244       -5.3068  -16.2284  -54.0349 H         1 UNK         0.0800 
    245 H245       -6.1405  -15.7250  -52.6030 H         1 UNK         0.0800 
    246 H246       -2.9188  -17.9676  -53.7266 H         1 UNK         0.0800 
    247 H247       -2.8857  -16.2724  -54.1665 H         1 UNK         0.0800 
@<TRIPOS>BOND
     1    1    2 1    
     2    1  127 1    
     3    1  128 1    
     4    1  129 1    
     5    2    3 2    
     6    2    4 am   BACKBONE|DICT|INTERRES
     7    4    5 1    
     8    4  130 1    
     9    5    6 1    
    10    5   65 1    
    11    5  131 1    
    12    6    7 1    
    13    6  132 1    
    14    6  133 1    
    15    7    8 1    
    16    8    9 1    
    17    8  134 1    
    18    8  135 1    
    19    9   10 ar   
    20    9   14 ar   
    21   10   11 ar   
    22   10  136 1    
    23   11   12 ar   
    24   11  126 1    
    25   12   13 ar   
    26   12  137 1    
    27   13   14 ar   
    28   13   15 1    
    29   14  138 1    
    30   15   16 1    
    31   15  139 1    
    32   15  140 1    
    33   16   17 1    
    34   17   18 1    
    35   17  141 1    
    36   17  142 1    
    37   18   19 1    
    38   18   67 1    
    39   18  143 1    
    40   19   20 am   BACKBONE|DICT|INTERRES
    41   19  144 1    
    42   20   21 2    
    43   20   22 1    
    44   22   23 1    
    45   22   24 1    
    46   22  145 1    
    47   23  146 1    
    48   23  147 1    
    49   23  148 1    
    50   24   25 am   BACKBONE|DICT|INTERRES
    51   24  149 1    
    52   25   26 2    
    53   25   27 1    
    54   27   28 1    
    55   27   29 1    
    56   27  150 1    
    57   28  151 1    
    58   28  152 1    
    59   28  153 1    
    60   29   30 am   BACKBONE|DICT|INTERRES
    61   29  154 1    
    62   30   31 2    
    63   30   32 1    
    64   32   33 1    
    65   32   34 1    
    66   32  155 1    
    67   33  156 1    
    68   33  157 1    
    69   33  158 1    
    70   34   35 am   BACKBONE|DICT|INTERRES
    71   34  159 1    
    72   35   36 2    
    73   35   37 1    
    74   37   38 1    
    75   37   39 1    
    76   37  160 1    
    77   38  161 1    
    78   38  162 1    
    79   38  163 1    
    80   39   40 am   BACKBONE|DICT|INTERRES
    81   39  164 1    
    82   40   41 2    
    83   40   42 1    
    84   42   43 1    
    85   42   44 1    
    86   42  165 1    
    87   43  166 1    
    88   43  167 1    
    89   43  168 1    
    90   44   45 am   BACKBONE|DICT|INTERRES
    91   44  169 1    
    92   45   46 2    
    93   45   47 1    
    94   47   48 1    
    95   47   49 1    
    96   47  170 1    
    97   48  171 1    
    98   48  172 1    
    99   48  173 1    
   100   49   50 am   BACKBONE|DICT|INTERRES
   101   49  174 1    
   102   50   51 2    
   103   50   52 1    
   104   52   53 1    
   105   52   54 1    
   106   52  175 1    
   107   53  176 1    
   108   53  177 1    
   109   53  178 1    
   110   54   55 am   BACKBONE|DICT|INTERRES
   111   54  179 1    
   112   55   56 2    
   113   55   57 1    
   114   57   58 1    
   115   57   59 1    
   116   57  180 1    
   117   58  181 1    
   118   58  182 1    
   119   58  183 1    
   120   59   60 am   BACKBONE|DICT|INTERRES
   121   59  184 1    
   122   60   61 2    
   123   60   62 1    
   124   62   63 1    
   125   62   64 1    
   126   62  185 1    
   127   63  186 1    
   128   63  187 1    
   129   63  188 1    
   130   64   65 am   BACKBONE|DICT|INTERRES
   131   64  189 1    
   132   65   66 2    
   133   67   68 2    
   134   67   69 am   BACKBONE|DICT|INTERRES
   135   69   70 1    
   136   69  190 1    
   137   70   71 1    
   138   70   72 1    
   139   70  191 1    
   140   71  192 1    
   141   71  193 1    
   142   71  194 1    
   143   72   73 2    
   144   72   74 am   BACKBONE|DICT|INTERRES
   145   74   75 1    
   146   74  195 1    
   147   75   76 1    
   148   75   77 1    
   149   75  196 1    
   150   76  197 1    
   151   76  198 1    
   152   76  199 1    
   153   77   78 2    
   154   77   79 am   BACKBONE|DICT|INTERRES
   155   79   80 1    
   156   79  200 1    
   157   80   81 1    
   158   80   82 1    
   159   80  201 1    
   160   81  202 1    
   161   81  203 1    
   162   81  204 1    
   163   82   83 2    
   164   82   84 am   BACKBONE|DICT|INTERRES
   165   84   85 1    
   166   84  205 1    
   167   85   86 1    
   168   85   87 1    
   169   85  206 1    
   170   86  207 1    
   171   86  208 1    
   172   86  209 1    
   173   87   88 2    
   174   87   89 am   BACKBONE|DICT|INTERRES
   175   89   90 1    
   176   89  210 1    
   177   90   91 1    
   178   90   92 1    
   179   90  211 1    
   180   91  212 1    
   181   91  213 1    
   182   91  214 1    
   183   92   93 2    
   184   92   94 am   BACKBONE|DICT|INTERRES
   185   94   95 1    
   186   94  215 1    
   187   95   96 1    
   188   95   97 1    
   189   95  216 1    
   190   96  217 1    
   191   96  218 1    
   192   96  219 1    
   193   97   98 2    
   194   97   99 am   BACKBONE|DICT|INTERRES
   195   99  100 1    
   196   99  220 1    
   197  100  101 1    
   198  100  102 1    
   199  100  221 1    
   200  101  222 1    
   201  101  223 1    
   202  101  224 1    
   203  102  103 2    
   204  102  104 am   BACKBONE|DICT|INTERRES
   205  104  105 1    
   206  104  225 1    
   207  105  106 1    
   208  105  107 1    
   209  105  226 1    
   210  106  227 1    
   211  106  228 1    
   212  106  229 1    
   213  107  108 2    
   214  107  109 am   BACKBONE|DICT|INTERRES
   215  109  110 1    
   216  109  230 1    
   217  110  111 1    
   218  110  112 1    
   219  110  231 1    
   220  111  232 1    
   221  111  233 1    
   222  111  234 1    
   223  112  113 2    
   224  112  114 am   BACKBONE|DICT|INTERRES
   225  114  115 1    
   226  114  235 1    
   227  115  116 1    
   228  115  117 1    
   229  115  236 1    
   230  116  237 1    
   231  116  238 1    
   232  116  239 1    
   233  117  118 2    
   234  117  119 am   BACKBONE|DICT|INTERRES
   235  119  120 1    
   236  119  240 1    
   237  120  121 1    
   238  120  124 1    
   239  120  241 1    
   240  121  122 am   BACKBONE|DICT|INTERRES
   241  121  123 2    
   242  122  242 1    
   243  122  243 1    
   244  124  125 1    
   245  124  244 1    
   246  124  245 1    
   247  125  126 1    
   248  126  246 1    
   249  126  247 1    
@<TRIPOS>SUBSTRUCTURE
     1 UNK         1 GROUP             0       ****    0 ROOT    
