@<TRIPOS>MOLECULE
3R540
247   249    1
SMALL
USER_CHARGES


@<TRIPOS>ATOM
      1 CA          5.2611  -15.2401  -46.8347 C.3       0 UNK        -0.1800 
      2 C           3.9459  -14.7355  -46.2597 C.2       0 UNK         0.5000 
      3 O           3.7964  -14.6691  -45.0416 O.2       0 UNK        -0.5000 
      4 N           2.9987  -14.3724  -47.1326 N.am      1 UNK        -0.5000 
      5 CA          1.6421  -13.9235  -46.7816 C.3       1 UNK         0.1400 
      6 C6          0.6076  -14.2993  -47.8731 C.3       23 UNK        -0.0398 
      7 S7          0.5745  -16.0846  -48.2575 S.3       23 UNK        -0.2404 
      8 C8          1.2561  -16.0771  -49.9438 C.3       23 UNK        -0.0205 
      9 C9          1.1710  -17.4504  -50.5884 C.ar      23 UNK        -0.0193 
     10 C10        -0.0417  -17.8941  -51.1188 C.ar      23 UNK        -0.1150 
     11 C11        -0.1332  -19.1424  -51.7382 C.ar      23 UNK        -0.0193 
     12 C12         1.0029  -19.9506  -51.8329 C.ar      23 UNK        -0.1150 
     13 C13         2.2250  -19.5151  -51.3106 C.ar      23 UNK        -0.0193 
     14 C14         2.3015  -18.2659  -50.6846 C.ar      23 UNK        -0.1150 
     15 C15         3.4719  -20.3791  -51.4436 C.3       23 UNK        -0.0205 
     16 S16         3.3769  -21.9220  -50.4802 S.3       23 UNK        -0.2404 
     17 C17         3.1691  -21.2972  -48.7769 C.3       23 UNK        -0.0398 
     18 CA          2.1328  -22.1025  -47.9596 C.3       11 UNK         0.1400 
     19 N           2.2369  -21.7862  -46.5339 N.am      11 UNK        -0.5000 
     20 C           1.6179  -22.4371  -45.5438 C.2       10 UNK         0.5000 
     21 O           0.8315  -23.3634  -45.7302 O.2       10 UNK        -0.5000 
     22 CA          1.9028  -21.9767  -44.1054 C.3       10 UNK         0.1400 
     23 CB          3.1844  -22.6259  -43.5532 C.3       10 UNK        -0.1800 
     24 N           1.9161  -20.5229  -43.9245 N.am      10 UNK        -0.5000 
     25 C           2.7796  -19.5973  -44.3660 C.2       9 UNK         0.5000 
     26 O           3.7356  -19.8386  -45.1038 O.2       9 UNK        -0.5000 
     27 CA          2.5093  -18.1499  -43.9104 C.3       9 UNK         0.1400 
     28 CB          1.6675  -17.4182  -44.9645 C.3       9 UNK        -0.1800 
     29 N           1.8051  -18.0908  -42.6284 N.am      9 UNK        -0.5000 
     30 C           2.3116  -18.4649  -41.4452 C.2       8 UNK         0.5000 
     31 O           3.4883  -18.7823  -41.2700 O.2       8 UNK        -0.5000 
     32 CA          1.3152  -18.5520  -40.2758 C.3       8 UNK         0.1400 
     33 CB          1.0981  -17.1796  -39.6201 C.3       8 UNK        -0.1800 
     34 N           0.0268  -19.0958  -40.7114 N.am      8 UNK        -0.5000 
     35 C          -0.2189  -20.3982  -40.9117 C.2       7 UNK         0.5000 
     36 O           0.6054  -21.2877  -40.7028 O.2       7 UNK        -0.5000 
     37 CA         -1.6123  -20.7766  -41.4484 C.3       7 UNK         0.1400 
     38 CB         -2.5702  -21.0849  -40.2884 C.3       7 UNK        -0.1800 
     39 N          -2.2029  -19.7355  -42.2909 N.am      7 UNK        -0.5000 
     40 C          -1.8514  -19.4943  -43.5611 C.2       6 UNK         0.5000 
     41 O          -1.0165  -20.1544  -44.1798 O.2       6 UNK        -0.5000 
     42 CA         -2.5269  -18.2914  -44.2486 C.3       6 UNK         0.1400 
     43 CB         -3.8239  -18.7350  -44.9427 C.3       6 UNK        -0.1800 
     44 N          -2.8104  -17.1577  -43.3598 N.am      6 UNK        -0.5000 
     45 C          -1.8846  -16.5018  -42.6479 C.2       5 UNK         0.5000 
     46 O          -0.7033  -16.8486  -42.5941 O.2       5 UNK        -0.5000 
     47 CA         -2.3643  -15.2996  -41.8134 C.3       5 UNK         0.1400 
     48 CB         -3.0453  -15.7878  -40.5250 C.3       5 UNK        -0.1800 
     49 N          -1.2468  -14.4279  -41.4466 N.am      5 UNK        -0.5000 
     50 C          -0.5677  -13.6563  -42.3041 C.2       4 UNK         0.5000 
     51 O          -0.8901  -13.4876  -43.4828 O.2       4 UNK        -0.5000 
     52 CA          0.7169  -13.0097  -41.7524 C.3       4 UNK         0.1400 
     53 CB          1.9231  -13.9214  -42.0263 C.3       4 UNK        -0.1800 
     54 N           0.9862  -11.7008  -42.3421 N.am      4 UNK        -0.5000 
     55 C           0.2422  -10.5998  -42.1911 C.2       3 UNK         0.5000 
     56 O          -0.7536  -10.5504  -41.4672 O.2       3 UNK        -0.5000 
     57 CA          0.6632   -9.3357  -42.9736 C.3       3 UNK         0.1400 
     58 CB          1.5109   -8.3961  -42.0941 C.3       3 UNK        -0.1800 
     59 N           1.3117   -9.5857  -44.2715 N.am      3 UNK        -0.5000 
     60 C           2.5071  -10.1332  -44.5297 C.2       2 UNK         0.5000 
     61 O           3.2839  -10.5388  -43.6635 O.2       2 UNK        -0.5000 
     62 CA          2.8621  -10.3268  -46.0151 C.3       2 UNK         0.1400 
     63 CB          4.2949   -9.8597  -46.3198 C.3       2 UNK        -0.1800 
     64 N           2.7294  -11.7331  -46.3907 N.am      2 UNK        -0.5000 
     65 C           1.5749  -12.4114  -46.4585 C.2       1 UNK         0.5000 
     66 O           0.4775  -11.8761  -46.2973 O.2       1 UNK        -0.5000 
     67 C           0.6908  -21.9516  -48.4960 C.2       11 UNK         0.5000 
     68 O           0.2275  -22.8142  -49.2423 O.2       11 UNK        -0.5000 
     69 N          -0.0184  -20.9009  -48.0598 N.am      12 UNK        -0.5000 
     70 CA         -1.4176  -20.6640  -48.4196 C.3       12 UNK         0.1400 
     71 CB         -1.8150  -19.2379  -48.0222 C.3       12 UNK        -0.1800 
     72 C          -2.3783  -21.7002  -47.8063 C.2       12 UNK         0.5000 
     73 O          -3.3358  -22.0996  -48.4688 O.2       12 UNK        -0.5000 
     74 N          -2.0911  -22.1448  -46.5741 N.am      13 UNK        -0.5000 
     75 CA         -2.8195  -23.2260  -45.9094 C.3       13 UNK         0.1400 
     76 CB         -2.4992  -23.2322  -44.4081 C.3       13 UNK        -0.1800 
     77 C          -2.5337  -24.5974  -46.5474 C.2       13 UNK         0.5000 
     78 O          -3.4662  -25.3753  -46.7455 O.2       13 UNK        -0.5000 
     79 N          -1.2665  -24.8546  -46.9027 N.am      14 UNK        -0.5000 
     80 CA         -0.8155  -26.0626  -47.6010 C.3       14 UNK         0.1400 
     81 CB          0.7192  -26.0805  -47.6572 C.3       14 UNK        -0.1800 
     82 C          -1.4130  -26.2057  -49.0144 C.2       14 UNK         0.5000 
     83 O          -1.6713  -27.3267  -49.4534 O.2       14 UNK        -0.5000 
     84 N          -1.6639  -25.0697  -49.6805 N.am      15 UNK        -0.5000 
     85 CA         -2.3721  -24.9771  -50.9591 C.3       15 UNK         0.1400 
     86 CB         -2.1354  -23.5802  -51.5564 C.3       15 UNK        -0.1800 
     87 C          -3.8832  -25.2857  -50.8548 C.2       15 UNK         0.5000 
     88 O          -4.5265  -25.4710  -51.8877 O.2       15 UNK        -0.5000 
     89 N          -4.4236  -25.3370  -49.6269 N.am      16 UNK        -0.5000 
     90 CA         -5.7910  -25.6832  -49.2190 C.3       16 UNK         0.1400 
     91 CB         -6.1738  -27.1067  -49.6675 C.3       16 UNK        -0.1800 
     92 C          -6.8550  -24.6527  -49.6339 C.2       16 UNK         0.5000 
     93 O          -7.5705  -24.1403  -48.7728 O.2       16 UNK        -0.5000 
     94 N          -6.9310  -24.3536  -50.9347 N.am      17 UNK        -0.5000 
     95 CA         -7.8368  -23.3621  -51.5187 C.3       17 UNK         0.1400 
     96 CB         -8.2549  -23.8385  -52.9187 C.3       17 UNK        -0.1800 
     97 C          -7.2089  -21.9541  -51.5736 C.2       17 UNK         0.5000 
     98 O          -7.8618  -21.0235  -52.0493 O.2       17 UNK        -0.5000 
     99 N          -5.9583  -21.8239  -51.1022 N.am      18 UNK        -0.5000 
    100 CA        -5.1390  -20.6121  -51.0686 C.3       18 UNK         0.1400 
    101 CB        -5.6614  -19.6332  -49.9946 C.3       18 UNK        -0.1800 
    102 C         -4.9864  -20.0026  -52.4749 C.2       18 UNK         0.5000 
    103 O         -4.4746  -20.6872  -53.3626 O.2       18 UNK        -0.5000 
    104 N         -5.4378  -18.7546  -52.6626 N.am      19 UNK        -0.5000 
    105 CA        -5.3516  -17.9830  -53.9065 C.3       19 UNK         0.1400 
    106 CB        -6.0075  -16.6113  -53.6897 C.3       19 UNK        -0.1800 
    107 C         -5.9610  -18.6803  -55.1375 C.2       19 UNK         0.5000 
    108 O         -5.4562  -18.5006  -56.2457 O.2       19 UNK        -0.5000 
    109 N         -7.0063  -19.4907  -54.9236 N.am      20 UNK        -0.5000 
    110 CA        -7.6520  -20.2865  -55.9675 C.3       20 UNK         0.1400 
    111 CB        -9.0246  -20.7543  -55.4633 C.3       20 UNK        -0.1800 
    112 C         -6.8017  -21.4822  -56.4448 C.2       20 UNK         0.5000 
    113 O         -7.0438  -21.9807  -57.5448 O.2       20 UNK        -0.5000 
    114 N         -5.8304  -21.9184  -55.6304 N.am      21 UNK        -0.5000 
    115 CA        -4.8871  -22.9820  -55.9644 C.3       21 UNK         0.1400 
    116 CB        -4.6405  -23.8684  -54.7337 C.3       21 UNK        -0.1800 
    117 C         -3.5695  -22.4099  -56.5096 C.2       21 UNK         0.5000 
    118 O         -3.1164  -22.8607  -57.5630 O.2       21 UNK        -0.5000 
    119 N         -2.9710  -21.4435  -55.7970 N.am      22 UNK        -0.5000 
    120 CA        -1.6876  -20.8296  -56.1886 C.3       22 UNK         0.1400 
    121 C         -1.7775  -19.7679  -57.3243 C.2       22 UNK         0.5000 
    122 N         -2.9410  -19.2116  -57.6373 N.am      22 UNK        -0.7600 
    123 O         -0.7683  -19.4573  -57.9517 O.2       22 UNK        -0.5000 
    124 C124       -0.8635  -20.3238  -54.9757 C.3       23 UNK        -0.0398 
    125 S125       -1.6862  -19.0106  -54.0122 S.3       23 UNK        -0.2404 
    126 C126       -1.4644  -19.5995  -52.3058 C.3       23 UNK        -0.0205 
    127 H127        5.4488  -16.2594  -46.4969 H         1 UNK         0.0600 
    128 H128        5.2548  -15.2394  -47.9249 H         1 UNK         0.0600 
    129 H129        6.0847  -14.6106  -46.4978 H         1 UNK         0.0600 
    130 H130        3.1914  -14.4344  -48.1215 H         1 UNK         0.3000 
    131 H131        1.3376  -14.4306  -45.8646 H         1 UNK         0.0600 
    132 H132        0.7901  -13.7276  -48.7845 H         1 UNK         0.0800 
    133 H133       -0.3988  -14.0291  -47.5481 H         1 UNK         0.0800 
    134 H134        0.7061  -15.3618  -50.5573 H         1 UNK         0.0800 
    135 H135        2.2902  -15.7313  -49.9162 H         1 UNK         0.0800 
    136 H136       -0.9166  -17.2627  -51.0508 H         1 UNK         0.1150 
    137 H137        0.9397  -20.9164  -52.3141 H         1 UNK         0.1150 
    138 H138        3.2438  -17.9221  -50.2816 H         1 UNK         0.1150 
    139 H139        3.6173  -20.6304  -52.4950 H         1 UNK         0.0800 
    140 H140        4.3616  -19.8265  -51.1375 H         1 UNK         0.0800 
    141 H141        2.9117  -20.2380  -48.7760 H         1 UNK         0.0800 
    142 H142        4.1465  -21.3621  -48.2967 H         1 UNK         0.0800 
    143 H143        2.3935  -23.1586  -48.0539 H         1 UNK         0.0600 
    144 H144        2.8740  -21.0405  -46.2665 H         1 UNK         0.3000 
    145 H145        1.0697  -22.3335  -43.4976 H         1 UNK         0.0600 
    146 H146        3.3429  -22.3528  -42.5097 H         1 UNK         0.0600 
    147 H147        3.1189  -23.7136  -43.5989 H         1 UNK         0.0600 
    148 H148        4.0694  -22.3291  -44.1165 H         1 UNK         0.0600 
    149 H149        1.1126  -20.1701  -43.4221 H         1 UNK         0.3000 
    150 H150        3.4669  -17.6360  -43.8051 H         1 UNK         0.0600 
    151 H151        2.1956  -17.3635  -45.9170 H         1 UNK         0.0600 
    152 H152        1.4513  -16.3981  -44.6491 H         1 UNK         0.0600 
    153 H153        0.7153  -17.9191  -45.1427 H         1 UNK         0.0600 
    154 H154        0.8414  -17.7623  -42.6580 H         1 UNK         0.3000 
    155 H155        1.7437  -19.2176  -39.5232 H         1 UNK         0.0600 
    156 H156        0.6077  -16.4808  -40.2959 H         1 UNK         0.0600 
    157 H157        2.0472  -16.7354  -39.3175 H         1 UNK         0.0600 
    158 H158        0.4798  -17.2664  -38.7267 H         1 UNK         0.0600 
    159 H159       -0.6769  -18.4226  -40.9791 H         1 UNK         0.3000 
    160 H160       -1.4963  -21.6853  -42.0421 H         1 UNK         0.0600 
    161 H161       -3.5378  -21.4260  -40.6572 H         1 UNK         0.0600 
    162 H162       -2.7388  -20.2092  -39.6604 H         1 UNK         0.0600 
    163 H163       -2.1702  -21.8745  -39.6508 H         1 UNK         0.0600 
    164 H164       -2.9059  -19.1482  -41.8671 H         1 UNK         0.3000 
    165 H165       -1.8344  -17.9280  -45.0091 H         1 UNK         0.0600 
    166 H166       -4.2296  -17.9384  -45.5666 H         1 UNK         0.0600 
    167 H167       -3.6521  -19.5965  -45.5895 H         1 UNK         0.0600 
    168 H168       -4.5892  -19.0199  -44.2199 H         1 UNK         0.0600 
    169 H169       -3.7659  -16.8313  -43.3397 H         1 UNK         0.3000 
    170 H170       -3.0807  -14.7249  -42.4040 H         1 UNK         0.0600 
    171 H171       -3.9109  -16.4128  -40.7478 H         1 UNK         0.0600 
    172 H172       -2.3656  -16.3766  -39.9071 H         1 UNK         0.0600 
    173 H173       -3.4006  -14.9493  -39.9256 H         1 UNK         0.0600 
    174 H174       -0.8988  -14.5287  -40.5050 H         1 UNK         0.3000 
    175 H175        0.6126  -12.8779  -40.6736 H         1 UNK         0.0600 
    176 H176        2.0766  -14.0636  -43.0964 H         1 UNK         0.0600 
    177 H177        2.8399  -13.5052  -41.6085 H         1 UNK         0.0600 
    178 H178        1.7838  -14.9089  -41.5872 H         1 UNK         0.0600 
    179 H179        1.8110  -11.6238  -42.9260 H         1 UNK         0.3000 
    180 H180       -0.2612   -8.8073  -43.2120 H         1 UNK         0.0600 
    181 H181        2.4439   -8.8630  -41.7778 H         1 UNK         0.0600 
    182 H182        0.9676   -8.1160  -41.1908 H         1 UNK         0.0600 
    183 H183        1.7575   -7.4755  -42.6230 H         1 UNK         0.0600 
    184 H184        0.7284   -9.3738  -45.0698 H         1 UNK         0.3000 
    185 H185        2.1773   -9.7358  -46.6272 H         1 UNK         0.0600 
    186 H186        5.0370  -10.4431  -45.7731 H         1 UNK         0.0600 
    187 H187        4.5193   -9.9453  -47.3832 H         1 UNK         0.0600 
    188 H188        4.4302   -8.8136  -46.0423 H         1 UNK         0.0600 
    189 H189        3.5869  -12.2521  -46.5079 H         1 UNK         0.3000 
    190 H190        0.4145  -20.2431  -47.4290 H         1 UNK         0.3000 
    191 H191       -1.5061  -20.7457  -49.5047 H         1 UNK         0.0600 
    192 H192       -1.6220  -19.0550  -46.9674 H         1 UNK         0.0600 
    193 H193       -2.8741  -19.0537  -48.2074 H         1 UNK         0.0600 
    194 H194       -1.2526  -18.5014  -48.5940 H         1 UNK         0.0600 
    195 H195       -1.2897  -21.7676  -46.0869 H         1 UNK         0.3000 
    196 H196       -3.8891  -23.0332  -46.0181 H         1 UNK         0.0600 
    197 H197       -1.4278  -23.3000  -44.2194 H         1 UNK         0.0600 
    198 H198       -2.9764  -24.0760  -43.9082 H         1 UNK         0.0600 
    199 H199       -2.8704  -22.3259  -43.9317 H         1 UNK         0.0600 
    200 H200       -0.5433  -24.1877  -46.6421 H         1 UNK         0.3000 
    201 H201       -1.1442  -26.9240  -47.0161 H         1 UNK         0.0600 
    202 H202        1.1519  -26.0382  -46.6575 H         1 UNK         0.0600 
    203 H203        1.1095  -25.2380  -48.2277 H         1 UNK         0.0600 
    204 H204        1.0820  -26.9935  -48.1307 H         1 UNK         0.0600 
    205 H205       -1.3311  -24.1976  -49.2837 H         1 UNK         0.3000 
    206 H206       -1.9390  -25.7133  -51.6391 H         1 UNK         0.0600 
    207 H207       -1.0705  -23.3691  -51.6572 H         1 UNK         0.0600 
    208 H208       -2.5716  -23.4970  -52.5508 H         1 UNK         0.0600 
    209 H209       -2.5729  -22.7980  -50.9378 H         1 UNK         0.0600 
    210 H210       -3.8046  -25.1494  -48.8472 H         1 UNK         0.3000 
    211 H211       -5.7759  -25.6872  -48.1283 H         1 UNK         0.0600 
    212 H212       -6.2227  -27.1986  -50.7527 H         1 UNK         0.0600 
    213 H213       -7.1515  -27.3872  -49.2740 H         1 UNK         0.0600 
    214 H214       -5.4540  -27.8392  -49.3019 H         1 UNK         0.0600 
    215 H215       -6.2609  -24.7986  -51.5579 H         1 UNK         0.3000 
    216 H216       -8.7385  -23.2936  -50.9070 H         1 UNK         0.0600 
    217 H217       -9.1036  -23.2609  -53.2836 H         1 UNK         0.0600 
    218 H218       -8.5626  -24.8843  -52.9093 H         1 UNK         0.0600 
    219 H219       -7.4481  -23.7299  -53.6422 H         1 UNK         0.0600 
    220 H220       -5.5130  -22.6578  -50.7491 H         1 UNK         0.3000 
    221 H221       -4.1377  -20.9221  -50.7698 H         1 UNK         0.0600 
    222 H222       -6.6754  -19.2911  -50.2045 H         1 UNK         0.0600 
    223 H223       -5.6725  -20.1103  -49.0143 H         1 UNK         0.0600 
    224 H224       -5.0184  -18.7560  -49.9118 H         1 UNK         0.0600 
    225 H225       -5.8727  -18.2871  -51.8809 H         1 UNK         0.3000 
    226 H226       -4.2954  -17.8185  -54.1194 H         1 UNK         0.0600 
    227 H227       -5.5143  -16.0597  -52.8891 H         1 UNK         0.0600 
    228 H228       -5.9423  -15.9999  -54.5908 H         1 UNK         0.0600 
    229 H229       -7.0633  -16.7066  -53.4329 H         1 UNK         0.0600 
    230 H230       -7.3404  -19.6197  -53.9770 H         1 UNK         0.3000 
    231 H231       -7.8166  -19.6431  -56.8346 H         1 UNK         0.0600 
    232 H232       -9.6680  -19.9061  -55.2291 H         1 UNK         0.0600 
    233 H233       -8.9331  -21.3614  -54.5645 H         1 UNK         0.0600 
    234 H234       -9.5379  -21.3538  -56.2162 H         1 UNK         0.0600 
    235 H235       -5.6477  -21.4168  -54.7677 H         1 UNK         0.3000 
    236 H236       -5.3054  -23.6244  -56.7424 H         1 UNK         0.0600 
    237 H237       -3.7788  -24.5216  -54.8774 H         1 UNK         0.0600 
    238 H238       -4.4620  -23.2788  -53.8359 H         1 UNK         0.0600 
    239 H239       -5.4955  -24.5145  -54.5401 H         1 UNK         0.0600 
    240 H240       -3.3998  -21.1065  -54.9396 H         1 UNK         0.3000 
    241 H241       -1.0828  -21.6299  -56.6202 H         1 UNK         0.0600 
    242 H242       -2.9736  -18.5340  -58.3818 H         1 UNK         0.3800 
    243 H243       -3.7762  -19.3808  -57.0908 H         1 UNK         0.3800 
    244 H244       -0.6434  -21.1698  -54.3242 H         1 UNK         0.0800 
    245 H245        0.1086  -19.9495  -55.3012 H         1 UNK         0.0800 
    246 H246       -2.2693  -19.1948  -51.6919 H         1 UNK         0.0800 
    247 H247       -1.5625  -20.6845  -52.2545 H         1 UNK         0.0800 
@<TRIPOS>BOND
     1    1    2 1    
     2    1  127 1    
     3    1  128 1    
     4    1  129 1    
     5    2    3 2    
     6    2    4 am   BACKBONE|DICT|INTERRES
     7    4    5 1    
     8    4  130 1    
     9    5    6 1    
    10    5   65 1    
    11    5  131 1    
    12    6    7 1    
    13    6  132 1    
    14    6  133 1    
    15    7    8 1    
    16    8    9 1    
    17    8  134 1    
    18    8  135 1    
    19    9   10 ar   
    20    9   14 ar   
    21   10   11 ar   
    22   10  136 1    
    23   11   12 ar   
    24   11  126 1    
    25   12   13 ar   
    26   12  137 1    
    27   13   14 ar   
    28   13   15 1    
    29   14  138 1    
    30   15   16 1    
    31   15  139 1    
    32   15  140 1    
    33   16   17 1    
    34   17   18 1    
    35   17  141 1    
    36   17  142 1    
    37   18   19 1    
    38   18   67 1    
    39   18  143 1    
    40   19   20 am   BACKBONE|DICT|INTERRES
    41   19  144 1    
    42   20   21 2    
    43   20   22 1    
    44   22   23 1    
    45   22   24 1    
    46   22  145 1    
    47   23  146 1    
    48   23  147 1    
    49   23  148 1    
    50   24   25 am   BACKBONE|DICT|INTERRES
    51   24  149 1    
    52   25   26 2    
    53   25   27 1    
    54   27   28 1    
    55   27   29 1    
    56   27  150 1    
    57   28  151 1    
    58   28  152 1    
    59   28  153 1    
    60   29   30 am   BACKBONE|DICT|INTERRES
    61   29  154 1    
    62   30   31 2    
    63   30   32 1    
    64   32   33 1    
    65   32   34 1    
    66   32  155 1    
    67   33  156 1    
    68   33  157 1    
    69   33  158 1    
    70   34   35 am   BACKBONE|DICT|INTERRES
    71   34  159 1    
    72   35   36 2    
    73   35   37 1    
    74   37   38 1    
    75   37   39 1    
    76   37  160 1    
    77   38  161 1    
    78   38  162 1    
    79   38  163 1    
    80   39   40 am   BACKBONE|DICT|INTERRES
    81   39  164 1    
    82   40   41 2    
    83   40   42 1    
    84   42   43 1    
    85   42   44 1    
    86   42  165 1    
    87   43  166 1    
    88   43  167 1    
    89   43  168 1    
    90   44   45 am   BACKBONE|DICT|INTERRES
    91   44  169 1    
    92   45   46 2    
    93   45   47 1    
    94   47   48 1    
    95   47   49 1    
    96   47  170 1    
    97   48  171 1    
    98   48  172 1    
    99   48  173 1    
   100   49   50 am   BACKBONE|DICT|INTERRES
   101   49  174 1    
   102   50   51 2    
   103   50   52 1    
   104   52   53 1    
   105   52   54 1    
   106   52  175 1    
   107   53  176 1    
   108   53  177 1    
   109   53  178 1    
   110   54   55 am   BACKBONE|DICT|INTERRES
   111   54  179 1    
   112   55   56 2    
   113   55   57 1    
   114   57   58 1    
   115   57   59 1    
   116   57  180 1    
   117   58  181 1    
   118   58  182 1    
   119   58  183 1    
   120   59   60 am   BACKBONE|DICT|INTERRES
   121   59  184 1    
   122   60   61 2    
   123   60   62 1    
   124   62   63 1    
   125   62   64 1    
   126   62  185 1    
   127   63  186 1    
   128   63  187 1    
   129   63  188 1    
   130   64   65 am   BACKBONE|DICT|INTERRES
   131   64  189 1    
   132   65   66 2    
   133   67   68 2    
   134   67   69 am   BACKBONE|DICT|INTERRES
   135   69   70 1    
   136   69  190 1    
   137   70   71 1    
   138   70   72 1    
   139   70  191 1    
   140   71  192 1    
   141   71  193 1    
   142   71  194 1    
   143   72   73 2    
   144   72   74 am   BACKBONE|DICT|INTERRES
   145   74   75 1    
   146   74  195 1    
   147   75   76 1    
   148   75   77 1    
   149   75  196 1    
   150   76  197 1    
   151   76  198 1    
   152   76  199 1    
   153   77   78 2    
   154   77   79 am   BACKBONE|DICT|INTERRES
   155   79   80 1    
   156   79  200 1    
   157   80   81 1    
   158   80   82 1    
   159   80  201 1    
   160   81  202 1    
   161   81  203 1    
   162   81  204 1    
   163   82   83 2    
   164   82   84 am   BACKBONE|DICT|INTERRES
   165   84   85 1    
   166   84  205 1    
   167   85   86 1    
   168   85   87 1    
   169   85  206 1    
   170   86  207 1    
   171   86  208 1    
   172   86  209 1    
   173   87   88 2    
   174   87   89 am   BACKBONE|DICT|INTERRES
   175   89   90 1    
   176   89  210 1    
   177   90   91 1    
   178   90   92 1    
   179   90  211 1    
   180   91  212 1    
   181   91  213 1    
   182   91  214 1    
   183   92   93 2    
   184   92   94 am   BACKBONE|DICT|INTERRES
   185   94   95 1    
   186   94  215 1    
   187   95   96 1    
   188   95   97 1    
   189   95  216 1    
   190   96  217 1    
   191   96  218 1    
   192   96  219 1    
   193   97   98 2    
   194   97   99 am   BACKBONE|DICT|INTERRES
   195   99  100 1    
   196   99  220 1    
   197  100  101 1    
   198  100  102 1    
   199  100  221 1    
   200  101  222 1    
   201  101  223 1    
   202  101  224 1    
   203  102  103 2    
   204  102  104 am   BACKBONE|DICT|INTERRES
   205  104  105 1    
   206  104  225 1    
   207  105  106 1    
   208  105  107 1    
   209  105  226 1    
   210  106  227 1    
   211  106  228 1    
   212  106  229 1    
   213  107  108 2    
   214  107  109 am   BACKBONE|DICT|INTERRES
   215  109  110 1    
   216  109  230 1    
   217  110  111 1    
   218  110  112 1    
   219  110  231 1    
   220  111  232 1    
   221  111  233 1    
   222  111  234 1    
   223  112  113 2    
   224  112  114 am   BACKBONE|DICT|INTERRES
   225  114  115 1    
   226  114  235 1    
   227  115  116 1    
   228  115  117 1    
   229  115  236 1    
   230  116  237 1    
   231  116  238 1    
   232  116  239 1    
   233  117  118 2    
   234  117  119 am   BACKBONE|DICT|INTERRES
   235  119  120 1    
   236  119  240 1    
   237  120  121 1    
   238  120  124 1    
   239  120  241 1    
   240  121  122 am   BACKBONE|DICT|INTERRES
   241  121  123 2    
   242  122  242 1    
   243  122  243 1    
   244  124  125 1    
   245  124  244 1    
   246  124  245 1    
   247  125  126 1    
   248  126  246 1    
   249  126  247 1    
@<TRIPOS>SUBSTRUCTURE
     1 UNK         1 GROUP             0       ****    0 ROOT    
