@<TRIPOS>MOLECULE
3R540
247   249    1
SMALL
USER_CHARGES


@<TRIPOS>ATOM
      1 CA          3.1763  -16.1260  -46.9691 C.3       0 UNK        -0.1800 
      2 C           2.0063  -15.1954  -46.6886 C.2       0 UNK         0.5000 
      3 O           1.8632  -14.7145  -45.5671 O.2       0 UNK        -0.5000 
      4 N           1.1792  -14.9253  -47.7067 N.am      1 UNK        -0.5000 
      5 CA         -0.0601  -14.1342  -47.6272 C.3       1 UNK         0.1400 
      6 C6         -0.8380  -14.1193  -48.9695 C.3       23 UNK        -0.0398 
      7 S7         -1.0720  -15.7813  -49.6862 S.3       23 UNK        -0.2404 
      8 C8          0.1770  -15.7501  -51.0141 C.3       23 UNK        -0.0205 
      9 C9          0.6203  -17.1528  -51.3943 C.ar      23 UNK        -0.0193 
     10 C10         0.2898  -17.6966  -52.6374 C.ar      23 UNK        -0.1150 
     11 C11         0.7116  -18.9843  -52.9819 C.ar      23 UNK        -0.0193 
     12 C12         1.4493  -19.7369  -52.0624 C.ar      23 UNK        -0.1150 
     13 C13         1.7854  -19.2072  -50.8118 C.ar      23 UNK        -0.0193 
     14 C14         1.3842  -17.9035  -50.4985 C.ar      23 UNK        -0.1150 
     15 C15         2.5845  -20.0599  -49.8244 C.3       23 UNK        -0.0205 
     16 S16         2.2539  -19.7149  -48.0573 S.3       23 UNK        -0.2404 
     17 C17         0.4578  -20.0131  -47.9590 C.3       23 UNK        -0.0398 
     18 CA          0.1309  -21.4060  -47.3837 C.3       11 UNK         0.1400 
     19 N           0.3836  -21.4891  -45.9423 N.am      11 UNK        -0.5000 
     20 C           0.3585  -22.6268  -45.2358 C.2       10 UNK         0.5000 
     21 O           0.1652  -23.7335  -45.7360 O.2       10 UNK        -0.5000 
     22 CA          0.5025  -22.5080  -43.7093 C.3       10 UNK         0.1400 
     23 CB          1.9720  -22.3201  -43.3051 C.3       10 UNK        -0.1800 
     24 N          -0.3197  -21.4296  -43.1585 N.am      10 UNK        -0.5000 
     25 C          -1.6597  -21.4033  -43.2146 C.2       9 UNK         0.5000 
     26 O          -2.3385  -22.3168  -43.6825 O.2       9 UNK        -0.5000 
     27 CA         -2.3629  -20.1348  -42.7002 C.3       9 UNK         0.1400 
     28 CB         -2.5313  -20.1916  -41.1750 C.3       9 UNK        -0.1800 
     29 N          -1.6712  -18.9018  -43.0795 N.am      9 UNK        -0.5000 
     30 C          -1.4992  -18.4775  -44.3405 C.2       8 UNK         0.5000 
     31 O          -1.9409  -19.0675  -45.3258 O.2       8 UNK        -0.5000 
     32 CA         -0.6353  -17.2173  -44.5396 C.3       8 UNK         0.1400 
     33 CB         -1.4288  -15.9404  -44.2271 C.3       8 UNK        -0.1800 
     34 N           0.5818  -17.2487  -43.7306 N.am      8 UNK        -0.5000 
     35 C           1.5437  -18.1744  -43.8475 C.2       7 UNK         0.5000 
     36 O           1.5305  -19.0749  -44.6863 O.2       7 UNK        -0.5000 
     37 CA          2.6747  -18.1221  -42.8084 C.3       7 UNK         0.1400 
     38 CB          3.7193  -17.0574  -43.1773 C.3       7 UNK        -0.1800 
     39 N           2.1526  -17.8669  -41.4648 N.am      7 UNK        -0.5000 
     40 C           1.4551  -18.7600  -40.7474 C.2       6 UNK         0.5000 
     41 O           1.2145  -19.9034  -41.1322 O.2       6 UNK        -0.5000 
     42 CA          0.9060  -18.2912  -39.3867 C.3       6 UNK         0.1400 
     43 CB          1.9717  -18.4485  -38.2919 C.3       6 UNK        -0.1800 
     44 N           0.4377  -16.9056  -39.4085 N.am      6 UNK        -0.5000 
     45 C          -0.6172  -16.4693  -40.1115 C.2       5 UNK         0.5000 
     46 O          -1.3418  -17.2021  -40.7819 O.2       5 UNK        -0.5000 
     47 CA         -0.8701  -14.9493  -40.1106 C.3       5 UNK         0.1400 
     48 CB         -1.7810  -14.5543  -38.9390 C.3       5 UNK        -0.1800 
     49 N           0.3620  -14.1555  -40.0595 N.am      5 UNK        -0.5000 
     50 C           1.3366  -14.2090  -40.9768 C.2       4 UNK         0.5000 
     51 O           1.3050  -14.9522  -41.9604 O.2       4 UNK        -0.5000 
     52 CA          2.5830  -13.3501  -40.6968 C.3       4 UNK         0.1400 
     53 CB          3.5328  -14.0976  -39.7469 C.3       4 UNK        -0.1800 
     54 N           3.3152  -13.0197  -41.9184 N.am      4 UNK        -0.5000 
     55 C           2.8630  -12.2231  -42.8948 C.2       3 UNK         0.5000 
     56 O           1.7949  -11.6090  -42.8262 O.2       3 UNK        -0.5000 
     57 CA          3.7702  -12.0569  -44.1320 C.3       3 UNK         0.1400 
     58 CB          4.7481  -13.2302  -44.3491 C.3       3 UNK        -0.1800 
     59 N           2.9565  -11.8973  -45.3344 N.am      3 UNK        -0.5000 
     60 C           2.6299  -10.7256  -45.8963 C.2       2 UNK         0.5000 
     61 O           3.0176   -9.6364  -45.4695 O.2       2 UNK        -0.5000 
     62 CA          1.7476  -10.7583  -47.1616 C.3       2 UNK         0.1400 
     63 CB          2.4979  -10.1546  -48.3611 C.3       2 UNK        -0.1800 
     64 N           1.3196  -12.1103  -47.5234 N.am      2 UNK        -0.5000 
     65 C           0.1686  -12.6836  -47.1482 C.2       1 UNK         0.5000 
     66 O          -0.6879  -12.1240  -46.4632 O.2       1 UNK        -0.5000 
     67 C          -1.3081  -21.8196  -47.7529 C.2       11 UNK         0.5000 
     68 O          -1.4950  -22.5135  -48.7523 O.2       11 UNK        -0.5000 
     69 N          -2.2991  -21.4237  -46.9442 N.am      12 UNK        -0.5000 
     70 CA         -3.6996  -21.8165  -47.1169 C.3       12 UNK         0.1400 
     71 CB         -4.5894  -20.9818  -46.1854 C.3       12 UNK        -0.1800 
     72 C          -3.9416  -23.3249  -46.9096 C.2       12 UNK         0.5000 
     73 O          -4.8607  -23.8757  -47.5145 O.2       12 UNK        -0.5000 
     74 N          -3.1115  -23.9698  -46.0813 N.am      13 UNK        -0.5000 
     75 CA         -3.1283  -25.4111  -45.8563 C.3       13 UNK         0.1400 
     76 CB         -2.5620  -25.7159  -44.4597 C.3       13 UNK        -0.1800 
     77 C          -2.3534  -26.1730  -46.9468 C.2       13 UNK         0.5000 
     78 O          -2.9021  -27.0997  -47.5437 O.2       13 UNK        -0.5000 
     79 N          -1.0855  -25.7970  -47.1623 N.am      14 UNK        -0.5000 
     80 CA         -0.1358  -26.5467  -47.9847 C.3       14 UNK         0.1400 
     81 CB          1.2968  -26.2311  -47.5248 C.3       14 UNK        -0.1800 
     82 C          -0.2881  -26.2831  -49.4906 C.2       14 UNK         0.5000 
     83 O          -0.3561  -27.2366  -50.2674 O.2       14 UNK        -0.5000 
     84 N          -0.3127  -25.0023  -49.8798 N.am      15 UNK        -0.5000 
     85 CA         -0.3730  -24.5725  -51.2802 C.3       15 UNK         0.1400 
     86 CB          0.4490  -23.2820  -51.4447 C.3       15 UNK        -0.1800 
     87 C          -1.8157  -24.3514  -51.7657 C.2       15 UNK         0.5000 
     88 O          -2.0401  -24.2960  -52.9748 O.2       15 UNK        -0.5000 
     89 N          -2.7518  -24.2050  -50.8167 N.am      16 UNK        -0.5000 
     90 CA         -4.1392  -23.7802  -51.0068 C.3       16 UNK         0.1400 
     91 CB         -4.9856  -24.8686  -51.6968 C.3       16 UNK        -0.1800 
     92 C          -4.2320  -22.3623  -51.6088 C.2       16 UNK         0.5000 
     93 O          -5.0132  -22.0980  -52.5278 O.2       16 UNK        -0.5000 
     94 N          -3.4235  -21.4618  -51.0310 N.am      17 UNK        -0.5000 
     95 CA         -3.5181  -20.0139  -51.2041 C.3       17 UNK         0.1400 
     96 CB         -2.2931  -19.3606  -50.5550 C.3       17 UNK        -0.1800 
     97 C          -4.8181  -19.4670  -50.5812 C.2       17 UNK         0.5000 
     98 O          -5.4311  -20.1376  -49.7474 O.2       17 UNK        -0.5000 
     99 N          -5.2476  -18.2794  -51.0295 N.am      18 UNK        -0.5000 
    100 CA        -6.5170  -17.5957  -50.7149 C.3       18 UNK         0.1400 
    101 CB        -6.6880  -17.3487  -49.2032 C.3       18 UNK        -0.1800 
    102 C         -7.7570  -18.2860  -51.3249 C.2       18 UNK         0.5000 
    103 O         -8.6404  -17.5995  -51.8386 O.2       18 UNK        -0.5000 
    104 N         -7.7620  -19.6259  -51.3388 N.am      19 UNK        -0.5000 
    105 CA        -8.6392  -20.4740  -52.1506 C.3       19 UNK         0.1400 
    106 CB        -8.5691  -21.9135  -51.6172 C.3       19 UNK        -0.1800 
    107 C         -8.2823  -20.4291  -53.6543 C.2       19 UNK         0.5000 
    108 O         -9.0971  -20.8412  -54.4804 O.2       19 UNK        -0.5000 
    109 N         -7.0871  -19.9061  -53.9710 N.am      20 UNK        -0.5000 
    110 CA        -6.5485  -19.6176  -55.3015 C.3       20 UNK         0.1400 
    111 CB        -7.4159  -18.5727  -56.0351 C.3       20 UNK        -0.1800 
    112 C         -6.2710  -20.8799  -56.1393 C.2       20 UNK         0.5000 
    113 O         -6.4929  -20.8783  -57.3515 O.2       20 UNK        -0.5000 
    114 N         -5.7500  -21.9283  -55.4866 N.am      21 UNK        -0.5000 
    115 CA        -5.2745  -23.1457  -56.1521 C.3       21 UNK         0.1400 
    116 CB        -5.2403  -24.2850  -55.1306 C.3       21 UNK        -0.1800 
    117 C         -3.8812  -22.9746  -56.7949 C.2       21 UNK         0.5000 
    118 O         -3.4750  -23.8319  -57.5809 O.2       21 UNK        -0.5000 
    119 N         -3.1783  -21.8908  -56.4355 N.am      22 UNK        -0.5000 
    120 CA        -1.8617  -21.4719  -56.9389 C.3       22 UNK         0.1400 
    121 C         -1.7720  -21.4294  -58.4924 C.2       22 UNK         0.5000 
    122 N         -0.7007  -21.9509  -59.0748 N.am      22 UNK        -0.7600 
    123 O         -2.6409  -20.8818  -59.1676 O.2       22 UNK        -0.5000 
    124 C124       -1.4755  -20.0845  -56.3665 C.3       23 UNK        -0.0398 
    125 S125       -1.3296  -20.0477  -54.5439 S.3       23 UNK        -0.2404 
    126 C126        0.4084  -19.5332  -54.3670 C.3       23 UNK        -0.0205 
    127 H127        4.1063  -15.6782  -46.6191 H         1 UNK         0.0600 
    128 H128        3.0329  -17.0709  -46.4452 H         1 UNK         0.0600 
    129 H129        3.2808  -16.3392  -48.0329 H         1 UNK         0.0600 
    130 H130        1.3463  -15.3618  -48.6003 H         1 UNK         0.3000 
    131 H131       -0.6919  -14.6208  -46.8817 H         1 UNK         0.0600 
    132 H132       -1.8278  -13.6841  -48.8197 H         1 UNK         0.0800 
    133 H133       -0.3416  -13.4804  -49.7026 H         1 UNK         0.0800 
    134 H134        1.0540  -15.1837  -50.6987 H         1 UNK         0.0800 
    135 H135       -0.2344  -15.2234  -51.8766 H         1 UNK         0.0800 
    136 H136       -0.2866  -17.1165  -53.3443 H         1 UNK         0.1150 
    137 H137        1.7724  -20.7340  -52.3260 H         1 UNK         0.1150 
    138 H138        1.6445  -17.4726  -49.5436 H         1 UNK         0.1150 
    139 H139        2.3887  -21.1180  -50.0045 H         1 UNK         0.0800 
    140 H140        3.6468  -19.9048  -50.0155 H         1 UNK         0.0800 
    141 H141        0.0311  -19.8972  -48.9540 H         1 UNK         0.0800 
    142 H142        0.0069  -19.2277  -47.3502 H         1 UNK         0.0800 
    143 H143        0.7871  -22.1320  -47.8692 H         1 UNK         0.0600 
    144 H144        0.5999  -20.6175  -45.4659 H         1 UNK         0.3000 
    145 H145        0.1532  -23.4457  -43.2722 H         1 UNK         0.0600 
    146 H146        2.0846  -22.3178  -42.2209 H         1 UNK         0.0600 
    147 H147        2.5891  -23.1310  -43.6938 H         1 UNK         0.0600 
    148 H148        2.3823  -21.3854  -43.6860 H         1 UNK         0.0600 
    149 H149        0.1720  -20.6668  -42.7054 H         1 UNK         0.3000 
    150 H150       -3.3583  -20.1045  -43.1472 H         1 UNK         0.0600 
    151 H151       -3.0532  -21.1003  -40.8726 H         1 UNK         0.0600 
    152 H152       -3.1153  -19.3461  -40.8115 H         1 UNK         0.0600 
    153 H153       -1.5688  -20.1790  -40.6632 H         1 UNK         0.0600 
    154 H154       -1.3229  -18.3277  -42.3163 H         1 UNK         0.3000 
    155 H155       -0.3328  -17.1805  -45.5883 H         1 UNK         0.0600 
    156 H156       -1.7821  -15.9265  -43.1962 H         1 UNK         0.0600 
    157 H157       -2.3015  -15.8563  -44.8757 H         1 UNK         0.0600 
    158 H158       -0.8183  -15.0500  -44.3816 H         1 UNK         0.0600 
    159 H159        0.7033  -16.5070  -43.0473 H         1 UNK         0.3000 
    160 H160        3.1726  -19.0940  -42.8031 H         1 UNK         0.0600 
    161 H161        4.5224  -17.0179  -42.4415 H         1 UNK         0.0600 
    162 H162        3.2780  -16.0636  -43.2476 H         1 UNK         0.0600 
    163 H163        4.1732  -17.2792  -44.1436 H         1 UNK         0.0600 
    164 H164        2.2341  -16.9211  -41.1214 H         1 UNK         0.3000 
    165 H165        0.0583  -18.9308  -39.1320 H         1 UNK         0.0600 
    166 H166        1.5694  -18.1954  -37.3108 H         1 UNK         0.0600 
    167 H167        2.3281  -19.4781  -38.2400 H         1 UNK         0.0600 
    168 H168        2.8369  -17.8101  -38.4756 H         1 UNK         0.0600 
    169 H169        0.9757  -16.2328  -38.8834 H         1 UNK         0.3000 
    170 H170       -1.3841  -14.7016  -41.0414 H         1 UNK         0.0600 
    171 H171       -2.7153  -15.1169  -38.9646 H         1 UNK         0.0600 
    172 H172       -1.3070  -14.7487  -37.9760 H         1 UNK         0.0600 
    173 H173       -2.0398  -13.4961  -38.9794 H         1 UNK         0.0600 
    174 H174        0.4634  -13.5335  -39.2703 H         1 UNK         0.3000 
    175 H175        2.2672  -12.4183  -40.2232 H         1 UNK         0.0600 
    176 H176        3.8810  -15.0360  -40.1809 H         1 UNK         0.0600 
    177 H177        4.4087  -13.4934  -39.5094 H         1 UNK         0.0600 
    178 H178        3.0410  -14.3351  -38.8028 H         1 UNK         0.0600 
    179 H179        4.1874  -13.5054  -42.0621 H         1 UNK         0.3000 
    180 H180        4.3687  -11.1591  -43.9659 H         1 UNK         0.0600 
    181 H181        4.2281  -14.1858  -44.4113 H         1 UNK         0.0600 
    182 H182        5.4782  -13.2978  -43.5420 H         1 UNK         0.0600 
    183 H183        5.3120  -13.1022  -45.2732 H         1 UNK         0.0600 
    184 H184        2.5144  -12.7440  -45.6742 H         1 UNK         0.3000 
    185 H185        0.8733  -10.1353  -46.9624 H         1 UNK         0.0600 
    186 H186        2.7972   -9.1251  -48.1604 H         1 UNK         0.0600 
    187 H187        3.4009  -10.7191  -48.5966 H         1 UNK         0.0600 
    188 H188        1.8694  -10.1391  -49.2517 H         1 UNK         0.0600 
    189 H189        1.9690  -12.6552  -48.0723 H         1 UNK         0.3000 
    190 H190       -2.0926  -20.7884  -46.1780 H         1 UNK         0.3000 
    191 H191       -3.9815  -21.5862  -48.1445 H         1 UNK         0.0600 
    192 H192       -4.3575  -21.1646  -45.1366 H         1 UNK         0.0600 
    193 H193       -5.6427  -21.2209  -46.3370 H         1 UNK         0.0600 
    194 H194       -4.4686  -19.9155  -46.3777 H         1 UNK         0.0600 
    195 H195       -2.4217  -23.4323  -45.5703 H         1 UNK         0.3000 
    196 H196       -4.1625  -25.7622  -45.8737 H         1 UNK         0.0600 
    197 H197       -2.5670  -26.7884  -44.2616 H         1 UNK         0.0600 
    198 H198       -3.1591  -25.2381  -43.6827 H         1 UNK         0.0600 
    199 H199       -1.5355  -25.3657  -44.3493 H         1 UNK         0.0600 
    200 H200       -0.7014  -25.0191  -46.6274 H         1 UNK         0.3000 
    201 H201       -0.3037  -27.6131  -47.8180 H         1 UNK         0.0600 
    202 H202        1.4357  -26.4797  -46.4725 H         1 UNK         0.0600 
    203 H203        1.5408  -25.1757  -47.6522 H         1 UNK         0.0600 
    204 H204        2.0264  -26.8077  -48.0946 H         1 UNK         0.0600 
    205 H205       -0.3210  -24.2690  -49.1823 H         1 UNK         0.3000 
    206 H206        0.0753  -25.3352  -51.9205 H         1 UNK         0.0600 
    207 H207        1.4811  -23.4275  -51.1260 H         1 UNK         0.0600 
    208 H208        0.4728  -22.9683  -52.4892 H         1 UNK         0.0600 
    209 H209        0.0334  -22.4543  -50.8700 H         1 UNK         0.0600 
    210 H210       -2.4266  -24.2151  -49.8589 H         1 UNK         0.3000 
    211 H211       -4.5590  -23.6655  -50.0098 H         1 UNK         0.0600 
    212 H212       -4.4897  -25.2961  -52.5651 H         1 UNK         0.0600 
    213 H213       -5.9570  -24.4868  -52.0122 H         1 UNK         0.0600 
    214 H214       -5.1761  -25.6911  -51.0075 H         1 UNK         0.0600 
    215 H215       -2.8043  -21.7843  -50.2976 H         1 UNK         0.3000 
    216 H216       -3.5159  -19.7958  -52.2738 H         1 UNK         0.0600 
    217 H217       -2.2597  -18.2944  -50.7772 H         1 UNK         0.0600 
    218 H218       -1.3686  -19.7969  -50.9330 H         1 UNK         0.0600 
    219 H219       -2.3050  -19.4700  -49.4702 H         1 UNK         0.0600 
    220 H220       -4.6728  -17.7989  -51.7082 H         1 UNK         0.3000 
    221 H221       -6.4432  -16.6173  -51.1925 H         1 UNK         0.0600 
    222 H222       -6.8501  -18.2731  -48.6486 H         1 UNK         0.0600 
    223 H223       -5.8126  -16.8536  -48.7829 H         1 UNK         0.0600 
    224 H224       -7.5482  -16.7058  -49.0133 H         1 UNK         0.0600 
    225 H225       -7.0136  -20.0931  -50.8347 H         1 UNK         0.3000 
    226 H226       -9.6646  -20.1148  -52.0435 H         1 UNK         0.0600 
    227 H227       -8.8751  -21.9619  -50.5721 H         1 UNK         0.0600 
    228 H228       -9.2312  -22.5724  -52.1804 H         1 UNK         0.0600 
    229 H229       -7.5611  -22.3220  -51.6899 H         1 UNK         0.0600 
    230 H230       -6.4908  -19.6533  -53.1980 H         1 UNK         0.3000 
    231 H231       -5.5729  -19.1594  -55.1325 H         1 UNK         0.0600 
    232 H232       -7.5752  -17.6888  -55.4173 H         1 UNK         0.0600 
    233 H233       -8.3931  -18.9733  -56.3058 H         1 UNK         0.0600 
    234 H234       -6.9337  -18.2410  -56.9553 H         1 UNK         0.0600 
    235 H235       -5.6064  -21.8751  -54.4820 H         1 UNK         0.3000 
    236 H236       -5.9784  -23.4173  -56.9415 H         1 UNK         0.0600 
    237 H237       -5.0212  -25.2391  -55.6113 H         1 UNK         0.0600 
    238 H238       -4.4594  -24.1020  -54.3946 H         1 UNK         0.0600 
    239 H239       -6.1916  -24.3880  -54.6083 H         1 UNK         0.0600 
    240 H240       -3.5965  -21.2734  -55.7574 H         1 UNK         0.3000 
    241 H241       -1.1403  -22.2063  -56.5762 H         1 UNK         0.0600 
    242 H242       -0.6236  -21.9145  -60.0796 H         1 UNK         0.3800 
    243 H243        0.0282  -22.3990  -58.5408 H         1 UNK         0.3800 
    244 H244       -0.5334  -19.7526  -56.8060 H         1 UNK         0.0800 
    245 H245       -2.2149  -19.3363  -56.6584 H         1 UNK         0.0800 
    246 H246        1.0572  -20.3790  -54.5997 H         1 UNK         0.0800 
    247 H247        0.6406  -18.7570  -55.0977 H         1 UNK         0.0800 
@<TRIPOS>BOND
     1    1    2 1    
     2    1  127 1    
     3    1  128 1    
     4    1  129 1    
     5    2    3 2    
     6    2    4 am   BACKBONE|DICT|INTERRES
     7    4    5 1    
     8    4  130 1    
     9    5    6 1    
    10    5   65 1    
    11    5  131 1    
    12    6    7 1    
    13    6  132 1    
    14    6  133 1    
    15    7    8 1    
    16    8    9 1    
    17    8  134 1    
    18    8  135 1    
    19    9   10 ar   
    20    9   14 ar   
    21   10   11 ar   
    22   10  136 1    
    23   11   12 ar   
    24   11  126 1    
    25   12   13 ar   
    26   12  137 1    
    27   13   14 ar   
    28   13   15 1    
    29   14  138 1    
    30   15   16 1    
    31   15  139 1    
    32   15  140 1    
    33   16   17 1    
    34   17   18 1    
    35   17  141 1    
    36   17  142 1    
    37   18   19 1    
    38   18   67 1    
    39   18  143 1    
    40   19   20 am   BACKBONE|DICT|INTERRES
    41   19  144 1    
    42   20   21 2    
    43   20   22 1    
    44   22   23 1    
    45   22   24 1    
    46   22  145 1    
    47   23  146 1    
    48   23  147 1    
    49   23  148 1    
    50   24   25 am   BACKBONE|DICT|INTERRES
    51   24  149 1    
    52   25   26 2    
    53   25   27 1    
    54   27   28 1    
    55   27   29 1    
    56   27  150 1    
    57   28  151 1    
    58   28  152 1    
    59   28  153 1    
    60   29   30 am   BACKBONE|DICT|INTERRES
    61   29  154 1    
    62   30   31 2    
    63   30   32 1    
    64   32   33 1    
    65   32   34 1    
    66   32  155 1    
    67   33  156 1    
    68   33  157 1    
    69   33  158 1    
    70   34   35 am   BACKBONE|DICT|INTERRES
    71   34  159 1    
    72   35   36 2    
    73   35   37 1    
    74   37   38 1    
    75   37   39 1    
    76   37  160 1    
    77   38  161 1    
    78   38  162 1    
    79   38  163 1    
    80   39   40 am   BACKBONE|DICT|INTERRES
    81   39  164 1    
    82   40   41 2    
    83   40   42 1    
    84   42   43 1    
    85   42   44 1    
    86   42  165 1    
    87   43  166 1    
    88   43  167 1    
    89   43  168 1    
    90   44   45 am   BACKBONE|DICT|INTERRES
    91   44  169 1    
    92   45   46 2    
    93   45   47 1    
    94   47   48 1    
    95   47   49 1    
    96   47  170 1    
    97   48  171 1    
    98   48  172 1    
    99   48  173 1    
   100   49   50 am   BACKBONE|DICT|INTERRES
   101   49  174 1    
   102   50   51 2    
   103   50   52 1    
   104   52   53 1    
   105   52   54 1    
   106   52  175 1    
   107   53  176 1    
   108   53  177 1    
   109   53  178 1    
   110   54   55 am   BACKBONE|DICT|INTERRES
   111   54  179 1    
   112   55   56 2    
   113   55   57 1    
   114   57   58 1    
   115   57   59 1    
   116   57  180 1    
   117   58  181 1    
   118   58  182 1    
   119   58  183 1    
   120   59   60 am   BACKBONE|DICT|INTERRES
   121   59  184 1    
   122   60   61 2    
   123   60   62 1    
   124   62   63 1    
   125   62   64 1    
   126   62  185 1    
   127   63  186 1    
   128   63  187 1    
   129   63  188 1    
   130   64   65 am   BACKBONE|DICT|INTERRES
   131   64  189 1    
   132   65   66 2    
   133   67   68 2    
   134   67   69 am   BACKBONE|DICT|INTERRES
   135   69   70 1    
   136   69  190 1    
   137   70   71 1    
   138   70   72 1    
   139   70  191 1    
   140   71  192 1    
   141   71  193 1    
   142   71  194 1    
   143   72   73 2    
   144   72   74 am   BACKBONE|DICT|INTERRES
   145   74   75 1    
   146   74  195 1    
   147   75   76 1    
   148   75   77 1    
   149   75  196 1    
   150   76  197 1    
   151   76  198 1    
   152   76  199 1    
   153   77   78 2    
   154   77   79 am   BACKBONE|DICT|INTERRES
   155   79   80 1    
   156   79  200 1    
   157   80   81 1    
   158   80   82 1    
   159   80  201 1    
   160   81  202 1    
   161   81  203 1    
   162   81  204 1    
   163   82   83 2    
   164   82   84 am   BACKBONE|DICT|INTERRES
   165   84   85 1    
   166   84  205 1    
   167   85   86 1    
   168   85   87 1    
   169   85  206 1    
   170   86  207 1    
   171   86  208 1    
   172   86  209 1    
   173   87   88 2    
   174   87   89 am   BACKBONE|DICT|INTERRES
   175   89   90 1    
   176   89  210 1    
   177   90   91 1    
   178   90   92 1    
   179   90  211 1    
   180   91  212 1    
   181   91  213 1    
   182   91  214 1    
   183   92   93 2    
   184   92   94 am   BACKBONE|DICT|INTERRES
   185   94   95 1    
   186   94  215 1    
   187   95   96 1    
   188   95   97 1    
   189   95  216 1    
   190   96  217 1    
   191   96  218 1    
   192   96  219 1    
   193   97   98 2    
   194   97   99 am   BACKBONE|DICT|INTERRES
   195   99  100 1    
   196   99  220 1    
   197  100  101 1    
   198  100  102 1    
   199  100  221 1    
   200  101  222 1    
   201  101  223 1    
   202  101  224 1    
   203  102  103 2    
   204  102  104 am   BACKBONE|DICT|INTERRES
   205  104  105 1    
   206  104  225 1    
   207  105  106 1    
   208  105  107 1    
   209  105  226 1    
   210  106  227 1    
   211  106  228 1    
   212  106  229 1    
   213  107  108 2    
   214  107  109 am   BACKBONE|DICT|INTERRES
   215  109  110 1    
   216  109  230 1    
   217  110  111 1    
   218  110  112 1    
   219  110  231 1    
   220  111  232 1    
   221  111  233 1    
   222  111  234 1    
   223  112  113 2    
   224  112  114 am   BACKBONE|DICT|INTERRES
   225  114  115 1    
   226  114  235 1    
   227  115  116 1    
   228  115  117 1    
   229  115  236 1    
   230  116  237 1    
   231  116  238 1    
   232  116  239 1    
   233  117  118 2    
   234  117  119 am   BACKBONE|DICT|INTERRES
   235  119  120 1    
   236  119  240 1    
   237  120  121 1    
   238  120  124 1    
   239  120  241 1    
   240  121  122 am   BACKBONE|DICT|INTERRES
   241  121  123 2    
   242  122  242 1    
   243  122  243 1    
   244  124  125 1    
   245  124  244 1    
   246  124  245 1    
   247  125  126 1    
   248  126  246 1    
   249  126  247 1    
@<TRIPOS>SUBSTRUCTURE
     1 UNK         1 GROUP             0       ****    0 ROOT    
