@<TRIPOS>MOLECULE
3R540
247   249    1
SMALL
USER_CHARGES


@<TRIPOS>ATOM
      1 CA          0.1072   -9.3982  -49.1087 C.3       0 UNK        -0.1800 
      2 C           0.4439  -10.6830  -48.3666 C.2       0 UNK         0.5000 
      3 O           0.5657  -10.6715  -47.1420 O.2       0 UNK        -0.5000 
      4 N           0.5749  -11.7992  -49.0960 N.am      1 UNK        -0.5000 
      5 CA          0.9174  -13.1265  -48.5632 C.3       1 UNK         0.1400 
      6 C6          1.2681  -14.1301  -49.6872 C.3       23 UNK        -0.0398 
      7 S7         -0.0859  -14.4153  -50.8841 S.3       23 UNK        -0.2404 
      8 C8         -0.6213  -16.0986  -50.4399 C.3       23 UNK        -0.0205 
      9 C9          0.4107  -17.1441  -50.8344 C.ar      23 UNK        -0.0193 
     10 C10         0.5856  -17.4797  -52.1797 C.ar      23 UNK        -0.1150 
     11 C11         1.5208  -18.4479  -52.5555 C.ar      23 UNK        -0.0193 
     12 C12         2.2807  -19.0839  -51.5703 C.ar      23 UNK        -0.1150 
     13 C13         2.1232  -18.7536  -50.2210 C.ar      23 UNK        -0.0193 
     14 C14         1.1873  -17.7780  -49.8600 C.ar      23 UNK        -0.1150 
     15 C15         2.9828  -19.4526  -49.1722 C.3       23 UNK        -0.0205 
     16 S16         2.0573  -20.0372  -47.7140 S.3       23 UNK        -0.2404 
     17 C17         0.7504  -21.0724  -48.4604 C.3       23 UNK        -0.0398 
     18 CA         -0.5916  -21.0519  -47.6909 C.3       11 UNK         0.1400 
     19 N          -0.4774  -21.6081  -46.3388 N.am      11 UNK        -0.5000 
     20 C          -1.5054  -22.1502  -45.6717 C.2       10 UNK         0.5000 
     21 O          -2.6469  -22.2141  -46.1213 O.2       10 UNK        -0.5000 
     22 CA         -1.2207  -22.6900  -44.2603 C.3       10 UNK         0.1400 
     23 CB         -0.4075  -23.9921  -44.3229 C.3       10 UNK        -0.1800 
     24 N          -0.5204  -21.7191  -43.4250 N.am      10 UNK        -0.5000 
     25 C          -1.0369  -20.5552  -43.0046 C.2       9 UNK         0.5000 
     26 O          -2.1872  -20.1876  -43.2433 O.2       9 UNK        -0.5000 
     27 CA         -0.0961  -19.6397  -42.1957 C.3       9 UNK         0.1400 
     28 CB         -0.2694  -19.9108  -40.6941 C.3       9 UNK        -0.1800 
     29 N           1.3164  -19.7848  -42.5716 N.am      9 UNK        -0.5000 
     30 C           1.7950  -19.5037  -43.7955 C.2       8 UNK         0.5000 
     31 O           1.0802  -19.0938  -44.7082 O.2       8 UNK        -0.5000 
     32 CA          3.2913  -19.7391  -44.0793 C.3       8 UNK         0.1400 
     33 CB          3.9955  -18.4297  -44.4612 C.3       8 UNK        -0.1800 
     34 N           4.0023  -20.3525  -42.9598 N.am      8 UNK        -0.5000 
     35 C           4.0741  -21.6720  -42.7364 C.2       7 UNK         0.5000 
     36 O           3.5493  -22.5156  -43.4637 O.2       7 UNK        -0.5000 
     37 CA          4.8362  -22.1271  -41.4741 C.3       7 UNK         0.1400 
     38 CB          6.2879  -22.4877  -41.8237 C.3       7 UNK        -0.1800 
     39 N           4.8369  -21.1333  -40.3960 N.am      7 UNK        -0.5000 
     40 C           3.7385  -20.6948  -39.7677 C.2       6 UNK         0.5000 
     41 O           2.6074  -21.1081  -40.0249 O.2       6 UNK        -0.5000 
     42 CA          3.9012  -19.5860  -38.7089 C.3       6 UNK         0.1400 
     43 CB          5.3627  -19.1538  -38.4492 C.3       6 UNK        -0.1800 
     44 N           3.0626  -18.4282  -39.0380 N.am      6 UNK        -0.5000 
     45 C           3.1384  -17.6652  -40.1385 C.2       5 UNK         0.5000 
     46 O           3.9839  -17.8197  -41.0237 O.2       5 UNK        -0.5000 
     47 CA          2.0784  -16.5576  -40.2687 C.3       5 UNK         0.1400 
     48 CB          2.0495  -15.6360  -39.0343 C.3       5 UNK        -0.1800 
     49 N           2.3312  -15.7414  -41.4543 N.am      5 UNK        -0.5000 
     50 C           1.3932  -15.2859  -42.2903 C.2       4 UNK         0.5000 
     51 O           0.1999  -15.5894  -42.2131 O.2       4 UNK        -0.5000 
     52 CA          1.8818  -14.3194  -43.3895 C.3       4 UNK         0.1400 
     53 CB          2.4896  -15.0811  -44.5763 C.3       4 UNK        -0.1800 
     54 N           0.8139  -13.4397  -43.8718 N.am      4 UNK        -0.5000 
     55 C           0.2713  -12.4473  -43.1477 C.2       3 UNK         0.5000 
     56 O           0.6534  -12.1578  -42.0121 O.2       3 UNK        -0.5000 
     57 CA         -0.8617  -11.6112  -43.7800 C.3       3 UNK         0.1400 
     58 CB         -0.4363  -10.1404  -43.9231 C.3       3 UNK        -0.1800 
     59 N          -1.2814  -12.1071  -45.0907 N.am      3 UNK        -0.5000 
     60 C          -2.2175  -13.0474  -45.2861 C.2       2 UNK         0.5000 
     61 O          -2.8714  -13.5525  -44.3738 O.2       2 UNK        -0.5000 
     62 CA         -2.4690  -13.5124  -46.7374 C.3       2 UNK         0.1400 
     63 CB         -3.7681  -12.9024  -47.2843 C.3       2 UNK        -0.1800 
     64 N          -1.3764  -13.1970  -47.6586 N.am      2 UNK        -0.5000 
     65 C          -0.1364  -13.7011  -47.5895 C.2       1 UNK         0.5000 
     66 O           0.1995  -14.5520  -46.7682 O.2       1 UNK        -0.5000 
     67 C          -1.2905  -19.6743  -47.6994 C.2       11 UNK         0.5000 
     68 O          -1.9912  -19.3625  -48.6621 O.2       11 UNK        -0.5000 
     69 N          -1.1530  -18.9033  -46.6093 N.am      12 UNK        -0.5000 
     70 CA         -1.8511  -17.6349  -46.3838 C.3       12 UNK         0.1400 
     71 CB         -1.3504  -17.0056  -45.0775 C.3       12 UNK        -0.1800 
     72 C          -3.3860  -17.7699  -46.3459 C.2       12 UNK         0.5000 
     73 O          -4.0848  -16.8223  -46.7088 O.2       12 UNK        -0.5000 
     74 N          -3.8888  -18.9437  -45.9374 N.am      13 UNK        -0.5000 
     75 CA         -5.3069  -19.2981  -45.9061 C.3       13 UNK         0.1400 
     76 CB         -5.5038  -20.4848  -44.9466 C.3       13 UNK        -0.1800 
     77 C          -5.8563  -19.5805  -47.3206 C.2       13 UNK         0.5000 
     78 O          -6.1829  -20.7237  -47.6451 O.2       13 UNK        -0.5000 
     79 N          -5.9300  -18.5236  -48.1416 N.am      14 UNK        -0.5000 
     80 CA         -6.4872  -18.4807  -49.4979 C.3       14 UNK         0.1400 
     81 CB         -8.0211  -18.6417  -49.4457 C.3       14 UNK        -0.1800 
     82 C          -5.8158  -19.4851  -50.4558 C.2       14 UNK         0.5000 
     83 O          -6.5036  -20.2817  -51.0973 O.2       14 UNK        -0.5000 
     84 N          -4.4749  -19.4553  -50.5005 N.am      15 UNK        -0.5000 
     85 CA         -3.6130  -20.3546  -51.2783 C.3       15 UNK         0.1400 
     86 CB         -3.8270  -20.1436  -52.7925 C.3       15 UNK        -0.1800 
     87 C          -3.7720  -21.8258  -50.8420 C.2       15 UNK         0.5000 
     88 O          -3.8201  -22.7162  -51.6912 O.2       15 UNK        -0.5000 
     89 N          -3.8940  -22.0393  -49.5226 N.am      16 UNK        -0.5000 
     90 CA         -4.2048  -23.3093  -48.8564 C.3       16 UNK         0.1400 
     91 CB         -3.0315  -24.3038  -48.9956 C.3       16 UNK        -0.1800 
     92 C          -5.5517  -23.8896  -49.3299 C.2       16 UNK         0.5000 
     93 O          -5.6187  -25.0489  -49.7367 O.2       16 UNK        -0.5000 
     94 N          -6.5926  -23.0438  -49.3199 N.am      17 UNK        -0.5000 
     95 CA         -7.9278  -23.2882  -49.8796 C.3       17 UNK         0.1400 
     96 CB         -8.7013  -24.3043  -49.0147 C.3       17 UNK        -0.1800 
     97 C          -7.8645  -23.6810  -51.3732 C.2       17 UNK         0.5000 
     98 O          -8.4715  -24.6689  -51.7901 O.2       17 UNK        -0.5000 
     99 N          -7.0787  -22.9046  -52.1311 N.am      18 UNK        -0.5000 
    100 CA        -6.7373  -23.0459  -53.5494 C.3       18 UNK         0.1400 
    101 CB        -7.9989  -22.9807  -54.4341 C.3       18 UNK        -0.1800 
    102 C         -5.8440  -24.2549  -53.9066 C.2       18 UNK         0.5000 
    103 O         -5.5288  -24.4184  -55.0863 O.2       18 UNK        -0.5000 
    104 N         -5.4099  -25.0621  -52.9259 N.am      19 UNK        -0.5000 
    105 CA        -4.5766  -26.2497  -53.1464 C.3       19 UNK         0.1400 
    106 CB        -4.5287  -27.1025  -51.8709 C.3       19 UNK        -0.1800 
    107 C         -3.1481  -25.9335  -53.6304 C.2       19 UNK         0.5000 
    108 O         -2.5607  -26.7558  -54.3347 O.2       19 UNK        -0.5000 
    109 N         -2.6171  -24.7548  -53.2727 N.am      20 UNK        -0.5000 
    110 CA        -1.3175  -24.2646  -53.7430 C.3       20 UNK         0.1400 
    111 CB        -0.7857  -23.2053  -52.7630 C.3       20 UNK        -0.1800 
    112 C         -1.3779  -23.6972  -55.1768 C.2       20 UNK         0.5000 
    113 O         -0.3274  -23.5017  -55.7877 O.2       20 UNK        -0.5000 
    114 N         -2.5968  -23.4400  -55.6803 N.am      21 UNK        -0.5000 
    115 CA        -2.9322  -22.9131  -57.0094 C.3       21 UNK         0.1400 
    116 CB        -2.4950  -23.8944  -58.1169 C.3       21 UNK        -0.1800 
    117 C         -2.4441  -21.4691  -57.2643 C.2       21 UNK         0.5000 
    118 O         -2.3503  -21.0511  -58.4197 O.2       21 UNK        -0.5000 
    119 N         -2.1656  -20.7228  -56.1878 N.am      22 UNK        -0.5000 
    120 CA        -1.7108  -19.3216  -56.2254 C.3       22 UNK         0.1400 
    121 C         -2.8355  -18.2846  -56.5214 C.2       22 UNK         0.5000 
    122 N         -4.1091  -18.6597  -56.5261 N.am      22 UNK        -0.7600 
    123 O         -2.5449  -17.1154  -56.7587 O.2       22 UNK        -0.5000 
    124 C124       -0.9336  -18.9287  -54.9426 C.3       23 UNK        -0.0398 
    125 S125        0.5069  -20.0022  -54.6184 S.3       23 UNK        -0.2404 
    126 C126        1.7323  -18.7953  -54.0224 C.3       23 UNK        -0.0205 
    127 H127        0.8866   -8.6547  -48.9423 H         1 UNK         0.0600 
    128 H128       -0.8365   -8.9919  -48.7449 H         1 UNK         0.0600 
    129 H129        0.0164   -9.5623  -50.1827 H         1 UNK         0.0600 
    130 H130        0.4425  -11.7570  -50.0971 H         1 UNK         0.3000 
    131 H131        1.8231  -12.9927  -47.9675 H         1 UNK         0.0600 
    132 H132        2.1264  -13.7568  -50.2473 H         1 UNK         0.0800 
    133 H133        1.6003  -15.0750  -49.2566 H         1 UNK         0.0800 
    134 H134       -1.5617  -16.3164  -50.9481 H         1 UNK         0.0800 
    135 H135       -0.8359  -16.1464  -49.3716 H         1 UNK         0.0800 
    136 H136       -0.0038  -16.9767  -52.9325 H         1 UNK         0.1150 
    137 H137        3.0046  -19.8333  -51.8585 H         1 UNK         0.1150 
    138 H138        1.0592  -17.5181  -48.8182 H         1 UNK         0.1150 
    139 H139        3.5021  -20.3070  -49.6091 H         1 UNK         0.0800 
    140 H140        3.7565  -18.7600  -48.8390 H         1 UNK         0.0800 
    141 H141        1.1248  -22.0955  -48.5126 H         1 UNK         0.0800 
    142 H142        0.5770  -20.7762  -49.4954 H         1 UNK         0.0800 
    143 H143       -1.2557  -21.7128  -48.2508 H         1 UNK         0.0600 
    144 H144        0.4272  -21.5381  -45.8960 H         1 UNK         0.3000 
    145 H145       -2.1806  -22.9113  -43.7888 H         1 UNK         0.0600 
    146 H146       -0.2879  -24.4288  -43.3312 H         1 UNK         0.0600 
    147 H147       -0.9076  -24.7350  -44.9458 H         1 UNK         0.0600 
    148 H148        0.5879  -23.8301  -44.7387 H         1 UNK         0.0600 
    149 H149        0.4352  -21.9328  -43.1792 H         1 UNK         0.3000 
    150 H150       -0.3835  -18.6044  -42.3886 H         1 UNK         0.0600 
    151 H151       -1.2946  -19.7115  -40.3799 H         1 UNK         0.0600 
    152 H152        0.3819  -19.2799  -40.0921 H         1 UNK         0.0600 
    153 H153       -0.0492  -20.9498  -40.4461 H         1 UNK         0.0600 
    154 H154        1.9416  -20.1542  -41.8656 H         1 UNK         0.3000 
    155 H155        3.3476  -20.4041  -44.9433 H         1 UNK         0.0600 
    156 H156        3.5093  -17.9585  -45.3167 H         1 UNK         0.0600 
    157 H157        5.0346  -18.6075  -44.7379 H         1 UNK         0.0600 
    158 H158        3.9851  -17.7164  -43.6386 H         1 UNK         0.0600 
    159 H159        4.4155  -19.7159  -42.2893 H         1 UNK         0.3000 
    160 H160        4.3409  -23.0257  -41.1002 H         1 UNK         0.0600 
    161 H161        6.8143  -22.8907  -40.9583 H         1 UNK         0.0600 
    162 H162        6.8429  -21.6197  -42.1818 H         1 UNK         0.0600 
    163 H163        6.3243  -23.2465  -42.6066 H         1 UNK         0.0600 
    164 H164        5.7299  -20.7336  -40.1465 H         1 UNK         0.3000 
    165 H165        3.5098  -19.9981  -37.7777 H         1 UNK         0.0600 
    166 H166        5.8415  -18.7447  -39.3393 H         1 UNK         0.0600 
    167 H167        5.4072  -18.3890  -37.6738 H         1 UNK         0.0600 
    168 H168        5.9657  -19.9934  -38.1013 H         1 UNK         0.0600 
    169 H169        2.3179  -18.2433  -38.3811 H         1 UNK         0.3000 
    170 H170        1.1113  -17.0544  -40.3603 H         1 UNK         0.0600 
    171 H171        1.7762  -16.1809  -38.1304 H         1 UNK         0.0600 
    172 H172        3.0203  -15.1706  -38.8595 H         1 UNK         0.0600 
    173 H173        1.3162  -14.8386  -39.1575 H         1 UNK         0.0600 
    174 H174        3.3052  -15.5356  -41.6308 H         1 UNK         0.3000 
    175 H175        2.6615  -13.6841  -42.9634 H         1 UNK         0.0600 
    176 H176        1.8189  -15.8534  -44.9526 H         1 UNK         0.0600 
    177 H177        2.7254  -14.4098  -45.4022 H         1 UNK         0.0600 
    178 H178        3.4206  -15.5647  -44.2847 H         1 UNK         0.0600 
    179 H179        0.4267  -13.6592  -44.7810 H         1 UNK         0.3000 
    180 H180       -1.7099  -11.6457  -43.0931 H         1 UNK         0.0600 
    181 H181        0.4573  -10.0378  -44.5393 H         1 UNK         0.0600 
    182 H182       -0.2131   -9.7012  -42.9500 H         1 UNK         0.0600 
    183 H183       -1.2270   -9.5412  -44.3748 H         1 UNK         0.0600 
    184 H184       -0.7772  -11.7360  -45.8888 H         1 UNK         0.3000 
    185 H185       -2.5835  -14.5965  -46.7175 H         1 UNK         0.0600 
    186 H186       -4.6152  -13.1495  -46.6430 H         1 UNK         0.0600 
    187 H187       -3.7074  -11.8151  -47.3458 H         1 UNK         0.0600 
    188 H188       -3.9950  -13.2853  -48.2795 H         1 UNK         0.0600 
    189 H189       -1.5646  -12.4997  -48.3638 H         1 UNK         0.3000 
    190 H190       -0.4960  -19.1873  -45.8880 H         1 UNK         0.3000 
    191 H191       -1.5971  -16.9645  -47.2064 H         1 UNK         0.0600 
    192 H192       -1.5434  -17.6506  -44.2215 H         1 UNK         0.0600 
    193 H193       -0.2802  -16.8113  -45.1185 H         1 UNK         0.0600 
    194 H194       -1.8413  -16.0534  -44.8813 H         1 UNK         0.0600 
    195 H195       -3.2422  -19.6712  -45.6630 H         1 UNK         0.3000 
    196 H196       -5.8667  -18.4529  -45.5004 H         1 UNK         0.0600 
    197 H197       -5.1314  -20.2520  -43.9487 H         1 UNK         0.0600 
    198 H198       -4.9872  -21.3789  -45.2948 H         1 UNK         0.0600 
    199 H199       -6.5608  -20.7357  -44.8499 H         1 UNK         0.0600 
    200 H200       -5.5494  -17.6497  -47.7900 H         1 UNK         0.3000 
    201 H201       -6.2718  -17.4871  -49.8934 H         1 UNK         0.0600 
    202 H202       -8.4613  -18.5186  -50.4360 H         1 UNK         0.0600 
    203 H203       -8.4739  -17.8934  -48.7953 H         1 UNK         0.0600 
    204 H204       -8.3136  -19.6259  -49.0781 H         1 UNK         0.0600 
    205 H205       -3.9839  -18.8159  -49.8890 H         1 UNK         0.3000 
    206 H206       -2.5806  -20.0803  -51.0606 H         1 UNK         0.0600 
    207 H207       -3.6884  -19.0977  -53.0645 H         1 UNK         0.0600 
    208 H208       -4.8273  -20.4315  -53.1098 H         1 UNK         0.0600 
    209 H209       -3.1202  -20.7337  -53.3742 H         1 UNK         0.0600 
    210 H210       -3.8782  -21.2292  -48.9188 H         1 UNK         0.3000 
    211 H211       -4.3372  -23.0879  -47.7980 H         1 UNK         0.0600 
    212 H212       -2.1100  -23.8876  -48.5911 H         1 UNK         0.0600 
    213 H213       -3.2350  -25.2240  -48.4471 H         1 UNK         0.0600 
    214 H214       -2.8479  -24.5773  -50.0348 H         1 UNK         0.0600 
    215 H215       -6.4428  -22.1171  -48.9269 H         1 UNK         0.3000 
    216 H216       -8.4602  -22.3370  -49.8324 H         1 UNK         0.0600 
    217 H217       -9.7287  -24.4115  -49.3643 H         1 UNK         0.0600 
    218 H218       -8.2420  -25.2929  -49.0408 H         1 UNK         0.0600 
    219 H219       -8.7444  -23.9822  -47.9743 H         1 UNK         0.0600 
    220 H220       -6.6622  -22.0944  -51.6775 H         1 UNK         0.3000 
    221 H221       -6.1379  -22.1683  -53.7876 H         1 UNK         0.0600 
    222 H222       -8.6256  -23.8647  -54.3155 H         1 UNK         0.0600 
    223 H223       -8.6026  -22.1049  -54.1963 H         1 UNK         0.0600 
    224 H224       -7.7336  -22.9119  -55.4897 H         1 UNK         0.0600 
    225 H225       -5.6598  -24.8529  -51.9668 H         1 UNK         0.3000 
    226 H226       -5.0586  -26.8451  -53.9246 H         1 UNK         0.0600 
    227 H227       -5.5306  -27.3279  -51.5049 H         1 UNK         0.0600 
    228 H228       -4.0283  -28.0533  -52.0581 H         1 UNK         0.0600 
    229 H229       -3.9815  -26.6004  -51.0730 H         1 UNK         0.0600 
    230 H230       -3.1578  -24.1217  -52.6848 H         1 UNK         0.3000 
    231 H231       -0.6117  -25.0978  -53.7484 H         1 UNK         0.0600 
    232 H232        0.2372  -22.9226  -53.0150 H         1 UNK         0.0600 
    233 H233       -0.7779  -23.5784  -51.7387 H         1 UNK         0.0600 
    234 H234       -1.3844  -22.2956  -52.7857 H         1 UNK         0.0600 
    235 H235       -3.3952  -23.6805  -55.1064 H         1 UNK         0.3000 
    236 H236       -4.0216  -22.8622  -57.0369 H         1 UNK         0.0600 
    237 H237       -2.8619  -24.9013  -57.9175 H         1 UNK         0.0600 
    238 H238       -2.8917  -23.5932  -59.0871 H         1 UNK         0.0600 
    239 H239       -1.4099  -23.9441  -58.2103 H         1 UNK         0.0600 
    240 H240       -2.2387  -21.1491  -55.2777 H         1 UNK         0.3000 
    241 H241       -1.0103  -19.2330  -57.0583 H         1 UNK         0.0600 
    242 H242       -4.3647  -19.6161  -56.3451 H         1 UNK         0.3800 
    243 H243       -4.8246  -17.9783  -56.7252 H         1 UNK         0.3800 
    244 H244       -0.5870  -17.8982  -55.0313 H         1 UNK         0.0800 
    245 H245       -1.5804  -18.9522  -54.0672 H         1 UNK         0.0800 
    246 H246        1.7075  -17.8922  -54.6338 H         1 UNK         0.0800 
    247 H247        2.7276  -19.2199  -54.1620 H         1 UNK         0.0800 
@<TRIPOS>BOND
     1    1    2 1    
     2    1  127 1    
     3    1  128 1    
     4    1  129 1    
     5    2    3 2    
     6    2    4 am   BACKBONE|DICT|INTERRES
     7    4    5 1    
     8    4  130 1    
     9    5    6 1    
    10    5   65 1    
    11    5  131 1    
    12    6    7 1    
    13    6  132 1    
    14    6  133 1    
    15    7    8 1    
    16    8    9 1    
    17    8  134 1    
    18    8  135 1    
    19    9   10 ar   
    20    9   14 ar   
    21   10   11 ar   
    22   10  136 1    
    23   11   12 ar   
    24   11  126 1    
    25   12   13 ar   
    26   12  137 1    
    27   13   14 ar   
    28   13   15 1    
    29   14  138 1    
    30   15   16 1    
    31   15  139 1    
    32   15  140 1    
    33   16   17 1    
    34   17   18 1    
    35   17  141 1    
    36   17  142 1    
    37   18   19 1    
    38   18   67 1    
    39   18  143 1    
    40   19   20 am   BACKBONE|DICT|INTERRES
    41   19  144 1    
    42   20   21 2    
    43   20   22 1    
    44   22   23 1    
    45   22   24 1    
    46   22  145 1    
    47   23  146 1    
    48   23  147 1    
    49   23  148 1    
    50   24   25 am   BACKBONE|DICT|INTERRES
    51   24  149 1    
    52   25   26 2    
    53   25   27 1    
    54   27   28 1    
    55   27   29 1    
    56   27  150 1    
    57   28  151 1    
    58   28  152 1    
    59   28  153 1    
    60   29   30 am   BACKBONE|DICT|INTERRES
    61   29  154 1    
    62   30   31 2    
    63   30   32 1    
    64   32   33 1    
    65   32   34 1    
    66   32  155 1    
    67   33  156 1    
    68   33  157 1    
    69   33  158 1    
    70   34   35 am   BACKBONE|DICT|INTERRES
    71   34  159 1    
    72   35   36 2    
    73   35   37 1    
    74   37   38 1    
    75   37   39 1    
    76   37  160 1    
    77   38  161 1    
    78   38  162 1    
    79   38  163 1    
    80   39   40 am   BACKBONE|DICT|INTERRES
    81   39  164 1    
    82   40   41 2    
    83   40   42 1    
    84   42   43 1    
    85   42   44 1    
    86   42  165 1    
    87   43  166 1    
    88   43  167 1    
    89   43  168 1    
    90   44   45 am   BACKBONE|DICT|INTERRES
    91   44  169 1    
    92   45   46 2    
    93   45   47 1    
    94   47   48 1    
    95   47   49 1    
    96   47  170 1    
    97   48  171 1    
    98   48  172 1    
    99   48  173 1    
   100   49   50 am   BACKBONE|DICT|INTERRES
   101   49  174 1    
   102   50   51 2    
   103   50   52 1    
   104   52   53 1    
   105   52   54 1    
   106   52  175 1    
   107   53  176 1    
   108   53  177 1    
   109   53  178 1    
   110   54   55 am   BACKBONE|DICT|INTERRES
   111   54  179 1    
   112   55   56 2    
   113   55   57 1    
   114   57   58 1    
   115   57   59 1    
   116   57  180 1    
   117   58  181 1    
   118   58  182 1    
   119   58  183 1    
   120   59   60 am   BACKBONE|DICT|INTERRES
   121   59  184 1    
   122   60   61 2    
   123   60   62 1    
   124   62   63 1    
   125   62   64 1    
   126   62  185 1    
   127   63  186 1    
   128   63  187 1    
   129   63  188 1    
   130   64   65 am   BACKBONE|DICT|INTERRES
   131   64  189 1    
   132   65   66 2    
   133   67   68 2    
   134   67   69 am   BACKBONE|DICT|INTERRES
   135   69   70 1    
   136   69  190 1    
   137   70   71 1    
   138   70   72 1    
   139   70  191 1    
   140   71  192 1    
   141   71  193 1    
   142   71  194 1    
   143   72   73 2    
   144   72   74 am   BACKBONE|DICT|INTERRES
   145   74   75 1    
   146   74  195 1    
   147   75   76 1    
   148   75   77 1    
   149   75  196 1    
   150   76  197 1    
   151   76  198 1    
   152   76  199 1    
   153   77   78 2    
   154   77   79 am   BACKBONE|DICT|INTERRES
   155   79   80 1    
   156   79  200 1    
   157   80   81 1    
   158   80   82 1    
   159   80  201 1    
   160   81  202 1    
   161   81  203 1    
   162   81  204 1    
   163   82   83 2    
   164   82   84 am   BACKBONE|DICT|INTERRES
   165   84   85 1    
   166   84  205 1    
   167   85   86 1    
   168   85   87 1    
   169   85  206 1    
   170   86  207 1    
   171   86  208 1    
   172   86  209 1    
   173   87   88 2    
   174   87   89 am   BACKBONE|DICT|INTERRES
   175   89   90 1    
   176   89  210 1    
   177   90   91 1    
   178   90   92 1    
   179   90  211 1    
   180   91  212 1    
   181   91  213 1    
   182   91  214 1    
   183   92   93 2    
   184   92   94 am   BACKBONE|DICT|INTERRES
   185   94   95 1    
   186   94  215 1    
   187   95   96 1    
   188   95   97 1    
   189   95  216 1    
   190   96  217 1    
   191   96  218 1    
   192   96  219 1    
   193   97   98 2    
   194   97   99 am   BACKBONE|DICT|INTERRES
   195   99  100 1    
   196   99  220 1    
   197  100  101 1    
   198  100  102 1    
   199  100  221 1    
   200  101  222 1    
   201  101  223 1    
   202  101  224 1    
   203  102  103 2    
   204  102  104 am   BACKBONE|DICT|INTERRES
   205  104  105 1    
   206  104  225 1    
   207  105  106 1    
   208  105  107 1    
   209  105  226 1    
   210  106  227 1    
   211  106  228 1    
   212  106  229 1    
   213  107  108 2    
   214  107  109 am   BACKBONE|DICT|INTERRES
   215  109  110 1    
   216  109  230 1    
   217  110  111 1    
   218  110  112 1    
   219  110  231 1    
   220  111  232 1    
   221  111  233 1    
   222  111  234 1    
   223  112  113 2    
   224  112  114 am   BACKBONE|DICT|INTERRES
   225  114  115 1    
   226  114  235 1    
   227  115  116 1    
   228  115  117 1    
   229  115  236 1    
   230  116  237 1    
   231  116  238 1    
   232  116  239 1    
   233  117  118 2    
   234  117  119 am   BACKBONE|DICT|INTERRES
   235  119  120 1    
   236  119  240 1    
   237  120  121 1    
   238  120  124 1    
   239  120  241 1    
   240  121  122 am   BACKBONE|DICT|INTERRES
   241  121  123 2    
   242  122  242 1    
   243  122  243 1    
   244  124  125 1    
   245  124  244 1    
   246  124  245 1    
   247  125  126 1    
   248  126  246 1    
   249  126  247 1    
@<TRIPOS>SUBSTRUCTURE
     1 UNK         1 GROUP             0       ****    0 ROOT    
