@<TRIPOS>MOLECULE
3R540
247   249    1
SMALL
USER_CHARGES


@<TRIPOS>ATOM
      1 CA         -4.7991  -12.3311  -49.5440 C.3       0 UNK        -0.1800 
      2 C          -3.7261  -11.4394  -50.1483 C.2       0 UNK         0.5000 
      3 O          -3.8757  -10.2173  -50.1579 O.2       0 UNK        -0.5000 
      4 N          -2.6497  -12.0474  -50.6574 N.am      1 UNK        -0.5000 
      5 CA         -1.4871  -11.3609  -51.2270 C.3       1 UNK         0.1400 
      6 C6         -0.6340  -12.2939  -52.1191 C.3       23 UNK        -0.0398 
      7 S7         -1.5741  -13.1048  -53.4574 S.3       23 UNK        -0.2404 
      8 C8         -0.2323  -13.8839  -54.4146 C.3       23 UNK        -0.0205 
      9 C9          0.4961  -14.9586  -53.6189 C.ar      23 UNK        -0.0193 
     10 C10         0.0474  -16.2832  -53.6353 C.ar      23 UNK        -0.1150 
     11 C11         0.7169  -17.2657  -52.8992 C.ar      23 UNK        -0.0193 
     12 C12         1.8436  -16.9175  -52.1490 C.ar      23 UNK        -0.1150 
     13 C13         2.2791  -15.5903  -52.0959 C.ar      23 UNK        -0.0193 
     14 C14         1.6174  -14.6226  -52.8547 C.ar      23 UNK        -0.1150 
     15 C15         3.4397  -15.1878  -51.1958 C.3       23 UNK        -0.0205 
     16 S16         3.1717  -15.6368  -49.4463 S.3       23 UNK        -0.2404 
     17 C17         1.5494  -14.8802  -49.0609 C.3       23 UNK        -0.0398 
     18 CA          0.3789  -15.8943  -49.1169 C.3       11 UNK         0.1400 
     19 N           0.6455  -17.0913  -48.3202 N.am      11 UNK        -0.5000 
     20 C           0.1563  -18.3096  -48.5775 C.2       10 UNK         0.5000 
     21 O          -0.6521  -18.5495  -49.4738 O.2       10 UNK        -0.5000 
     22 CA          0.6277  -19.4597  -47.6658 C.3       10 UNK         0.1400 
     23 CB          1.7856  -19.0786  -46.7197 C.3       10 UNK        -0.1800 
     24 N          -0.4502  -20.0711  -46.8844 N.am      10 UNK        -0.5000 
     25 C          -1.4384  -19.4609  -46.2114 C.2       9 UNK         0.5000 
     26 O          -1.6737  -18.2561  -46.2758 O.2       9 UNK        -0.5000 
     27 CA         -2.3050  -20.3310  -45.2794 C.3       9 UNK         0.1400 
     28 CB         -3.6727  -20.6359  -45.9088 C.3       9 UNK        -0.1800 
     29 N          -1.6558  -21.5756  -44.8537 N.am      9 UNK        -0.5000 
     30 C          -0.5726  -21.6116  -44.0658 C.2       8 UNK         0.5000 
     31 O          -0.0048  -20.6016  -43.6466 O.2       8 UNK        -0.5000 
     32 CA         -0.0224  -22.9942  -43.6917 C.3       8 UNK         0.1400 
     33 CB          1.3528  -23.2334  -44.3329 C.3       8 UNK        -0.1800 
     34 N           0.1026  -23.0778  -42.2397 N.am      8 UNK        -0.5000 
     35 C          -0.8743  -23.5019  -41.4271 C.2       7 UNK         0.5000 
     36 O          -1.9493  -23.9480  -41.8307 O.2       7 UNK        -0.5000 
     37 CA         -0.6207  -23.4213  -39.9090 C.3       7 UNK         0.1400 
     38 CB         -0.0930  -24.7641  -39.3805 C.3       7 UNK        -0.1800 
     39 N           0.3114  -22.3612  -39.5247 N.am      7 UNK        -0.5000 
     40 C           0.0484  -21.0491  -39.5837 C.2       6 UNK         0.5000 
     41 O          -1.0281  -20.5835  -39.9600 O.2       6 UNK        -0.5000 
     42 CA          1.1713  -20.0848  -39.1496 C.3       6 UNK         0.1400 
     43 CB          2.2651  -20.7382  -38.2739 C.3       6 UNK        -0.1800 
     44 N           1.7664  -19.4033  -40.3013 N.am      6 UNK        -0.5000 
     45 C           2.3778  -19.9699  -41.3514 C.2       5 UNK         0.5000 
     46 O           2.5445  -21.1853  -41.4819 O.2       5 UNK        -0.5000 
     47 CA          2.8353  -18.9937  -42.4474 C.3       5 UNK         0.1400 
     48 CB          3.6710  -19.6731  -43.5459 C.3       5 UNK        -0.1800 
     49 N           1.6483  -18.3993  -43.0542 N.am      5 UNK        -0.5000 
     50 C           1.2564  -17.1296  -42.9156 C.2       4 UNK         0.5000 
     51 O           1.8752  -16.2928  -42.2529 O.2       4 UNK        -0.5000 
     52 CA         -0.0720  -16.7492  -43.5988 C.3       4 UNK         0.1400 
     53 CB         -1.2703  -17.2916  -42.8030 C.3       4 UNK        -0.1800 
     54 N          -0.2127  -15.2991  -43.7245 N.am      4 UNK        -0.5000 
     55 C           0.3991  -14.5498  -44.6491 C.2       3 UNK         0.5000 
     56 O           1.0390  -15.0127  -45.5968 O.2       3 UNK        -0.5000 
     57 CA          0.3114  -13.0270  -44.4273 C.3       3 UNK         0.1400 
     58 CB          1.2874  -12.5946  -43.3205 C.3       3 UNK        -0.1800 
     59 N           0.6166  -12.2546  -45.6315 N.am      3 UNK        -0.5000 
     60 C          -0.2418  -12.0187  -46.6296 C.2       2 UNK         0.5000 
     61 O          -1.4006  -12.4382  -46.6416 O.2       2 UNK        -0.5000 
     62 CA          0.2571  -11.1416  -47.7945 C.3       2 UNK         0.1400 
     63 CB          1.7850  -11.1980  -48.0219 C.3       2 UNK        -0.1800 
     64 N          -0.4677  -11.5120  -49.0057 N.am      2 UNK        -0.5000 
     65 C          -0.6068  -10.7658  -50.1088 C.2       1 UNK         0.5000 
     66 O          -0.0873   -9.6598  -50.2632 O.2       1 UNK        -0.5000 
     67 C          -0.9709  -15.2320  -48.7767 C.2       11 UNK         0.5000 
     68 O          -1.4070  -14.3678  -49.5367 O.2       11 UNK        -0.5000 
     69 N          -1.6355  -15.6437  -47.6858 N.am      12 UNK        -0.5000 
     70 CA         -3.0354  -15.2917  -47.4290 C.3       12 UNK         0.1400 
     71 CB         -3.3548  -15.4163  -45.9313 C.3       12 UNK        -0.1800 
     72 C          -3.9791  -16.1648  -48.2783 C.2       12 UNK         0.5000 
     73 O          -5.0396  -15.6940  -48.6861 O.2       12 UNK        -0.5000 
     74 N          -3.5499  -17.4077  -48.5523 N.am      13 UNK        -0.5000 
     75 CA         -4.0999  -18.3661  -49.5184 C.3       13 UNK         0.1400 
     76 CB         -3.8741  -17.8565  -50.9564 C.3       13 UNK        -0.1800 
     77 C          -5.5634  -18.7910  -49.2697 C.2       13 UNK         0.5000 
     78 O          -6.2091  -19.3092  -50.1814 O.2       13 UNK        -0.5000 
     79 N          -6.0572  -18.5993  -48.0381 N.am      14 UNK        -0.5000 
     80 CA         -7.4476  -18.8210  -47.6239 C.3       14 UNK         0.1400 
     81 CB         -7.6047  -18.3596  -46.1670 C.3       14 UNK        -0.1800 
     82 C          -7.9473  -20.2709  -47.7849 C.2       14 UNK         0.5000 
     83 O          -9.1458  -20.4845  -47.9687 O.2       14 UNK        -0.5000 
     84 N          -7.0196  -21.2342  -47.7300 N.am      15 UNK        -0.5000 
     85 CA         -7.2764  -22.6613  -47.9284 C.3       15 UNK         0.1400 
     86 CB         -6.1633  -23.4481  -47.2153 C.3       15 UNK        -0.1800 
     87 C          -7.3592  -23.0749  -49.4147 C.2       15 UNK         0.5000 
     88 O          -7.7053  -24.2248  -49.6837 O.2       15 UNK        -0.5000 
     89 N          -7.0230  -22.1517  -50.3312 N.am      16 UNK        -0.5000 
     90 CA         -6.6841  -22.3315  -51.7492 C.3       16 UNK         0.1400 
     91 CB         -7.6795  -23.2270  -52.5124 C.3       16 UNK        -0.1800 
     92 C          -5.2333  -22.8230  -51.9011 C.2       16 UNK         0.5000 
     93 O          -4.7315  -23.5435  -51.0373 O.2       16 UNK        -0.5000 
     94 N          -4.5777  -22.3994  -52.9905 N.am      17 UNK        -0.5000 
     95 CA         -3.1292  -22.4705  -53.2292 C.3       17 UNK         0.1400 
     96 CB         -2.8397  -22.0068  -54.6649 C.3       17 UNK        -0.1800 
     97 C          -2.4514  -23.8291  -52.9590 C.2       17 UNK         0.5000 
     98 O          -1.3492  -23.8553  -52.4070 O.2       17 UNK        -0.5000 
     99 N          -3.1241  -24.9238  -53.3360 N.am      18 UNK        -0.5000 
    100 CA        -2.6379  -26.2931  -53.1610 C.3       18 UNK         0.1400 
    101 CB        -3.5166  -27.2510  -53.9799 C.3       18 UNK        -0.1800 
    102 C         -2.5834  -26.7340  -51.6863 C.2       18 UNK         0.5000 
    103 O         -1.6166  -27.3805  -51.2823 O.2       18 UNK        -0.5000 
    104 N         -3.6103  -26.3668  -50.9090 N.am      19 UNK        -0.5000 
    105 CA        -3.7117  -26.6688  -49.4794 C.3       19 UNK         0.1400 
    106 CB        -5.1915  -26.7276  -49.0820 C.3       19 UNK        -0.1800 
    107 C         -2.9590  -25.6371  -48.6223 C.2       19 UNK         0.5000 
    108 O         -2.4387  -25.9866  -47.5628 O.2       19 UNK        -0.5000 
    109 N         -2.8911  -24.3916  -49.1113 N.am      20 UNK        -0.5000 
    110 CA        -2.1437  -23.2807  -48.5256 C.3       20 UNK         0.1400 
    111 CB        -2.5403  -21.9867  -49.2523 C.3       20 UNK        -0.1800 
    112 C         -0.6167  -23.4631  -48.5826 C.2       20 UNK         0.5000 
    113 O          0.0838  -22.7968  -47.8212 O.2       20 UNK        -0.5000 
    114 N         -0.1489  -24.3471  -49.4761 N.am      21 UNK        -0.5000 
    115 CA         1.2472  -24.6595  -49.7841 C.3       21 UNK         0.1400 
    116 CB         2.0003  -25.1844  -48.5423 C.3       21 UNK        -0.1800 
    117 C          1.9517  -23.4833  -50.4866 C.2       21 UNK         0.5000 
    118 O          3.0487  -23.0842  -50.0910 O.2       21 UNK        -0.5000 
    119 N          1.2939  -22.9485  -51.5239 N.am      22 UNK        -0.5000 
    120 CA         1.8370  -21.9252  -52.4273 C.3       22 UNK         0.1400 
    121 C          3.0725  -22.4338  -53.2271 C.2       22 UNK         0.5000 
    122 N          4.1069  -21.6180  -53.3782 N.am      22 UNK        -0.7600 
    123 O          3.0854  -23.5518  -53.7382 O.2       22 UNK        -0.5000 
    124 C124        0.7294  -21.3957  -53.3731 C.3       23 UNK        -0.0398 
    125 S125        1.1103  -19.7445  -54.0471 S.3       23 UNK        -0.2404 
    126 C126        0.2073  -18.6963  -52.8705 C.3       23 UNK        -0.0205 
    127 H127       -5.7903  -11.9864  -49.8384 H         1 UNK         0.0600 
    128 H128       -4.6891  -13.3618  -49.8798 H         1 UNK         0.0600 
    129 H129       -4.7369  -12.3128  -48.4561 H         1 UNK         0.0600 
    130 H130       -2.5446  -13.0520  -50.5592 H         1 UNK         0.3000 
    131 H131       -1.8447  -10.5357  -51.8467 H         1 UNK         0.0600 
    132 H132       -0.1802  -13.0761  -51.5102 H         1 UNK         0.0800 
    133 H133        0.1875  -11.7335  -52.5691 H         1 UNK         0.0800 
    134 H134        0.4697  -13.1178  -54.7477 H         1 UNK         0.0800 
    135 H135       -0.6549  -14.3205  -55.3207 H         1 UNK         0.0800 
    136 H136       -0.8278  -16.5462  -54.2126 H         1 UNK         0.1150 
    137 H137        2.3524  -17.6713  -51.5645 H         1 UNK         0.1150 
    138 H138        1.9582  -13.5973  -52.8303 H         1 UNK         0.1150 
    139 H139        4.3483  -15.6756  -51.5508 H         1 UNK         0.0800 
    140 H140        3.6237  -14.1139  -51.2548 H         1 UNK         0.0800 
    141 H141        1.3719  -14.0465  -49.7421 H         1 UNK         0.0800 
    142 H142        1.6191  -14.4498  -48.0624 H         1 UNK         0.0800 
    143 H143        0.2710  -16.2076  -50.1543 H         1 UNK         0.0600 
    144 H144        1.2768  -16.9671  -47.5412 H         1 UNK         0.3000 
    145 H145        0.9972  -20.2360  -48.3374 H         1 UNK         0.0600 
    146 H146        2.1361  -19.9550  -46.1756 H         1 UNK         0.0600 
    147 H147        2.6399  -18.6854  -47.2726 H         1 UNK         0.0600 
    148 H148        1.4873  -18.3322  -45.9842 H         1 UNK         0.0600 
    149 H149       -0.3819  -21.0805  -46.8178 H         1 UNK         0.3000 
    150 H150       -2.4875  -19.7361  -44.3820 H         1 UNK         0.0600 
    151 H151       -4.1828  -19.7133  -46.1855 H         1 UNK         0.0600 
    152 H152       -4.3200  -21.1628  -45.2075 H         1 UNK         0.0600 
    153 H153       -3.5849  -21.2453  -46.8045 H         1 UNK         0.0600 
    154 H154       -2.0845  -22.4414  -45.1447 H         1 UNK         0.3000 
    155 H155       -0.7025  -23.7662  -44.0581 H         1 UNK         0.0600 
    156 H156        1.7116  -24.2414  -44.1251 H         1 UNK         0.0600 
    157 H157        1.3072  -23.1210  -45.4165 H         1 UNK         0.0600 
    158 H158        2.0990  -22.5325  -43.9602 H         1 UNK         0.0600 
    159 H159        0.9229  -22.6392  -41.8363 H         1 UNK         0.3000 
    160 H160       -1.5798  -23.2200  -39.4271 H         1 UNK         0.0600 
    161 H161        0.8773  -25.0128  -39.8121 H         1 UNK         0.0600 
    162 H162       -0.7787  -25.5767  -39.6243 H         1 UNK         0.0600 
    163 H163        0.0152  -24.7467  -38.2959 H         1 UNK         0.0600 
    164 H164        1.2331  -22.6515  -39.2319 H         1 UNK         0.3000 
    165 H165        0.6914  -19.3123  -38.5469 H         1 UNK         0.0600 
    166 H166        2.8414  -21.4900  -38.8137 H         1 UNK         0.0600 
    167 H167        2.9675  -19.9883  -37.9101 H         1 UNK         0.0600 
    168 H168        1.8295  -21.2194  -37.3972 H         1 UNK         0.0600 
    169 H169        1.6398  -18.4009  -40.3222 H         1 UNK         0.3000 
    170 H170        3.4599  -18.2339  -41.9735 H         1 UNK         0.0600 
    171 H171        4.5637  -20.1385  -43.1267 H         1 UNK         0.0600 
    172 H172        3.1052  -20.4487  -44.0601 H         1 UNK         0.0600 
    173 H173        3.9994  -18.9500  -44.2925 H         1 UNK         0.0600 
    174 H174        1.0171  -19.0726  -43.4868 H         1 UNK         0.3000 
    175 H175       -0.0785  -17.1912  -44.5945 H         1 UNK         0.0600 
    176 H176       -1.3250  -16.8514  -41.8067 H         1 UNK         0.0600 
    177 H177       -2.2087  -17.0820  -43.3165 H         1 UNK         0.0600 
    178 H178       -1.2070  -18.3728  -42.6769 H         1 UNK         0.0600 
    179 H179       -0.6741  -14.8359  -42.9558 H         1 UNK         0.3000 
    180 H180       -0.7045  -12.7868  -44.1058 H         1 UNK         0.0600 
    181 H181        2.3216  -12.8142  -43.5892 H         1 UNK         0.0600 
    182 H182        1.0779  -13.1121  -42.3834 H         1 UNK         0.0600 
    183 H183        1.2113  -11.5254  -43.1219 H         1 UNK         0.0600 
    184 H184        1.5624  -11.9128  -45.7131 H         1 UNK         0.3000 
    185 H185       -0.0143  -10.1149  -47.5417 H         1 UNK         0.0600 
    186 H186        2.3296  -10.8113  -47.1601 H         1 UNK         0.0600 
    187 H187        2.1351  -12.2115  -48.2072 H         1 UNK         0.0600 
    188 H188        2.0842  -10.5880  -48.8739 H         1 UNK         0.0600 
    189 H189       -0.9822  -12.3857  -48.9450 H         1 UNK         0.3000 
    190 H190       -1.2381  -16.3755  -47.1078 H         1 UNK         0.3000 
    191 H191       -3.1977  -14.2500  -47.7125 H         1 UNK         0.0600 
    192 H192       -4.3666  -15.0662  -45.7243 H         1 UNK         0.0600 
    193 H193       -2.6747  -14.8097  -45.3339 H         1 UNK         0.0600 
    194 H194       -3.2906  -16.4437  -45.5766 H         1 UNK         0.0600 
    195 H195       -2.6747  -17.6878  -48.1254 H         1 UNK         0.3000 
    196 H196       -3.5058  -19.2714  -49.4013 H         1 UNK         0.0600 
    197 H197       -4.1378  -18.6174  -51.6919 H         1 UNK         0.0600 
    198 H198       -2.8272  -17.5997  -51.1219 H         1 UNK         0.0600 
    199 H199       -4.4737  -16.9708  -51.1685 H         1 UNK         0.0600 
    200 H200       -5.4576  -18.1472  -47.3643 H         1 UNK         0.3000 
    201 H201       -8.0793  -18.1904  -48.2527 H         1 UNK         0.0600 
    202 H202       -6.9662  -18.9323  -45.4930 H         1 UNK         0.0600 
    203 H203       -7.3499  -17.3052  -46.0571 H         1 UNK         0.0600 
    204 H204       -8.6340  -18.4804  -45.8264 H         1 UNK         0.0600 
    205 H205       -6.0617  -20.9626  -47.5728 H         1 UNK         0.3000 
    206 H206       -8.2293  -22.9190  -47.4614 H         1 UNK         0.0600 
    207 H207       -6.0933  -23.1720  -46.1631 H         1 UNK         0.0600 
    208 H208       -6.3564  -24.5205  -47.2533 H         1 UNK         0.0600 
    209 H209       -5.1903  -23.2736  -47.6750 H         1 UNK         0.0600 
    210 H210       -6.7940  -21.2263  -49.9845 H         1 UNK         0.3000 
    211 H211       -6.7400  -21.3317  -52.1825 H         1 UNK         0.0600 
    212 H212       -7.5711  -24.2794  -52.2485 H         1 UNK         0.0600 
    213 H213       -7.5194  -23.1509  -53.5883 H         1 UNK         0.0600 
    214 H214       -8.7101  -22.9322  -52.3153 H         1 UNK         0.0600 
    215 H215       -5.0928  -21.8450  -53.6590 H         1 UNK         0.3000 
    216 H216       -2.6690  -21.7477  -52.5545 H         1 UNK         0.0600 
    217 H217       -1.7744  -22.0529  -54.8913 H         1 UNK         0.0600 
    218 H218       -3.1554  -20.9746  -54.8176 H         1 UNK         0.0600 
    219 H219       -3.3553  -22.6279  -55.3983 H         1 UNK         0.0600 
    220 H220       -4.0300  -24.8082  -53.7659 H         1 UNK         0.3000 
    221 H221       -1.6217  -26.3433  -53.5583 H         1 UNK         0.0600 
    222 H222       -4.5566  -27.2250  -53.6522 H         1 UNK         0.0600 
    223 H223       -3.4921  -26.9990  -55.0403 H         1 UNK         0.0600 
    224 H224       -3.1674  -28.2799  -53.8834 H         1 UNK         0.0600 
    225 H225       -4.3261  -25.7660  -51.2968 H         1 UNK         0.3000 
    226 H226       -3.2718  -27.6492  -49.2843 H         1 UNK         0.0600 
    227 H227       -5.7180  -27.5075  -49.6321 H         1 UNK         0.0600 
    228 H228       -5.3061  -26.9418  -48.0187 H         1 UNK         0.0600 
    229 H229       -5.6897  -25.7811  -49.2843 H         1 UNK         0.0600 
    230 H230       -3.4281  -24.1761  -49.9492 H         1 UNK         0.3000 
    231 H231       -2.4273  -23.2007  -47.4753 H         1 UNK         0.0600 
    232 H232       -3.6138  -21.8081  -49.1929 H         1 UNK         0.0600 
    233 H233       -2.2649  -22.0253  -50.3049 H         1 UNK         0.0600 
    234 H234       -2.0382  -21.1203  -48.8248 H         1 UNK         0.0600 
    235 H235       -0.8320  -24.8004  -50.0673 H         1 UNK         0.3000 
    236 H236        1.2185  -25.4726  -50.5110 H         1 UNK         0.0600 
    237 H237        2.9883  -25.5547  -48.8174 H         1 UNK         0.0600 
    238 H238        2.1443  -24.4085  -47.7900 H         1 UNK         0.0600 
    239 H239        1.4624  -26.0092  -48.0750 H         1 UNK         0.0600 
    240 H240        0.3958  -23.3445  -51.7881 H         1 UNK         0.3000 
    241 H241        2.1607  -21.1015  -51.7875 H         1 UNK         0.0600 
    242 H242        4.1057  -20.6880  -52.9893 H         1 UNK         0.3800 
    243 H243        4.9072  -21.9329  -53.9043 H         1 UNK         0.3800 
    244 H244       -0.2197  -21.3288  -52.8403 H         1 UNK         0.0800 
    245 H245        0.5566  -22.0887  -54.1983 H         1 UNK         0.0800 
    246 H246        0.3242  -19.0969  -51.8629 H         1 UNK         0.0800 
    247 H247       -0.8603  -18.7308  -53.0930 H         1 UNK         0.0800 
@<TRIPOS>BOND
     1    1    2 1    
     2    1  127 1    
     3    1  128 1    
     4    1  129 1    
     5    2    3 2    
     6    2    4 am   BACKBONE|DICT|INTERRES
     7    4    5 1    
     8    4  130 1    
     9    5    6 1    
    10    5   65 1    
    11    5  131 1    
    12    6    7 1    
    13    6  132 1    
    14    6  133 1    
    15    7    8 1    
    16    8    9 1    
    17    8  134 1    
    18    8  135 1    
    19    9   10 ar   
    20    9   14 ar   
    21   10   11 ar   
    22   10  136 1    
    23   11   12 ar   
    24   11  126 1    
    25   12   13 ar   
    26   12  137 1    
    27   13   14 ar   
    28   13   15 1    
    29   14  138 1    
    30   15   16 1    
    31   15  139 1    
    32   15  140 1    
    33   16   17 1    
    34   17   18 1    
    35   17  141 1    
    36   17  142 1    
    37   18   19 1    
    38   18   67 1    
    39   18  143 1    
    40   19   20 am   BACKBONE|DICT|INTERRES
    41   19  144 1    
    42   20   21 2    
    43   20   22 1    
    44   22   23 1    
    45   22   24 1    
    46   22  145 1    
    47   23  146 1    
    48   23  147 1    
    49   23  148 1    
    50   24   25 am   BACKBONE|DICT|INTERRES
    51   24  149 1    
    52   25   26 2    
    53   25   27 1    
    54   27   28 1    
    55   27   29 1    
    56   27  150 1    
    57   28  151 1    
    58   28  152 1    
    59   28  153 1    
    60   29   30 am   BACKBONE|DICT|INTERRES
    61   29  154 1    
    62   30   31 2    
    63   30   32 1    
    64   32   33 1    
    65   32   34 1    
    66   32  155 1    
    67   33  156 1    
    68   33  157 1    
    69   33  158 1    
    70   34   35 am   BACKBONE|DICT|INTERRES
    71   34  159 1    
    72   35   36 2    
    73   35   37 1    
    74   37   38 1    
    75   37   39 1    
    76   37  160 1    
    77   38  161 1    
    78   38  162 1    
    79   38  163 1    
    80   39   40 am   BACKBONE|DICT|INTERRES
    81   39  164 1    
    82   40   41 2    
    83   40   42 1    
    84   42   43 1    
    85   42   44 1    
    86   42  165 1    
    87   43  166 1    
    88   43  167 1    
    89   43  168 1    
    90   44   45 am   BACKBONE|DICT|INTERRES
    91   44  169 1    
    92   45   46 2    
    93   45   47 1    
    94   47   48 1    
    95   47   49 1    
    96   47  170 1    
    97   48  171 1    
    98   48  172 1    
    99   48  173 1    
   100   49   50 am   BACKBONE|DICT|INTERRES
   101   49  174 1    
   102   50   51 2    
   103   50   52 1    
   104   52   53 1    
   105   52   54 1    
   106   52  175 1    
   107   53  176 1    
   108   53  177 1    
   109   53  178 1    
   110   54   55 am   BACKBONE|DICT|INTERRES
   111   54  179 1    
   112   55   56 2    
   113   55   57 1    
   114   57   58 1    
   115   57   59 1    
   116   57  180 1    
   117   58  181 1    
   118   58  182 1    
   119   58  183 1    
   120   59   60 am   BACKBONE|DICT|INTERRES
   121   59  184 1    
   122   60   61 2    
   123   60   62 1    
   124   62   63 1    
   125   62   64 1    
   126   62  185 1    
   127   63  186 1    
   128   63  187 1    
   129   63  188 1    
   130   64   65 am   BACKBONE|DICT|INTERRES
   131   64  189 1    
   132   65   66 2    
   133   67   68 2    
   134   67   69 am   BACKBONE|DICT|INTERRES
   135   69   70 1    
   136   69  190 1    
   137   70   71 1    
   138   70   72 1    
   139   70  191 1    
   140   71  192 1    
   141   71  193 1    
   142   71  194 1    
   143   72   73 2    
   144   72   74 am   BACKBONE|DICT|INTERRES
   145   74   75 1    
   146   74  195 1    
   147   75   76 1    
   148   75   77 1    
   149   75  196 1    
   150   76  197 1    
   151   76  198 1    
   152   76  199 1    
   153   77   78 2    
   154   77   79 am   BACKBONE|DICT|INTERRES
   155   79   80 1    
   156   79  200 1    
   157   80   81 1    
   158   80   82 1    
   159   80  201 1    
   160   81  202 1    
   161   81  203 1    
   162   81  204 1    
   163   82   83 2    
   164   82   84 am   BACKBONE|DICT|INTERRES
   165   84   85 1    
   166   84  205 1    
   167   85   86 1    
   168   85   87 1    
   169   85  206 1    
   170   86  207 1    
   171   86  208 1    
   172   86  209 1    
   173   87   88 2    
   174   87   89 am   BACKBONE|DICT|INTERRES
   175   89   90 1    
   176   89  210 1    
   177   90   91 1    
   178   90   92 1    
   179   90  211 1    
   180   91  212 1    
   181   91  213 1    
   182   91  214 1    
   183   92   93 2    
   184   92   94 am   BACKBONE|DICT|INTERRES
   185   94   95 1    
   186   94  215 1    
   187   95   96 1    
   188   95   97 1    
   189   95  216 1    
   190   96  217 1    
   191   96  218 1    
   192   96  219 1    
   193   97   98 2    
   194   97   99 am   BACKBONE|DICT|INTERRES
   195   99  100 1    
   196   99  220 1    
   197  100  101 1    
   198  100  102 1    
   199  100  221 1    
   200  101  222 1    
   201  101  223 1    
   202  101  224 1    
   203  102  103 2    
   204  102  104 am   BACKBONE|DICT|INTERRES
   205  104  105 1    
   206  104  225 1    
   207  105  106 1    
   208  105  107 1    
   209  105  226 1    
   210  106  227 1    
   211  106  228 1    
   212  106  229 1    
   213  107  108 2    
   214  107  109 am   BACKBONE|DICT|INTERRES
   215  109  110 1    
   216  109  230 1    
   217  110  111 1    
   218  110  112 1    
   219  110  231 1    
   220  111  232 1    
   221  111  233 1    
   222  111  234 1    
   223  112  113 2    
   224  112  114 am   BACKBONE|DICT|INTERRES
   225  114  115 1    
   226  114  235 1    
   227  115  116 1    
   228  115  117 1    
   229  115  236 1    
   230  116  237 1    
   231  116  238 1    
   232  116  239 1    
   233  117  118 2    
   234  117  119 am   BACKBONE|DICT|INTERRES
   235  119  120 1    
   236  119  240 1    
   237  120  121 1    
   238  120  124 1    
   239  120  241 1    
   240  121  122 am   BACKBONE|DICT|INTERRES
   241  121  123 2    
   242  122  242 1    
   243  122  243 1    
   244  124  125 1    
   245  124  244 1    
   246  124  245 1    
   247  125  126 1    
   248  126  246 1    
   249  126  247 1    
@<TRIPOS>SUBSTRUCTURE
     1 UNK         1 GROUP             0       ****    0 ROOT    
