@<TRIPOS>MOLECULE
3R540
247   249    1
SMALL
USER_CHARGES


@<TRIPOS>ATOM
      1 CA         -2.5187  -12.3048  -48.6736 C.3       0 UNK        -0.1800 
      2 C          -2.0960  -12.7166  -50.0830 C.2       0 UNK         0.5000 
      3 O          -2.9592  -12.9440  -50.9288 O.2       0 UNK        -0.5000 
      4 N          -0.7960  -12.8071  -50.3937 N.am      1 UNK        -0.5000 
      5 CA          0.3492  -12.6514  -49.4899 C.3       1 UNK         0.1400 
      6 C6          1.6585  -12.3439  -50.2666 C.3       23 UNK        -0.0398 
      7 S7          2.0633  -13.5100  -51.6167 S.3       23 UNK        -0.2404 
      8 C8          3.2752  -14.6484  -50.8498 C.3       23 UNK        -0.0205 
      9 C9          2.7332  -16.0574  -50.6100 C.ar      23 UNK        -0.0193 
     10 C10         1.9100  -16.6824  -51.5543 C.ar      23 UNK        -0.1150 
     11 C11         1.4418  -17.9819  -51.3487 C.ar      23 UNK        -0.0193 
     12 C12         1.8110  -18.6699  -50.1910 C.ar      23 UNK        -0.1150 
     13 C13         2.6488  -18.0706  -49.2457 C.ar      23 UNK        -0.0193 
     14 C14         3.1075  -16.7663  -49.4621 C.ar      23 UNK        -0.1150 
     15 C15         3.0855  -18.8543  -48.0146 C.3       23 UNK        -0.0205 
     16 S16         2.1595  -18.4106  -46.5083 S.3       23 UNK        -0.2404 
     17 C17         0.4280  -18.7399  -46.9879 C.3       23 UNK        -0.0398 
     18 CA          0.0674  -20.2448  -47.0206 C.3       11 UNK         0.1400 
     19 N           0.2675  -20.9161  -45.7317 N.am      11 UNK        -0.5000 
     20 C           0.1470  -22.2372  -45.5341 C.2       10 UNK         0.5000 
     21 O          -0.0793  -23.0450  -46.4339 O.2       10 UNK        -0.5000 
     22 CA          0.2327  -22.7366  -44.0830 C.3       10 UNK         0.1400 
     23 CB          1.6921  -22.9604  -43.6584 C.3       10 UNK        -0.1800 
     24 N          -0.4254  -21.8139  -43.1584 N.am      10 UNK        -0.5000 
     25 C          -1.7544  -21.6749  -43.0511 C.2       9 UNK         0.5000 
     26 O          -2.5625  -22.3464  -43.6921 O.2       9 UNK        -0.5000 
     27 CA         -2.2665  -20.5763  -42.0993 C.3       9 UNK         0.1400 
     28 CB         -2.3117  -21.0904  -40.6529 C.3       9 UNK        -0.1800 
     29 N          -1.4591  -19.3570  -42.1533 N.am      9 UNK        -0.5000 
     30 C          -1.3645  -18.5598  -43.2263 C.2       8 UNK         0.5000 
     31 O          -1.9952  -18.7397  -44.2669 O.2       8 UNK        -0.5000 
     32 CA         -0.3528  -17.4013  -43.1527 C.3       8 UNK         0.1400 
     33 CB         -1.0209  -16.1328  -42.6042 C.3       8 UNK        -0.1800 
     34 N           0.8489  -17.6913  -42.3671 N.am      8 UNK        -0.5000 
     35 C           1.6765  -18.7296  -42.5514 C.2       7 UNK         0.5000 
     36 O           1.4844  -19.6071  -43.3906 O.2       7 UNK        -0.5000 
     37 CA          2.9191  -18.8237  -41.6498 C.3       7 UNK         0.1400 
     38 CB          4.1824  -18.4731  -42.4485 C.3       7 UNK        -0.1800 
     39 N           2.8394  -17.9643  -40.4673 N.am      7 UNK        -0.5000 
     40 C           2.1499  -18.2570  -39.3558 C.2       6 UNK         0.5000 
     41 O           1.4941  -19.2891  -39.2114 O.2       6 UNK        -0.5000 
     42 CA          2.1971  -17.2185  -38.2184 C.3       6 UNK         0.1400 
     43 CB          3.3642  -17.5202  -37.2660 C.3       6 UNK        -0.1800 
     44 N           2.3283  -15.8472  -38.7155 N.am      6 UNK        -0.5000 
     45 C           1.3237  -15.1392  -39.2502 C.2       5 UNK         0.5000 
     46 O           0.1662  -15.5493  -39.3317 O.2       5 UNK        -0.5000 
     47 CA          1.6842  -13.7546  -39.8251 C.3       5 UNK         0.1400 
     48 CB          1.6189  -12.6799  -38.7295 C.3       5 UNK        -0.1800 
     49 N           3.0033  -13.7153  -40.4676 N.am      5 UNK        -0.5000 
     50 C           3.3340  -14.4362  -41.5459 C.2       4 UNK         0.5000 
     51 O           2.5618  -15.2235  -42.1004 O.2       4 UNK        -0.5000 
     52 CA          4.7706  -14.2952  -42.0685 C.3       4 UNK         0.1400 
     53 CB          5.7592  -15.0347  -41.1454 C.3       4 UNK        -0.1800 
     54 N           4.7923  -14.8670  -43.4084 N.am      4 UNK        -0.5000 
     55 C           5.7681  -14.8002  -44.3187 C.2       3 UNK         0.5000 
     56 O           6.8442  -14.2303  -44.1353 O.2       3 UNK        -0.5000 
     57 CA          5.4821  -15.4791  -45.6743 C.3       3 UNK         0.1400 
     58 CB          6.0493  -16.9067  -45.6977 C.3       3 UNK        -0.1800 
     59 N           4.0534  -15.5300  -46.0023 N.am      3 UNK        -0.5000 
     60 C           3.3278  -14.4622  -46.3542 C.2       2 UNK         0.5000 
     61 O           3.7892  -13.3230  -46.4669 O.2       2 UNK        -0.5000 
     62 CA          1.8360  -14.7029  -46.6150 C.3       2 UNK         0.1400 
     63 CB          1.0327  -14.6481  -45.3069 C.3       2 UNK        -0.1800 
     64 N           1.3685  -13.6698  -47.5266 N.am      2 UNK        -0.5000 
     65 C           0.5197  -13.8570  -48.5402 C.2       1 UNK         0.5000 
     66 O          -0.0932  -14.9088  -48.7377 O.2       1 UNK        -0.5000 
     67 C          -1.3694  -20.4472  -47.5446 C.2       11 UNK         0.5000 
     68 O          -1.5441  -20.8108  -48.7075 O.2       11 UNK        -0.5000 
     69 N          -2.3661  -20.2638  -46.6656 N.am      12 UNK        -0.5000 
     70 CA         -3.7810  -20.5045  -46.9494 C.3       12 UNK         0.1400 
     71 CB         -4.6383  -20.0059  -45.7774 C.3       12 UNK        -0.1800 
     72 C          -4.0903  -21.9798  -47.2563 C.2       12 UNK         0.5000 
     73 O          -4.8868  -22.2489  -48.1555 O.2       12 UNK        -0.5000 
     74 N          -3.4436  -22.9051  -46.5326 N.am      13 UNK        -0.5000 
     75 CA         -3.5417  -24.3468  -46.7631 C.3       13 UNK         0.1400 
     76 CB         -2.8883  -25.1129  -45.6036 C.3       13 UNK        -0.1800 
     77 C          -2.9363  -24.7667  -48.1143 C.2       13 UNK         0.5000 
     78 O          -3.5715  -25.5254  -48.8461 O.2       13 UNK        -0.5000 
     79 N          -1.7519  -24.2308  -48.4460 N.am      14 UNK        -0.5000 
     80 CA         -1.0703  -24.4316  -49.7290 C.3       14 UNK         0.1400 
     81 CB          0.3256  -23.7912  -49.6780 C.3       14 UNK        -0.1800 
     82 C          -1.8765  -23.8833  -50.9208 C.2       14 UNK         0.5000 
     83 O          -1.9625  -24.5408  -51.9572 O.2       14 UNK        -0.5000 
     84 N          -2.4971  -22.7132  -50.7252 N.am      15 UNK        -0.5000 
     85 CA         -3.4133  -22.0766  -51.6689 C.3       15 UNK         0.1400 
     86 CB         -3.5599  -20.5987  -51.2785 C.3       15 UNK        -0.1800 
     87 C          -4.7989  -22.7451  -51.7494 C.2       15 UNK         0.5000 
     88 O          -5.5891  -22.3563  -52.6097 O.2       15 UNK        -0.5000 
     89 N          -5.0894  -23.6982  -50.8513 N.am      16 UNK        -0.5000 
     90 CA         -6.3561  -24.4188  -50.6896 C.3       16 UNK         0.1400 
     91 CB         -6.5934  -25.3657  -51.8838 C.3       16 UNK        -0.1800 
     92 C          -7.5403  -23.4645  -50.4343 C.2       16 UNK         0.5000 
     93 O          -8.5754  -23.5716  -51.0914 O.2       16 UNK        -0.5000 
     94 N          -7.3375  -22.5002  -49.5239 N.am      17 UNK        -0.5000 
     95 CA         -8.2441  -21.3876  -49.2099 C.3       17 UNK         0.1400 
     96 CB         -9.5327  -21.8979  -48.5322 C.3       17 UNK        -0.1800 
     97 C          -8.5142  -20.4892  -50.4384 C.2       17 UNK         0.5000 
     98 O          -9.6398  -20.0356  -50.6481 O.2       17 UNK        -0.5000 
     99 N          -7.4552  -20.2820  -51.2341 N.am      18 UNK        -0.5000 
    100 CA        -7.3796  -19.5432  -52.4985 C.3       18 UNK         0.1400 
    101 CB        -7.8862  -18.0939  -52.3500 C.3       18 UNK        -0.1800 
    102 C         -8.0073  -20.2649  -53.7092 C.2       18 UNK         0.5000 
    103 O         -7.9824  -19.7032  -54.8049 O.2       18 UNK        -0.5000 
    104 N         -8.5063  -21.4991  -53.5385 N.am      19 UNK        -0.5000 
    105 CA        -9.0702  -22.3095  -54.6234 C.3       19 UNK         0.1400 
    106 CB        -9.8800  -23.4741  -54.0356 C.3       19 UNK        -0.1800 
    107 C         -8.0051  -22.8401  -55.6034 C.2       19 UNK         0.5000 
    108 O         -8.3178  -23.0433  -56.7771 O.2       19 UNK        -0.5000 
    109 N         -6.7736  -23.0399  -55.1153 N.am      20 UNK        -0.5000 
    110 CA        -5.6131  -23.4743  -55.8966 C.3       20 UNK         0.1400 
    111 CB        -4.9574  -24.6732  -55.1895 C.3       20 UNK        -0.1800 
    112 C         -4.5975  -22.3322  -56.0962 C.2       20 UNK         0.5000 
    113 O         -3.5158  -22.5822  -56.6334 O.2       20 UNK        -0.5000 
    114 N         -4.9434  -21.1157  -55.6430 N.am      21 UNK        -0.5000 
    115 CA        -4.2003  -19.8463  -55.6743 C.3       21 UNK         0.1400 
    116 CB        -3.9547  -19.3832  -57.1223 C.3       21 UNK        -0.1800 
    117 C         -2.8903  -19.8445  -54.8605 C.2       21 UNK         0.5000 
    118 O         -2.6874  -18.9578  -54.0322 O.2       21 UNK        -0.5000 
    119 N         -2.0394  -20.8409  -55.1038 N.am      22 UNK        -0.5000 
    120 CA        -0.7762  -21.1206  -54.4133 C.3       22 UNK         0.1400 
    121 C         -0.3179  -22.6032  -54.5687 C.2       22 UNK         0.5000 
    122 N         -1.0335  -23.4642  -55.2875 N.am      22 UNK        -0.7600 
    123 O          0.7027  -22.9958  -54.0121 O.2       22 UNK        -0.5000 
    124 C124        0.3301  -20.0938  -54.7870 C.3       23 UNK        -0.0398 
    125 S125        1.5152  -19.7754  -53.4383 S.3       23 UNK        -0.2404 
    126 C126        0.5520  -18.6457  -52.3864 C.3       23 UNK        -0.0205 
    127 H127       -3.6017  -12.1915  -48.6190 H         1 UNK         0.0600 
    128 H128       -2.0745  -11.3501  -48.3929 H         1 UNK         0.0600 
    129 H129       -2.2288  -13.0595  -47.9429 H         1 UNK         0.0600 
    130 H130       -0.5463  -13.1102  -51.3242 H         1 UNK         0.3000 
    131 H131        0.1548  -11.7843  -48.8562 H         1 UNK         0.0600 
    132 H132        1.5582  -11.3609  -50.7289 H         1 UNK         0.0800 
    133 H133        2.5109  -12.2432  -49.5931 H         1 UNK         0.0800 
    134 H134        3.6515  -14.2221  -49.9190 H         1 UNK         0.0800 
    135 H135        4.1356  -14.7284  -51.5152 H         1 UNK         0.0800 
    136 H136        1.6364  -16.1605  -52.4601 H         1 UNK         0.1150 
    137 H137        1.4571  -19.6799  -50.0375 H         1 UNK         0.1150 
    138 H138        3.7699  -16.3098  -48.7413 H         1 UNK         0.1150 
    139 H139        2.9885  -19.9265  -48.1905 H         1 UNK         0.0800 
    140 H140        4.1469  -18.6793  -47.8354 H         1 UNK         0.0800 
    141 H141        0.2321  -18.2698  -47.9523 H         1 UNK         0.0800 
    142 H142       -0.2149  -18.2160  -46.2810 H         1 UNK         0.0800 
    143 H143        0.7318  -20.7311  -47.7371 H         1 UNK         0.0600 
    144 H144        0.5279  -20.3310  -44.9433 H         1 UNK         0.3000 
    145 H145       -0.2804  -23.6988  -44.0280 H         1 UNK         0.0600 
    146 H146        1.7536  -23.3203  -42.6314 H         1 UNK         0.0600 
    147 H147        2.1678  -23.7082  -44.2940 H         1 UNK         0.0600 
    148 H148        2.2857  -22.0493  -43.7312 H         1 UNK         0.0600 
    149 H149        0.1755  -21.1536  -42.6829 H         1 UNK         0.3000 
    150 H150       -3.2841  -20.3221  -42.4035 H         1 UNK         0.0600 
    151 H151       -2.9171  -21.9948  -40.5788 H         1 UNK         0.0600 
    152 H152       -2.7523  -20.3498  -39.9852 H         1 UNK         0.0600 
    153 H153       -1.3155  -21.3294  -40.2782 H         1 UNK         0.0600 
    154 H154       -0.8932  -19.1435  -41.3445 H         1 UNK         0.3000 
    155 H155       -0.0241  -17.2001  -44.1722 H         1 UNK         0.0600 
    156 H156       -1.3681  -16.2738  -41.5800 H         1 UNK         0.0600 
    157 H157       -1.8837  -15.8523  -43.2096 H         1 UNK         0.0600 
    158 H158       -0.3315  -15.2881  -42.6092 H         1 UNK         0.0600 
    159 H159        1.1270  -16.9841  -41.7000 H         1 UNK         0.3000 
    160 H160        3.0054  -19.8621  -41.3228 H         1 UNK         0.0600 
    161 H161        4.1403  -17.4565  -42.8352 H         1 UNK         0.0600 
    162 H162        4.3006  -19.1414  -43.3027 H         1 UNK         0.0600 
    163 H163        5.0793  -18.5669  -41.8364 H         1 UNK         0.0600 
    164 H164        3.3101  -17.0743  -40.5233 H         1 UNK         0.3000 
    165 H165        1.2665  -17.3007  -37.6525 H         1 UNK         0.0600 
    166 H166        3.3718  -16.8311  -36.4214 H         1 UNK         0.0600 
    167 H167        3.2853  -18.5295  -36.8597 H         1 UNK         0.0600 
    168 H168        4.3281  -17.4440  -37.7710 H         1 UNK         0.0600 
    169 H169        3.2455  -15.4283  -38.6722 H         1 UNK         0.3000 
    170 H170        0.9372  -13.5122  -40.5843 H         1 UNK         0.0600 
    171 H171        0.6404  -12.6730  -38.2473 H         1 UNK         0.0600 
    172 H172        2.3662  -12.8489  -37.9533 H         1 UNK         0.0600 
    173 H173        1.7824  -11.6846  -39.1430 H         1 UNK         0.0600 
    174 H174        3.6867  -13.0934  -40.0599 H         1 UNK         0.3000 
    175 H175        5.0256  -13.2355  -42.1263 H         1 UNK         0.0600 
    176 H176        5.5357  -16.1000  -41.0852 H         1 UNK         0.0600 
    177 H177        6.7861  -14.9309  -41.4950 H         1 UNK         0.0600 
    178 H178        5.7276  -14.6343  -40.1316 H         1 UNK         0.0600 
    179 H179        3.9219  -15.3236  -43.6521 H         1 UNK         0.3000 
    180 H180        5.9929  -14.8989  -46.4458 H         1 UNK         0.0600 
    181 H181        5.5427  -17.5550  -44.9826 H         1 UNK         0.0600 
    182 H182        7.1114  -16.9101  -45.4494 H         1 UNK         0.0600 
    183 H183        5.9474  -17.3536  -46.6865 H         1 UNK         0.0600 
    184 H184        3.6049  -16.4346  -45.9405 H         1 UNK         0.3000 
    185 H185        1.7177  -15.6819  -47.0789 H         1 UNK         0.0600 
    186 H186        1.4056  -15.3825  -44.5931 H         1 UNK         0.0600 
    187 H187        1.1006  -13.6688  -44.8315 H         1 UNK         0.0600 
    188 H188       -0.0210  -14.8654  -45.4821 H         1 UNK         0.0600 
    189 H189        1.8744  -12.7970  -47.4398 H         1 UNK         0.3000 
    190 H190       -2.1480  -19.9122  -45.7365 H         1 UNK         0.3000 
    191 H191       -4.0456  -19.9214  -47.8336 H         1 UNK         0.0600 
    192 H192       -4.3923  -20.5236  -44.8497 H         1 UNK         0.0600 
    193 H193       -5.6996  -20.1653  -45.9727 H         1 UNK         0.0600 
    194 H194       -4.4951  -18.9380  -45.6117 H         1 UNK         0.0600 
    195 H195       -2.8523  -22.6044  -45.7663 H         1 UNK         0.3000 
    196 H196       -4.6020  -24.6081  -46.7802 H         1 UNK         0.0600 
    197 H197       -2.9899  -26.1899  -45.7428 H         1 UNK         0.0600 
    198 H198       -3.3574  -24.8629  -44.6519 H         1 UNK         0.0600 
    199 H199       -1.8245  -24.8932  -45.5208 H         1 UNK         0.0600 
    200 H200       -1.2704  -23.6486  -47.7646 H         1 UNK         0.3000 
    201 H201       -0.9478  -25.5065  -49.8766 H         1 UNK         0.0600 
    202 H202        0.9329  -24.2328  -48.8879 H         1 UNK         0.0600 
    203 H203        0.2709  -22.7176  -49.4958 H         1 UNK         0.0600 
    204 H204        0.8571  -23.9373  -50.6194 H         1 UNK         0.0600 
    205 H205       -2.3191  -22.2085  -49.8612 H         1 UNK         0.3000 
    206 H206       -2.9787  -22.1337  -52.6672 H         1 UNK         0.0600 
    207 H207       -2.5928  -20.0959  -51.2705 H         1 UNK         0.0600 
    208 H208       -4.1910  -20.0635  -51.9866 H         1 UNK         0.0600 
    209 H209       -4.0040  -20.4859  -50.2893 H         1 UNK         0.0600 
    210 H210       -4.3764  -23.9355  -50.1734 H         1 UNK         0.3000 
    211 H211       -6.2520  -25.0311  -49.7930 H         1 UNK         0.0600 
    212 H212       -6.7770  -24.8160  -52.8064 H         1 UNK         0.0600 
    213 H213       -7.4598  -26.0042  -51.7083 H         1 UNK         0.0600 
    214 H214       -5.7354  -26.0179  -52.0468 H         1 UNK         0.0600 
    215 H215       -6.4367  -22.4783  -49.0454 H         1 UNK         0.3000 
    216 H216       -7.7183  -20.7626  -48.4865 H         1 UNK         0.0600 
    217 H217      -10.1417  -21.0661  -48.1765 H         1 UNK         0.0600 
    218 H218       -9.3024  -22.5226  -47.6692 H         1 UNK         0.0600 
    219 H219      -10.1483  -22.4833  -49.2157 H         1 UNK         0.0600 
    220 H220       -6.6058  -20.7681  -50.9852 H         1 UNK         0.3000 
    221 H221       -6.3163  -19.4808  -52.7296 H         1 UNK         0.0600 
    222 H222       -8.9675  -18.0506  -52.2191 H         1 UNK         0.0600 
    223 H223       -7.4222  -17.5980  -51.4976 H         1 UNK         0.0600 
    224 H224       -7.6459  -17.5048  -53.2358 H         1 UNK         0.0600 
    225 H225       -8.4709  -21.9271  -52.6213 H         1 UNK         0.3000 
    226 H226       -9.7575  -21.6786  -55.1911 H         1 UNK         0.0600 
    227 H227      -10.6133  -23.1231  -53.3093 H         1 UNK         0.0600 
    228 H228      -10.4239  -24.0022  -54.8197 H         1 UNK         0.0600 
    229 H229       -9.2370  -24.2027  -53.5415 H         1 UNK         0.0600 
    230 H230       -6.5874  -22.8280  -54.1370 H         1 UNK         0.3000 
    231 H231       -5.9221  -23.7996  -56.8916 H         1 UNK         0.0600 
    232 H232       -5.6738  -25.4805  -55.0374 H         1 UNK         0.0600 
    233 H233       -4.5497  -24.3988  -54.2166 H         1 UNK         0.0600 
    234 H234       -4.1373  -25.0790  -55.7829 H         1 UNK         0.0600 
    235 H235       -5.8568  -21.0527  -55.2167 H         1 UNK         0.3000 
    236 H236       -4.8576  -19.1120  -55.2056 H         1 UNK         0.0600 
    237 H237       -3.4727  -18.4050  -57.1411 H         1 UNK         0.0600 
    238 H238       -3.3125  -20.0730  -57.6705 H         1 UNK         0.0600 
    239 H239       -4.8930  -19.2934  -57.6697 H         1 UNK         0.0600 
    240 H240       -2.3262  -21.5185  -55.8041 H         1 UNK         0.3000 
    241 H241       -0.9938  -21.0128  -53.3500 H         1 UNK         0.0600 
    242 H242       -0.7093  -24.4163  -55.3464 H         1 UNK         0.3800 
    243 H243       -1.8862  -23.2082  -55.7694 H         1 UNK         0.3800 
    244 H244        0.8805  -20.4237  -55.6695 H         1 UNK         0.0800 
    245 H245       -0.1050  -19.1338  -55.0668 H         1 UNK         0.0800 
    246 H246       -0.2468  -19.1980  -51.8891 H         1 UNK         0.0800 
    247 H247        0.0644  -17.8894  -53.0039 H         1 UNK         0.0800 
@<TRIPOS>BOND
     1    1    2 1    
     2    1  127 1    
     3    1  128 1    
     4    1  129 1    
     5    2    3 2    
     6    2    4 am   BACKBONE|DICT|INTERRES
     7    4    5 1    
     8    4  130 1    
     9    5    6 1    
    10    5   65 1    
    11    5  131 1    
    12    6    7 1    
    13    6  132 1    
    14    6  133 1    
    15    7    8 1    
    16    8    9 1    
    17    8  134 1    
    18    8  135 1    
    19    9   10 ar   
    20    9   14 ar   
    21   10   11 ar   
    22   10  136 1    
    23   11   12 ar   
    24   11  126 1    
    25   12   13 ar   
    26   12  137 1    
    27   13   14 ar   
    28   13   15 1    
    29   14  138 1    
    30   15   16 1    
    31   15  139 1    
    32   15  140 1    
    33   16   17 1    
    34   17   18 1    
    35   17  141 1    
    36   17  142 1    
    37   18   19 1    
    38   18   67 1    
    39   18  143 1    
    40   19   20 am   BACKBONE|DICT|INTERRES
    41   19  144 1    
    42   20   21 2    
    43   20   22 1    
    44   22   23 1    
    45   22   24 1    
    46   22  145 1    
    47   23  146 1    
    48   23  147 1    
    49   23  148 1    
    50   24   25 am   BACKBONE|DICT|INTERRES
    51   24  149 1    
    52   25   26 2    
    53   25   27 1    
    54   27   28 1    
    55   27   29 1    
    56   27  150 1    
    57   28  151 1    
    58   28  152 1    
    59   28  153 1    
    60   29   30 am   BACKBONE|DICT|INTERRES
    61   29  154 1    
    62   30   31 2    
    63   30   32 1    
    64   32   33 1    
    65   32   34 1    
    66   32  155 1    
    67   33  156 1    
    68   33  157 1    
    69   33  158 1    
    70   34   35 am   BACKBONE|DICT|INTERRES
    71   34  159 1    
    72   35   36 2    
    73   35   37 1    
    74   37   38 1    
    75   37   39 1    
    76   37  160 1    
    77   38  161 1    
    78   38  162 1    
    79   38  163 1    
    80   39   40 am   BACKBONE|DICT|INTERRES
    81   39  164 1    
    82   40   41 2    
    83   40   42 1    
    84   42   43 1    
    85   42   44 1    
    86   42  165 1    
    87   43  166 1    
    88   43  167 1    
    89   43  168 1    
    90   44   45 am   BACKBONE|DICT|INTERRES
    91   44  169 1    
    92   45   46 2    
    93   45   47 1    
    94   47   48 1    
    95   47   49 1    
    96   47  170 1    
    97   48  171 1    
    98   48  172 1    
    99   48  173 1    
   100   49   50 am   BACKBONE|DICT|INTERRES
   101   49  174 1    
   102   50   51 2    
   103   50   52 1    
   104   52   53 1    
   105   52   54 1    
   106   52  175 1    
   107   53  176 1    
   108   53  177 1    
   109   53  178 1    
   110   54   55 am   BACKBONE|DICT|INTERRES
   111   54  179 1    
   112   55   56 2    
   113   55   57 1    
   114   57   58 1    
   115   57   59 1    
   116   57  180 1    
   117   58  181 1    
   118   58  182 1    
   119   58  183 1    
   120   59   60 am   BACKBONE|DICT|INTERRES
   121   59  184 1    
   122   60   61 2    
   123   60   62 1    
   124   62   63 1    
   125   62   64 1    
   126   62  185 1    
   127   63  186 1    
   128   63  187 1    
   129   63  188 1    
   130   64   65 am   BACKBONE|DICT|INTERRES
   131   64  189 1    
   132   65   66 2    
   133   67   68 2    
   134   67   69 am   BACKBONE|DICT|INTERRES
   135   69   70 1    
   136   69  190 1    
   137   70   71 1    
   138   70   72 1    
   139   70  191 1    
   140   71  192 1    
   141   71  193 1    
   142   71  194 1    
   143   72   73 2    
   144   72   74 am   BACKBONE|DICT|INTERRES
   145   74   75 1    
   146   74  195 1    
   147   75   76 1    
   148   75   77 1    
   149   75  196 1    
   150   76  197 1    
   151   76  198 1    
   152   76  199 1    
   153   77   78 2    
   154   77   79 am   BACKBONE|DICT|INTERRES
   155   79   80 1    
   156   79  200 1    
   157   80   81 1    
   158   80   82 1    
   159   80  201 1    
   160   81  202 1    
   161   81  203 1    
   162   81  204 1    
   163   82   83 2    
   164   82   84 am   BACKBONE|DICT|INTERRES
   165   84   85 1    
   166   84  205 1    
   167   85   86 1    
   168   85   87 1    
   169   85  206 1    
   170   86  207 1    
   171   86  208 1    
   172   86  209 1    
   173   87   88 2    
   174   87   89 am   BACKBONE|DICT|INTERRES
   175   89   90 1    
   176   89  210 1    
   177   90   91 1    
   178   90   92 1    
   179   90  211 1    
   180   91  212 1    
   181   91  213 1    
   182   91  214 1    
   183   92   93 2    
   184   92   94 am   BACKBONE|DICT|INTERRES
   185   94   95 1    
   186   94  215 1    
   187   95   96 1    
   188   95   97 1    
   189   95  216 1    
   190   96  217 1    
   191   96  218 1    
   192   96  219 1    
   193   97   98 2    
   194   97   99 am   BACKBONE|DICT|INTERRES
   195   99  100 1    
   196   99  220 1    
   197  100  101 1    
   198  100  102 1    
   199  100  221 1    
   200  101  222 1    
   201  101  223 1    
   202  101  224 1    
   203  102  103 2    
   204  102  104 am   BACKBONE|DICT|INTERRES
   205  104  105 1    
   206  104  225 1    
   207  105  106 1    
   208  105  107 1    
   209  105  226 1    
   210  106  227 1    
   211  106  228 1    
   212  106  229 1    
   213  107  108 2    
   214  107  109 am   BACKBONE|DICT|INTERRES
   215  109  110 1    
   216  109  230 1    
   217  110  111 1    
   218  110  112 1    
   219  110  231 1    
   220  111  232 1    
   221  111  233 1    
   222  111  234 1    
   223  112  113 2    
   224  112  114 am   BACKBONE|DICT|INTERRES
   225  114  115 1    
   226  114  235 1    
   227  115  116 1    
   228  115  117 1    
   229  115  236 1    
   230  116  237 1    
   231  116  238 1    
   232  116  239 1    
   233  117  118 2    
   234  117  119 am   BACKBONE|DICT|INTERRES
   235  119  120 1    
   236  119  240 1    
   237  120  121 1    
   238  120  124 1    
   239  120  241 1    
   240  121  122 am   BACKBONE|DICT|INTERRES
   241  121  123 2    
   242  122  242 1    
   243  122  243 1    
   244  124  125 1    
   245  124  244 1    
   246  124  245 1    
   247  125  126 1    
   248  126  246 1    
   249  126  247 1    
@<TRIPOS>SUBSTRUCTURE
     1 UNK         1 GROUP             0       ****    0 ROOT    
