@<TRIPOS>MOLECULE
3R540
247   249    1
SMALL
USER_CHARGES


@<TRIPOS>ATOM
      1 CA         -7.0898  -14.0356  -49.7934 C.3       0 UNK        -0.1800 
      2 C          -5.6525  -13.6876  -49.4319 C.2       0 UNK         0.5000 
      3 O          -4.9046  -13.2113  -50.2862 O.2       0 UNK        -0.5000 
      4 N          -5.2631  -13.9304  -48.1743 N.am      1 UNK        -0.5000 
      5 CA         -3.9376  -13.6165  -47.6370 C.3       1 UNK         0.1400 
      6 C6         -3.6772  -14.3857  -46.3145 C.3       23 UNK        -0.0398 
      7 S7         -1.9572  -14.2376  -45.7082 S.3       23 UNK        -0.2404 
      8 C8         -1.3020  -15.9241  -45.9110 C.3       23 UNK        -0.0205 
      9 C9         -1.3060  -16.4502  -47.3438 C.ar      23 UNK        -0.0193 
     10 C10        -1.0319  -15.6288  -48.4437 C.ar      23 UNK        -0.1150 
     11 C11        -1.0228  -16.1526  -49.7398 C.ar      23 UNK        -0.0193 
     12 C12        -1.2693  -17.5125  -49.9326 C.ar      23 UNK        -0.1150 
     13 C13        -1.4934  -18.3549  -48.8414 C.ar      23 UNK        -0.0193 
     14 C14        -1.5317  -17.8110  -47.5572 C.ar      23 UNK        -0.1150 
     15 C15        -1.6118  -19.8561  -49.0468 C.3       23 UNK        -0.0205 
     16 S16        -3.2675  -20.5013  -48.6651 S.3       23 UNK        -0.2404 
     17 C17        -3.0466  -21.1497  -46.9733 C.3       23 UNK        -0.0398 
     18 CA         -2.4831  -22.5940  -46.9804 C.3       11 UNK         0.1400 
     19 N          -1.0218  -22.6342  -46.8498 N.am      11 UNK        -0.5000 
     20 C          -0.2800  -23.7344  -47.0425 C.2       10 UNK         0.5000 
     21 O          -0.7443  -24.8165  -47.3927 O.2       10 UNK        -0.5000 
     22 CA          1.2194  -23.6293  -46.7320 C.3       10 UNK         0.1400 
     23 CB          1.9814  -22.9778  -47.8970 C.3       10 UNK        -0.1800 
     24 N           1.4556  -22.8938  -45.4902 N.am      10 UNK        -0.5000 
     25 C           1.1781  -23.3741  -44.2693 C.2       9 UNK         0.5000 
     26 O           0.7252  -24.5015  -44.0689 O.2       9 UNK        -0.5000 
     27 CA          1.4149  -22.4298  -43.0744 C.3       9 UNK         0.1400 
     28 CB          2.8677  -22.5317  -42.5874 C.3       9 UNK        -0.1800 
     29 N           1.1061  -21.0310  -43.3750 N.am      9 UNK        -0.5000 
     30 C          -0.1230  -20.5642  -43.6362 C.2       8 UNK         0.5000 
     31 O          -1.1366  -21.2623  -43.6288 O.2       8 UNK        -0.5000 
     32 CA         -0.2273  -19.0814  -44.0445 C.3       8 UNK         0.1400 
     33 CB         -0.2949  -18.1796  -42.8037 C.3       8 UNK        -0.1800 
     34 N           0.8639  -18.6240  -44.9120 N.am      8 UNK        -0.5000 
     35 C           1.2562  -19.2102  -46.0528 C.2       7 UNK         0.5000 
     36 O           0.7026  -20.2085  -46.5118 O.2       7 UNK        -0.5000 
     37 CA          2.4687  -18.6196  -46.8032 C.3       7 UNK         0.1400 
     38 CB          2.0754  -18.1687  -48.2189 C.3       7 UNK        -0.1800 
     39 N           3.1391  -17.5055  -46.1276 N.am      7 UNK        -0.5000 
     40 C           3.8344  -17.5716  -44.9834 C.2       6 UNK         0.5000 
     41 O           3.9486  -18.6026  -44.3195 O.2       6 UNK        -0.5000 
     42 CA          4.5129  -16.2739  -44.4954 C.3       6 UNK         0.1400 
     43 CB          6.0426  -16.4134  -44.5520 C.3       6 UNK        -0.1800 
     44 N           4.1233  -15.0852  -45.2622 N.am      6 UNK        -0.5000 
     45 C           2.9811  -14.4066  -45.0967 C.2       5 UNK         0.5000 
     46 O           2.1107  -14.7172  -44.2812 O.2       5 UNK        -0.5000 
     47 CA          2.7578  -13.2139  -46.0450 C.3       5 UNK         0.1400 
     48 CB          1.8067  -13.6067  -47.1853 C.3       5 UNK        -0.1800 
     49 N           2.2068  -12.0524  -45.3503 N.am      5 UNK        -0.5000 
     50 C           2.8733  -11.2926  -44.4702 C.2       4 UNK         0.5000 
     51 O           4.0489  -11.4862  -44.1571 O.2       4 UNK        -0.5000 
     52 CA          2.1164  -10.0962  -43.8562 C.3       4 UNK         0.1400 
     53 CB          2.5777   -8.7815  -44.5046 C.3       4 UNK        -0.1800 
     54 N           0.6631  -10.1987  -43.9981 N.am      4 UNK        -0.5000 
     55 C          -0.1325  -10.9715  -43.2505 C.2       3 UNK         0.5000 
     56 O           0.2731  -11.6512  -42.3076 O.2       3 UNK        -0.5000 
     57 CA         -1.6248  -11.0240  -43.6313 C.3       3 UNK         0.1400 
     58 CB         -2.4392   -9.9615  -42.8690 C.3       3 UNK        -0.1800 
     59 N          -1.8824  -10.9779  -45.0787 N.am      3 UNK        -0.5000 
     60 C          -1.7587   -9.9602  -45.9445 C.2       2 UNK         0.5000 
     61 O          -1.3588   -8.8416  -45.6217 O.2       2 UNK        -0.5000 
     62 CA         -2.0745  -10.2469  -47.4305 C.3       2 UNK         0.1400 
     63 CB         -0.8348   -9.9837  -48.3022 C.3       2 UNK        -0.1800 
     64 N          -2.5217  -11.6204  -47.6773 N.am      2 UNK        -0.5000 
     65 C          -3.7569  -12.0910  -47.4603 C.2       1 UNK         0.5000 
     66 O          -4.7017  -11.3928  -47.0850 O.2       1 UNK        -0.5000 
     67 C          -3.1805  -23.4835  -45.9331 C.2       11 UNK         0.5000 
     68 O          -4.1522  -24.1533  -46.2813 O.2       11 UNK        -0.5000 
     69 N          -2.6646  -23.5187  -44.6965 N.am      12 UNK        -0.5000 
     70 CA         -3.1456  -24.4091  -43.6384 C.3       12 UNK         0.1400 
     71 CB         -2.4639  -24.0538  -42.3086 C.3       12 UNK        -0.1800 
     72 C          -2.9457  -25.8985  -43.9796 C.2       12 UNK         0.5000 
     73 O          -3.8598  -26.6957  -43.7671 O.2       12 UNK        -0.5000 
     74 N          -1.7718  -26.2397  -44.5293 N.am      13 UNK        -0.5000 
     75 CA         -1.4255  -27.5926  -44.9667 C.3       13 UNK         0.1400 
     76 CB          0.0875  -27.6719  -45.2217 C.3       13 UNK        -0.1800 
     77 C          -2.2117  -28.0427  -46.2130 C.2       13 UNK         0.5000 
     78 O          -2.6876  -29.1777  -46.2557 O.2       13 UNK        -0.5000 
     79 N          -2.3330  -27.1483  -47.2024 N.am      14 UNK        -0.5000 
     80 CA         -2.9747  -27.4061  -48.4935 C.3       14 UNK         0.1400 
     81 CB         -2.3963  -26.4285  -49.5289 C.3       14 UNK        -0.1800 
     82 C          -4.5114  -27.2981  -48.4664 C.2       14 UNK         0.5000 
     83 O          -5.1418  -27.6012  -49.4789 O.2       14 UNK        -0.5000 
     84 N          -5.0853  -26.8355  -47.3459 N.am      15 UNK        -0.5000 
     85 CA         -6.5074  -26.5319  -47.1434 C.3       15 UNK         0.1400 
     86 CB         -7.3651  -27.8135  -47.1964 C.3       15 UNK        -0.1800 
     87 C          -6.9932  -25.4256  -48.1044 C.2       15 UNK         0.5000 
     88 O          -7.9861  -25.5944  -48.8134 O.2       15 UNK        -0.5000 
     89 N          -6.2334  -24.3222  -48.1197 N.am      16 UNK        -0.5000 
     90 CA         -6.3954  -23.0939  -48.9056 C.3       16 UNK         0.1400 
     91 CB         -7.7636  -22.4335  -48.6446 C.3       16 UNK        -0.1800 
     92 C          -6.1016  -23.2320  -50.4139 C.2       16 UNK         0.5000 
     93 O          -6.1490  -22.2256  -51.1206 O.2       16 UNK        -0.5000 
     94 N          -5.7542  -24.4343  -50.8971 N.am      17 UNK        -0.5000 
     95 CA         -5.4399  -24.6930  -52.3085 C.3       17 UNK         0.1400 
     96 CB         -5.3882  -26.2081  -52.5513 C.3       17 UNK        -0.1800 
     97 C          -4.1389  -24.0166  -52.7909 C.2       17 UNK         0.5000 
     98 O          -3.9775  -23.7954  -53.9912 O.2       17 UNK        -0.5000 
     99 N          -3.2492  -23.6734  -51.8492 N.am      18 UNK        -0.5000 
    100 CA        -1.9953  -22.9588  -52.0917 C.3       18 UNK         0.1400 
    101 CB        -1.0537  -23.1859  -50.8969 C.3       18 UNK        -0.1800 
    102 C         -2.1760  -21.4493  -52.3518 C.2       18 UNK         0.5000 
    103 O         -1.1879  -20.7844  -52.6686 O.2       18 UNK        -0.5000 
    104 N         -3.3984  -20.9136  -52.1976 N.am      19 UNK        -0.5000 
    105 CA        -3.7125  -19.4822  -52.2980 C.3       19 UNK         0.1400 
    106 CB        -5.1989  -19.2569  -51.9880 C.3       19 UNK        -0.1800 
    107 C         -3.3390  -18.8402  -53.6473 C.2       19 UNK         0.5000 
    108 O         -2.9610  -17.6690  -53.6802 O.2       19 UNK        -0.5000 
    109 N         -3.4237  -19.6289  -54.7263 N.am      20 UNK        -0.5000 
    110 CA        -3.0249  -19.2337  -56.0766 C.3       20 UNK         0.1400 
    111 CB        -3.6848  -20.1886  -57.0835 C.3       20 UNK        -0.1800 
    112 C         -1.4961  -19.2121  -56.2799 C.2       20 UNK         0.5000 
    113 O         -1.0253  -18.5307  -57.1917 O.2       20 UNK        -0.5000 
    114 N         -0.7522  -19.9615  -55.4544 N.am      21 UNK        -0.5000 
    115 CA         0.7040  -20.0625  -55.5147 C.3       21 UNK         0.1400 
    116 CB         1.1435  -21.4761  -55.0974 C.3       21 UNK        -0.1800 
    117 C          1.3717  -18.9939  -54.6362 C.2       21 UNK         0.5000 
    118 O          2.2623  -18.2927  -55.1178 O.2       21 UNK        -0.5000 
    119 N          0.9249  -18.8811  -53.3751 N.am      22 UNK        -0.5000 
    120 CA         1.4558  -17.9391  -52.3697 C.3       22 UNK         0.1400 
    121 C          2.9466  -18.2007  -51.9791 C.2       22 UNK         0.5000 
    122 N          3.4156  -19.4423  -52.0278 N.am      22 UNK        -0.7600 
    123 O          3.6890  -17.2910  -51.6209 O.2       22 UNK        -0.5000 
    124 C124        1.1337  -16.4624  -52.7466 C.3       23 UNK        -0.0398 
    125 S125        1.0613  -15.3019  -51.3332 S.3       23 UNK        -0.2404 
    126 C126       -0.7142  -15.2561  -50.9270 C.3       23 UNK        -0.0205 
    127 H127       -7.1067  -14.7673  -50.6012 H         1 UNK         0.0600 
    128 H128       -7.6188  -13.1434  -50.1287 H         1 UNK         0.0600 
    129 H129       -7.6321  -14.4536  -48.9449 H         1 UNK         0.0600 
    130 H130       -5.9343  -14.2901  -47.5112 H         1 UNK         0.3000 
    131 H131       -3.2111  -13.9579  -48.3757 H         1 UNK         0.0600 
    132 H132       -3.9072  -15.4432  -46.4531 H         1 UNK         0.0800 
    133 H133       -4.3494  -14.0362  -45.5288 H         1 UNK         0.0800 
    134 H134       -1.8745  -16.5876  -45.2614 H         1 UNK         0.0800 
    135 H135       -0.2758  -15.9405  -45.5423 H         1 UNK         0.0800 
    136 H136       -0.8184  -14.5812  -48.2976 H         1 UNK         0.1150 
    137 H137       -1.2433  -17.9174  -50.9331 H         1 UNK         0.1150 
    138 H138       -1.7035  -18.4581  -46.7143 H         1 UNK         0.1150 
    139 H139       -1.3695  -20.1020  -50.0773 H         1 UNK         0.0800 
    140 H140       -0.8605  -20.3708  -48.4532 H         1 UNK         0.0800 
    141 H141       -4.0342  -21.1049  -46.5095 H         1 UNK         0.0800 
    142 H142       -2.4188  -20.4891  -46.3774 H         1 UNK         0.0800 
    143 H143       -2.7256  -23.0536  -47.9408 H         1 UNK         0.0600 
    144 H144       -0.5501  -21.7780  -46.5759 H         1 UNK         0.3000 
    145 H145        1.6066  -24.6428  -46.6055 H         1 UNK         0.0600 
    146 H146        3.0459  -22.8971  -47.6770 H         1 UNK         0.0600 
    147 H147        1.8814  -23.5758  -48.8036 H         1 UNK         0.0600 
    148 H148        1.6097  -21.9801  -48.1287 H         1 UNK         0.0600 
    149 H149        1.7320  -21.9263  -45.5843 H         1 UNK         0.3000 
    150 H150        0.7599  -22.7531  -42.2627 H         1 UNK         0.0600 
    151 H151        3.1254  -23.5624  -42.3399 H         1 UNK         0.0600 
    152 H152        3.0254  -21.9337  -41.6896 H         1 UNK         0.0600 
    153 H153        3.5722  -22.1894  -43.3467 H         1 UNK         0.0600 
    154 H154        1.8861  -20.3905  -43.4280 H         1 UNK         0.3000 
    155 H155       -1.1610  -18.9665  -44.5949 H         1 UNK         0.0600 
    156 H156        0.6273  -18.2246  -42.2231 H         1 UNK         0.0600 
    157 H157       -1.1126  -18.4791  -42.1467 H         1 UNK         0.0600 
    158 H158       -0.4657  -17.1387  -43.0793 H         1 UNK         0.0600 
    159 H159        1.3815  -17.8164  -44.5986 H         1 UNK         0.3000 
    160 H160        3.1925  -19.4311  -46.9005 H         1 UNK         0.0600 
    161 H161        1.4024  -17.3119  -48.1956 H         1 UNK         0.0600 
    162 H162        1.5730  -18.9670  -48.7669 H         1 UNK         0.0600 
    163 H163        2.9532  -17.8849  -48.7995 H         1 UNK         0.0600 
    164 H164        3.0975  -16.6133  -46.5958 H         1 UNK         0.3000 
    165 H165        4.2235  -16.1296  -43.4523 H         1 UNK         0.0600 
    166 H166        6.5346  -15.5259  -44.1535 H         1 UNK         0.0600 
    167 H167        6.3816  -17.2635  -43.9584 H         1 UNK         0.0600 
    168 H168        6.3959  -16.5645  -45.5728 H         1 UNK         0.0600 
    169 H169        4.7849  -14.7690  -45.9572 H         1 UNK         0.3000 
    170 H170        3.7156  -12.9232  -46.4820 H         1 UNK         0.0600 
    171 H171        2.1843  -14.4668  -47.7400 H         1 UNK         0.0600 
    172 H172        0.8225  -13.8705  -46.8012 H         1 UNK         0.0600 
    173 H173        1.6819  -12.7913  -47.8979 H         1 UNK         0.0600 
    174 H174        1.2336  -11.8460  -45.5122 H         1 UNK         0.3000 
    175 H175        2.3647  -10.0594  -42.7934 H         1 UNK         0.0600 
    176 H176        2.3472   -8.7565  -45.5705 H         1 UNK         0.0600 
    177 H177        2.0972   -7.9218  -44.0372 H         1 UNK         0.0600 
    178 H178        3.6551   -8.6481  -44.3975 H         1 UNK         0.0600 
    179 H179        0.2239   -9.6309  -44.7155 H         1 UNK         0.3000 
    180 H180       -1.9879  -12.0007  -43.3072 H         1 UNK         0.0600 
    181 H181       -3.4998  -10.0291  -43.1111 H         1 UNK         0.0600 
    182 H182       -2.1058   -8.9485  -43.0952 H         1 UNK         0.0600 
    183 H183       -2.3419  -10.0999  -41.7916 H         1 UNK         0.0600 
    184 H184       -2.1620  -11.8662  -45.4722 H         1 UNK         0.3000 
    185 H185       -2.8634   -9.5565  -47.7358 H         1 UNK         0.0600 
    186 H186       -1.0530  -10.1472  -49.3578 H         1 UNK         0.0600 
    187 H187       -0.4935   -8.9525  -48.2013 H         1 UNK         0.0600 
    188 H188       -0.0025  -10.6328  -48.0268 H         1 UNK         0.0600 
    189 H189       -1.8060  -12.2649  -47.9792 H         1 UNK         0.3000 
    190 H190       -1.9084  -22.8862  -44.4536 H         1 UNK         0.3000 
    191 H191       -4.2179  -24.2378  -43.5225 H         1 UNK         0.0600 
    192 H192       -2.8276  -24.6906  -41.5013 H         1 UNK         0.0600 
    193 H193       -2.6680  -23.0212  -42.0250 H         1 UNK         0.0600 
    194 H194       -1.3825  -24.1781  -42.3626 H         1 UNK         0.0600 
    195 H195       -1.0561  -25.5297  -44.6367 H         1 UNK         0.3000 
    196 H196       -1.6663  -28.2826  -44.1552 H         1 UNK         0.0600 
    197 H197        0.4021  -26.9793  -46.0031 H         1 UNK         0.0600 
    198 H198        0.6514  -27.4339  -44.3196 H         1 UNK         0.0600 
    199 H199        0.3800  -28.6753  -45.5335 H         1 UNK         0.0600 
    200 H200       -1.8607  -26.2508  -47.1114 H         1 UNK         0.3000 
    201 H201       -2.7259  -28.4207  -48.8111 H         1 UNK         0.0600 
    202 H202       -2.6580  -25.3967  -49.2923 H         1 UNK         0.0600 
    203 H203       -2.7684  -26.6440  -50.5299 H         1 UNK         0.0600 
    204 H204       -1.3092  -26.4975  -49.5712 H         1 UNK         0.0600 
    205 H205       -4.4703  -26.5639  -46.5903 H         1 UNK         0.3000 
    206 H206       -6.5918  -26.1225  -46.1355 H         1 UNK         0.0600 
    207 H207       -6.9975  -28.5615  -46.4940 H         1 UNK         0.0600 
    208 H208       -8.4004  -27.5983  -46.9296 H         1 UNK         0.0600 
    209 H209       -7.3723  -28.2616  -48.1902 H         1 UNK         0.0600 
    210 H210       -5.4395  -24.3124  -47.4790 H         1 UNK         0.3000 
    211 H211       -5.6353  -22.4119  -48.5240 H         1 UNK         0.0600 
    212 H212       -7.8112  -21.4433  -49.0993 H         1 UNK         0.0600 
    213 H213       -7.9439  -22.3073  -47.5771 H         1 UNK         0.0600 
    214 H214       -8.5846  -23.0189  -49.0589 H         1 UNK         0.0600 
    215 H215       -5.7589  -25.2310  -50.2747 H         1 UNK         0.3000 
    216 H216       -6.2556  -24.2862  -52.9098 H         1 UNK         0.0600 
    217 H217       -4.5738  -26.6786  -52.0020 H         1 UNK         0.0600 
    218 H218       -5.2384  -26.4287  -53.6089 H         1 UNK         0.0600 
    219 H219       -6.3182  -26.6894  -52.2476 H         1 UNK         0.0600 
    220 H220       -3.4739  -23.8826  -50.8890 H         1 UNK         0.3000 
    221 H221       -1.5210  -23.3804  -52.9803 H         1 UNK         0.0600 
    222 H222       -0.8353  -24.2446  -50.7605 H         1 UNK         0.0600 
    223 H223       -1.4813  -22.8084  -49.9688 H         1 UNK         0.0600 
    224 H224       -0.0984  -22.6801  -51.0441 H         1 UNK         0.0600 
    225 H225       -4.1636  -21.5162  -51.9217 H         1 UNK         0.3000 
    226 H226       -3.1383  -18.9704  -51.5275 H         1 UNK         0.0600 
    227 H227       -5.8414  -19.8068  -52.6767 H         1 UNK         0.0600 
    228 H228       -5.4402  -19.5767  -50.9741 H         1 UNK         0.0600 
    229 H229       -5.4606  -18.2006  -52.0628 H         1 UNK         0.0600 
    230 H230       -3.7428  -20.5792  -54.6028 H         1 UNK         0.3000 
    231 H231       -3.3974  -18.2252  -56.2689 H         1 UNK         0.0600 
    232 H232       -3.3608  -21.2192  -56.9325 H         1 UNK         0.0600 
    233 H233       -3.4332  -19.9118  -58.1082 H         1 UNK         0.0600 
    234 H234       -4.7714  -20.1620  -56.9988 H         1 UNK         0.0600 
    235 H235       -1.2013  -20.4237  -54.6735 H         1 UNK         0.3000 
    236 H236        1.0375  -19.9079  -56.5433 H         1 UNK         0.0600 
    237 H237        0.7031  -22.2315  -55.7483 H         1 UNK         0.0600 
    238 H238        2.2270  -21.5810  -55.1657 H         1 UNK         0.0600 
    239 H239        0.8572  -21.7119  -54.0725 H         1 UNK         0.0600 
    240 H240        0.1907  -19.5109  -53.0623 H         1 UNK         0.3000 
    241 H241        0.9110  -18.1705  -51.4575 H         1 UNK         0.0600 
    242 H242        4.3761  -19.6169  -51.7782 H         1 UNK         0.3800 
    243 H243        2.8265  -20.2050  -52.3199 H         1 UNK         0.3800 
    244 H244        0.1796  -16.4135  -53.2729 H         1 UNK         0.0800 
    245 H245        1.8712  -16.0874  -53.4578 H         1 UNK         0.0800 
    246 H246       -0.9921  -14.2271  -50.6943 H         1 UNK         0.0800 
    247 H247       -1.3221  -15.5432  -51.7862 H         1 UNK         0.0800 
@<TRIPOS>BOND
     1    1    2 1    
     2    1  127 1    
     3    1  128 1    
     4    1  129 1    
     5    2    3 2    
     6    2    4 am   BACKBONE|DICT|INTERRES
     7    4    5 1    
     8    4  130 1    
     9    5    6 1    
    10    5   65 1    
    11    5  131 1    
    12    6    7 1    
    13    6  132 1    
    14    6  133 1    
    15    7    8 1    
    16    8    9 1    
    17    8  134 1    
    18    8  135 1    
    19    9   10 ar   
    20    9   14 ar   
    21   10   11 ar   
    22   10  136 1    
    23   11   12 ar   
    24   11  126 1    
    25   12   13 ar   
    26   12  137 1    
    27   13   14 ar   
    28   13   15 1    
    29   14  138 1    
    30   15   16 1    
    31   15  139 1    
    32   15  140 1    
    33   16   17 1    
    34   17   18 1    
    35   17  141 1    
    36   17  142 1    
    37   18   19 1    
    38   18   67 1    
    39   18  143 1    
    40   19   20 am   BACKBONE|DICT|INTERRES
    41   19  144 1    
    42   20   21 2    
    43   20   22 1    
    44   22   23 1    
    45   22   24 1    
    46   22  145 1    
    47   23  146 1    
    48   23  147 1    
    49   23  148 1    
    50   24   25 am   BACKBONE|DICT|INTERRES
    51   24  149 1    
    52   25   26 2    
    53   25   27 1    
    54   27   28 1    
    55   27   29 1    
    56   27  150 1    
    57   28  151 1    
    58   28  152 1    
    59   28  153 1    
    60   29   30 am   BACKBONE|DICT|INTERRES
    61   29  154 1    
    62   30   31 2    
    63   30   32 1    
    64   32   33 1    
    65   32   34 1    
    66   32  155 1    
    67   33  156 1    
    68   33  157 1    
    69   33  158 1    
    70   34   35 am   BACKBONE|DICT|INTERRES
    71   34  159 1    
    72   35   36 2    
    73   35   37 1    
    74   37   38 1    
    75   37   39 1    
    76   37  160 1    
    77   38  161 1    
    78   38  162 1    
    79   38  163 1    
    80   39   40 am   BACKBONE|DICT|INTERRES
    81   39  164 1    
    82   40   41 2    
    83   40   42 1    
    84   42   43 1    
    85   42   44 1    
    86   42  165 1    
    87   43  166 1    
    88   43  167 1    
    89   43  168 1    
    90   44   45 am   BACKBONE|DICT|INTERRES
    91   44  169 1    
    92   45   46 2    
    93   45   47 1    
    94   47   48 1    
    95   47   49 1    
    96   47  170 1    
    97   48  171 1    
    98   48  172 1    
    99   48  173 1    
   100   49   50 am   BACKBONE|DICT|INTERRES
   101   49  174 1    
   102   50   51 2    
   103   50   52 1    
   104   52   53 1    
   105   52   54 1    
   106   52  175 1    
   107   53  176 1    
   108   53  177 1    
   109   53  178 1    
   110   54   55 am   BACKBONE|DICT|INTERRES
   111   54  179 1    
   112   55   56 2    
   113   55   57 1    
   114   57   58 1    
   115   57   59 1    
   116   57  180 1    
   117   58  181 1    
   118   58  182 1    
   119   58  183 1    
   120   59   60 am   BACKBONE|DICT|INTERRES
   121   59  184 1    
   122   60   61 2    
   123   60   62 1    
   124   62   63 1    
   125   62   64 1    
   126   62  185 1    
   127   63  186 1    
   128   63  187 1    
   129   63  188 1    
   130   64   65 am   BACKBONE|DICT|INTERRES
   131   64  189 1    
   132   65   66 2    
   133   67   68 2    
   134   67   69 am   BACKBONE|DICT|INTERRES
   135   69   70 1    
   136   69  190 1    
   137   70   71 1    
   138   70   72 1    
   139   70  191 1    
   140   71  192 1    
   141   71  193 1    
   142   71  194 1    
   143   72   73 2    
   144   72   74 am   BACKBONE|DICT|INTERRES
   145   74   75 1    
   146   74  195 1    
   147   75   76 1    
   148   75   77 1    
   149   75  196 1    
   150   76  197 1    
   151   76  198 1    
   152   76  199 1    
   153   77   78 2    
   154   77   79 am   BACKBONE|DICT|INTERRES
   155   79   80 1    
   156   79  200 1    
   157   80   81 1    
   158   80   82 1    
   159   80  201 1    
   160   81  202 1    
   161   81  203 1    
   162   81  204 1    
   163   82   83 2    
   164   82   84 am   BACKBONE|DICT|INTERRES
   165   84   85 1    
   166   84  205 1    
   167   85   86 1    
   168   85   87 1    
   169   85  206 1    
   170   86  207 1    
   171   86  208 1    
   172   86  209 1    
   173   87   88 2    
   174   87   89 am   BACKBONE|DICT|INTERRES
   175   89   90 1    
   176   89  210 1    
   177   90   91 1    
   178   90   92 1    
   179   90  211 1    
   180   91  212 1    
   181   91  213 1    
   182   91  214 1    
   183   92   93 2    
   184   92   94 am   BACKBONE|DICT|INTERRES
   185   94   95 1    
   186   94  215 1    
   187   95   96 1    
   188   95   97 1    
   189   95  216 1    
   190   96  217 1    
   191   96  218 1    
   192   96  219 1    
   193   97   98 2    
   194   97   99 am   BACKBONE|DICT|INTERRES
   195   99  100 1    
   196   99  220 1    
   197  100  101 1    
   198  100  102 1    
   199  100  221 1    
   200  101  222 1    
   201  101  223 1    
   202  101  224 1    
   203  102  103 2    
   204  102  104 am   BACKBONE|DICT|INTERRES
   205  104  105 1    
   206  104  225 1    
   207  105  106 1    
   208  105  107 1    
   209  105  226 1    
   210  106  227 1    
   211  106  228 1    
   212  106  229 1    
   213  107  108 2    
   214  107  109 am   BACKBONE|DICT|INTERRES
   215  109  110 1    
   216  109  230 1    
   217  110  111 1    
   218  110  112 1    
   219  110  231 1    
   220  111  232 1    
   221  111  233 1    
   222  111  234 1    
   223  112  113 2    
   224  112  114 am   BACKBONE|DICT|INTERRES
   225  114  115 1    
   226  114  235 1    
   227  115  116 1    
   228  115  117 1    
   229  115  236 1    
   230  116  237 1    
   231  116  238 1    
   232  116  239 1    
   233  117  118 2    
   234  117  119 am   BACKBONE|DICT|INTERRES
   235  119  120 1    
   236  119  240 1    
   237  120  121 1    
   238  120  124 1    
   239  120  241 1    
   240  121  122 am   BACKBONE|DICT|INTERRES
   241  121  123 2    
   242  122  242 1    
   243  122  243 1    
   244  124  125 1    
   245  124  244 1    
   246  124  245 1    
   247  125  126 1    
   248  126  246 1    
   249  126  247 1    
@<TRIPOS>SUBSTRUCTURE
     1 UNK         1 GROUP             0       ****    0 ROOT    
