@<TRIPOS>MOLECULE
3R540
247   249    1
SMALL
USER_CHARGES


@<TRIPOS>ATOM
      1 CA          4.6059  -22.1235  -48.2069 C.3       0 UNK        -0.1800 
      2 C           4.4717  -20.8695  -47.3539 C.2       0 UNK         0.5000 
      3 O           5.2253  -20.6894  -46.3969 O.2       0 UNK        -0.5000 
      4 N           3.5208  -19.9941  -47.7020 N.am      1 UNK        -0.5000 
      5 CA          3.2577  -18.7088  -47.0468 C.3       1 UNK         0.1400 
      6 C6          1.7818  -18.2924  -47.2523 C.3       23 UNK        -0.0398 
      7 S7          1.1894  -16.9645  -46.1351 S.3       23 UNK        -0.2404 
      8 C8          0.9106  -15.5409  -47.2410 C.3       23 UNK        -0.0205 
      9 C9         -0.0553  -15.8596  -48.3717 C.ar      23 UNK        -0.0193 
     10 C10        -1.4397  -15.8762  -48.1664 C.ar      23 UNK        -0.1150 
     11 C11        -2.3069  -16.2157  -49.2124 C.ar      23 UNK        -0.0193 
     12 C12        -1.7775  -16.5390  -50.4648 C.ar      23 UNK        -0.1150 
     13 C13        -0.3973  -16.5568  -50.6650 C.ar      23 UNK        -0.0193 
     14 C14         0.4545  -16.1752  -49.6309 C.ar      23 UNK        -0.1150 
     15 C15         0.1911  -17.0752  -51.9609 C.3       23 UNK        -0.0205 
     16 S16         0.7961  -18.7769  -51.7250 S.3       23 UNK        -0.2404 
     17 C17        -0.7631  -19.7142  -51.6100 C.3       23 UNK        -0.0398 
     18 CA         -0.9035  -20.5245  -50.2950 C.3       11 UNK         0.1400 
     19 N          -1.2536  -19.7111  -49.1093 N.am      11 UNK        -0.5000 
     20 C          -1.3891  -20.2275  -47.8731 C.2       10 UNK         0.5000 
     21 O          -1.1455  -21.4079  -47.6291 O.2       10 UNK        -0.5000 
     22 CA         -1.9892  -19.3337  -46.7685 C.3       10 UNK         0.1400 
     23 CB         -3.4454  -19.7475  -46.4778 C.3       10 UNK        -0.1800 
     24 N          -1.2141  -19.3015  -45.5208 N.am      10 UNK        -0.5000 
     25 C          -0.9391  -20.2987  -44.6617 C.2       9 UNK         0.5000 
     26 O          -1.3055  -21.4662  -44.7876 O.2       9 UNK        -0.5000 
     27 CA         -0.1561  -19.9088  -43.3932 C.3       9 UNK         0.1400 
     28 CB          1.3592  -19.9090  -43.6432 C.3       9 UNK        -0.1800 
     29 N          -0.5746  -18.6190  -42.8360 N.am      9 UNK        -0.5000 
     30 C          -1.7698  -18.4128  -42.2627 C.2       8 UNK         0.5000 
     31 O          -2.6275  -19.2890  -42.1437 O.2       8 UNK        -0.5000 
     32 CA         -2.0655  -17.0109  -41.7005 C.3       8 UNK         0.1400 
     33 CB         -1.8924  -17.0013  -40.1740 C.3       8 UNK        -0.1800 
     34 N          -1.2641  -15.9278  -42.2724 N.am      8 UNK        -0.5000 
     35 C          -1.4066  -15.4477  -43.5177 C.2       7 UNK         0.5000 
     36 O          -2.0830  -16.0049  -44.3834 O.2       7 UNK        -0.5000 
     37 CA         -0.6901  -14.1140  -43.8384 C.3       7 UNK         0.1400 
     38 CB         -1.4121  -13.2917  -44.9274 C.3       7 UNK        -0.1800 
     39 N          -0.4450  -13.2844  -42.6517 N.am      7 UNK        -0.5000 
     40 C          -1.3596  -12.7724  -41.8088 C.2       6 UNK         0.5000 
     41 O          -2.5751  -12.8576  -41.9903 O.2       6 UNK        -0.5000 
     42 CA         -0.8338  -12.0631  -40.5376 C.3       6 UNK         0.1400 
     43 CB         -1.7615  -12.2824  -39.3237 C.3       6 UNK        -0.1800 
     44 N           0.5521  -12.4006  -40.1842 N.am      6 UNK        -0.5000 
     45 C           1.0459  -13.6168  -39.9121 C.2       5 UNK         0.5000 
     46 O           0.3801  -14.6545  -39.9129 O.2       5 UNK        -0.5000 
     47 CA          2.5650  -13.6905  -39.6756 C.3       5 UNK         0.1400 
     48 CB          2.8733  -14.1891  -38.2554 C.3       5 UNK        -0.1800 
     49 N           3.2285  -14.5620  -40.6481 N.am      5 UNK        -0.5000 
     50 C           3.1574  -14.4414  -41.9809 C.2       4 UNK         0.5000 
     51 O           2.5078  -13.5665  -42.5620 O.2       4 UNK        -0.5000 
     52 CA          3.9108  -15.5097  -42.7956 C.3       4 UNK         0.1400 
     53 CB          3.0509  -16.7766  -42.9251 C.3       4 UNK        -0.1800 
     54 N           4.2691  -15.0418  -44.1356 N.am      4 UNK        -0.5000 
     55 C           5.1324  -14.0498  -44.3977 C.2       3 UNK         0.5000 
     56 O           5.7685  -13.4473  -43.5299 O.2       3 UNK        -0.5000 
     57 CA          5.3274  -13.7107  -45.8908 C.3       3 UNK         0.1400 
     58 CB          6.3724  -12.6017  -46.1350 C.3       3 UNK        -0.1800 
     59 N           5.6341  -14.9024  -46.6899 N.am      3 UNK        -0.5000 
     60 C           6.6757  -15.7357  -46.5482 C.2       2 UNK         0.5000 
     61 O           7.5763  -15.5829  -45.7211 O.2       2 UNK        -0.5000 
     62 CA          6.6743  -16.9714  -47.4718 C.3       2 UNK         0.1400 
     63 CB          7.9748  -17.7896  -47.3790 C.3       2 UNK        -0.1800 
     64 N           5.5475  -17.8524  -47.1667 N.am      2 UNK        -0.5000 
     65 C           4.2759  -17.6537  -47.5313 C.2       1 UNK         0.5000 
     66 O           3.9184  -16.7030  -48.2286 O.2       1 UNK        -0.5000 
     67 C          -1.9129  -21.6694  -50.5255 C.2       11 UNK         0.5000 
     68 O          -1.5214  -22.7437  -50.9810 O.2       11 UNK        -0.5000 
     69 N          -3.1795  -21.4350  -50.1579 N.am      12 UNK        -0.5000 
     70 CA         -4.2670  -22.4063  -50.2032 C.3       12 UNK         0.1400 
     71 CB         -5.5449  -21.7393  -49.6709 C.3       12 UNK        -0.1800 
     72 C          -3.9886  -23.7142  -49.4370 C.2       12 UNK         0.5000 
     73 O          -4.4426  -24.7692  -49.8820 O.2       12 UNK        -0.5000 
     74 N          -3.2446  -23.6208  -48.3257 N.am      13 UNK        -0.5000 
     75 CA         -2.9410  -24.7364  -47.4333 C.3       13 UNK         0.1400 
     76 CB         -3.4013  -24.3803  -46.0110 C.3       13 UNK        -0.1800 
     77 C          -1.4467  -25.0917  -47.4480 C.2       13 UNK         0.5000 
     78 O          -1.1122  -26.2629  -47.6239 O.2       13 UNK        -0.5000 
     79 N          -0.5711  -24.0933  -47.2670 N.am      14 UNK        -0.5000 
     80 CA          0.8725  -24.2799  -47.1055 C.3       14 UNK         0.1400 
     81 CB          1.4867  -23.0186  -46.4797 C.3       14 UNK        -0.1800 
     82 C           1.5866  -24.6419  -48.4177 C.2       14 UNK         0.5000 
     83 O           2.5104  -25.4555  -48.3946 O.2       14 UNK        -0.5000 
     84 N           1.1344  -24.0547  -49.5344 N.am      15 UNK        -0.5000 
     85 CA          1.5948  -24.3943  -50.8858 C.3       15 UNK         0.1400 
     86 CB          1.7783  -23.1040  -51.7041 C.3       15 UNK        -0.1800 
     87 C           0.6343  -25.3771  -51.5883 C.2       15 UNK         0.5000 
     88 O           0.9336  -25.8193  -52.6980 O.2       15 UNK        -0.5000 
     89 N          -0.4918  -25.7003  -50.9311 N.am      16 UNK        -0.5000 
     90 CA         -1.5732  -26.5897  -51.3666 C.3       16 UNK         0.1400 
     91 CB         -1.0823  -28.0509  -51.4205 C.3       16 UNK        -0.1800 
     92 C          -2.2551  -26.1322  -52.6745 C.2       16 UNK         0.5000 
     93 O          -2.6747  -26.9664  -53.4784 O.2       16 UNK        -0.5000 
     94 N          -2.3579  -24.8100  -52.8668 N.am      17 UNK        -0.5000 
     95 CA         -2.9051  -24.1805  -54.0716 C.3       17 UNK         0.1400 
     96 CB         -2.3329  -22.7587  -54.1789 C.3       17 UNK        -0.1800 
     97 C          -4.4487  -24.1668  -54.1359 C.2       17 UNK         0.5000 
     98 O          -4.9933  -23.7260  -55.1490 O.2       17 UNK        -0.5000 
     99 N          -5.1128  -24.6454  -53.0714 N.am      18 UNK        -0.5000 
    100 CA        -6.5607  -24.6736  -52.8284 C.3       18 UNK         0.1400 
    101 CB        -7.3197  -25.3871  -53.9665 C.3       18 UNK        -0.1800 
    102 C         -7.1490  -23.2806  -52.5292 C.2       18 UNK         0.5000 
    103 O         -6.4851  -22.2604  -52.7221 O.2       18 UNK        -0.5000 
    104 N         -8.3923  -23.2668  -52.0265 N.am      19 UNK        -0.5000 
    105 CA        -9.0966  -22.0958  -51.4846 C.3       19 UNK         0.1400 
    106 CB       -10.5117  -22.5144  -51.0596 C.3       19 UNK        -0.1800 
    107 C         -9.1596  -20.8700  -52.4151 C.2       19 UNK         0.5000 
    108 O         -9.1501  -19.7396  -51.9270 O.2       19 UNK        -0.5000 
    109 N         -9.1623  -21.1071  -53.7333 N.am      20 UNK        -0.5000 
    110 CA        -9.1164  -20.0863  -54.7826 C.3       20 UNK         0.1400 
    111 CB        -9.2219  -20.7814  -56.1488 C.3       20 UNK        -0.1800 
    112 C         -7.8696  -19.1755  -54.7377 C.2       20 UNK         0.5000 
    113 O         -7.9198  -18.0686  -55.2755 O.2       20 UNK        -0.5000 
    114 N         -6.7842  -19.6372  -54.0990 N.am      21 UNK        -0.5000 
    115 CA        -5.5500  -18.8756  -53.9133 C.3       21 UNK         0.1400 
    116 CB        -4.4187  -19.8417  -53.5360 C.3       21 UNK        -0.1800 
    117 C         -5.6641  -17.7543  -52.8625 C.2       21 UNK         0.5000 
    118 O         -4.8820  -16.8049  -52.9326 O.2       21 UNK        -0.5000 
    119 N         -6.6046  -17.8789  -51.9140 N.am      22 UNK        -0.5000 
    120 CA        -6.8006  -16.9231  -50.8076 C.3       22 UNK         0.1400 
    121 C         -8.2550  -16.3914  -50.6803 C.2       22 UNK         0.5000 
    122 N         -9.2711  -17.0492  -51.2226 N.am      22 UNK        -0.7600 
    123 O         -8.4671  -15.3371  -50.0874 O.2       22 UNK        -0.5000 
    124 C124       -6.2998  -17.4798  -49.4474 C.3       23 UNK        -0.0398 
    125 S125       -4.5190  -17.8761  -49.4452 S.3       23 UNK        -0.2404 
    126 C126       -3.8132  -16.2538  -49.0001 C.3       23 UNK        -0.0205 
    127 H127        3.7729  -22.2321  -48.9020 H         1 UNK         0.0600 
    128 H128        4.6355  -23.0106  -47.5744 H         1 UNK         0.0600 
    129 H129        5.5299  -22.0862  -48.7836 H         1 UNK         0.0600 
    130 H130        2.9701  -20.1785  -48.5279 H         1 UNK         0.3000 
    131 H131        3.4147  -18.8351  -45.9735 H         1 UNK         0.0600 
    132 H132        1.1540  -19.1568  -47.0415 H         1 UNK         0.0800 
    133 H133        1.5960  -18.0591  -48.2974 H         1 UNK         0.0800 
    134 H134        1.8665  -15.2012  -47.6403 H         1 UNK         0.0800 
    135 H135        0.5245  -14.7069  -46.6577 H         1 UNK         0.0800 
    136 H136       -1.8391  -15.6507  -47.1882 H         1 UNK         0.1150 
    137 H137       -2.4432  -16.8203  -51.2697 H         1 UNK         0.1150 
    138 H138        1.5245  -16.1914  -49.7887 H         1 UNK         0.1150 
    139 H139       -0.5408  -17.0443  -52.7697 H         1 UNK         0.0800 
    140 H140        1.0215  -16.4378  -52.2681 H         1 UNK         0.0800 
    141 H141       -0.7609  -20.3779  -52.4777 H         1 UNK         0.0800 
    142 H142       -1.6225  -19.0584  -51.7498 H         1 UNK         0.0800 
    143 H143        0.0567  -20.9997  -50.0840 H         1 UNK         0.0600 
    144 H144       -1.4606  -18.7349  -49.2742 H         1 UNK         0.3000 
    145 H145       -2.0039  -18.3109  -47.1393 H         1 UNK         0.0600 
    146 H146       -3.9187  -19.0519  -45.7847 H         1 UNK         0.0600 
    147 H147       -4.0450  -19.7602  -47.3857 H         1 UNK         0.0600 
    148 H148       -3.5103  -20.7464  -46.0460 H         1 UNK         0.0600 
    149 H149       -0.8608  -18.3864  -45.2758 H         1 UNK         0.3000 
    150 H150       -0.3598  -20.6754  -42.6422 H         1 UNK         0.0600 
    151 H151        1.9107  -19.7585  -42.7151 H         1 UNK         0.0600 
    152 H152        1.6550  -19.1263  -44.3366 H         1 UNK         0.0600 
    153 H153        1.6874  -20.8599  -44.0643 H         1 UNK         0.0600 
    154 H154        0.0745  -17.8493  -42.8922 H         1 UNK         0.3000 
    155 H155       -3.1135  -16.7948  -41.9192 H         1 UNK         0.0600 
    156 H156       -0.8580  -17.1950  -39.8871 H         1 UNK         0.0600 
    157 H157       -2.1827  -16.0396  -39.7500 H         1 UNK         0.0600 
    158 H158       -2.5132  -17.7641  -39.7023 H         1 UNK         0.0600 
    159 H159       -0.6850  -15.4134  -41.6175 H         1 UNK         0.3000 
    160 H160        0.2929  -14.3877  -44.2234 H         1 UNK         0.0600 
    161 H161       -2.4244  -13.0199  -44.6280 H         1 UNK         0.0600 
    162 H162       -1.4958  -13.8481  -45.8587 H         1 UNK         0.0600 
    163 H163       -0.8700  -12.3728  -45.1500 H         1 UNK         0.0600 
    164 H164        0.5365  -13.1686  -42.4165 H         1 UNK         0.3000 
    165 H165       -0.8376  -10.9969  -40.7678 H         1 UNK         0.0600 
    166 H166       -1.3816  -11.7711  -38.4392 H         1 UNK         0.0600 
    167 H167       -2.7612  -11.8914  -39.5163 H         1 UNK         0.0600 
    168 H168       -1.8662  -13.3403  -39.0807 H         1 UNK         0.0600 
    169 H169        1.1967  -11.6221  -40.2014 H         1 UNK         0.3000 
    170 H170        2.9917  -12.6915  -39.7856 H         1 UNK         0.0600 
    171 H171        2.5076  -15.2046  -38.0971 H         1 UNK         0.0600 
    172 H172        3.9454  -14.1831  -38.0578 H         1 UNK         0.0600 
    173 H173        2.4020  -13.5505  -37.5072 H         1 UNK         0.0600 
    174 H174        3.7545  -15.3312  -40.2602 H         1 UNK         0.3000 
    175 H175        4.8349  -15.7629  -42.2717 H         1 UNK         0.0600 
    176 H176        3.5464  -17.5337  -43.5331 H         1 UNK         0.0600 
    177 H177        2.0834  -16.5575  -43.3764 H         1 UNK         0.0600 
    178 H178        2.8586  -17.2212  -41.9479 H         1 UNK         0.0600 
    179 H179        3.7770  -15.4675  -44.9059 H         1 UNK         0.3000 
    180 H180        4.3660  -13.3381  -46.2476 H         1 UNK         0.0600 
    181 H181        7.3607  -12.8844  -45.7716 H         1 UNK         0.0600 
    182 H182        6.0885  -11.6807  -45.6245 H         1 UNK         0.0600 
    183 H183        6.4595  -12.3699  -47.1965 H         1 UNK         0.0600 
    184 H184        4.9332  -15.1687  -47.3747 H         1 UNK         0.3000 
    185 H185        6.5796  -16.6141  -48.4994 H         1 UNK         0.0600 
    186 H186        8.8428  -17.1731  -47.6160 H         1 UNK         0.0600 
    187 H187        8.1238  -18.1997  -46.3793 H         1 UNK         0.0600 
    188 H188        7.9667  -18.6218  -48.0833 H         1 UNK         0.0600 
    189 H189        5.7559  -18.6845  -46.6254 H         1 UNK         0.3000 
    190 H190       -3.4114  -20.5208  -49.7981 H         1 UNK         0.3000 
    191 H191       -4.4118  -22.6671  -51.2505 H         1 UNK         0.0600 
    192 H192       -5.8347  -20.8894  -50.2897 H         1 UNK         0.0600 
    193 H193       -6.3797  -22.4404  -49.6703 H         1 UNK         0.0600 
    194 H194       -5.4191  -21.3839  -48.6480 H         1 UNK         0.0600 
    195 H195       -2.8457  -22.7240  -48.0780 H         1 UNK         0.3000 
    196 H196       -3.4882  -25.6305  -47.7399 H         1 UNK         0.0600 
    197 H197       -3.1701  -25.1839  -45.3107 H         1 UNK         0.0600 
    198 H198       -4.4788  -24.2189  -45.9770 H         1 UNK         0.0600 
    199 H199       -2.9179  -23.4743  -45.6441 H         1 UNK         0.0600 
    200 H200       -0.9044  -23.1345  -47.1764 H         1 UNK         0.3000 
    201 H201        1.0277  -25.1053  -46.4072 H         1 UNK         0.0600 
    202 H202        0.9982  -22.7729  -45.5374 H         1 UNK         0.0600 
    203 H203        1.3997  -22.1536  -47.1376 H         1 UNK         0.0600 
    204 H204        2.5445  -23.1668  -46.2632 H         1 UNK         0.0600 
    205 H205        0.3603  -23.4086  -49.4671 H         1 UNK         0.3000 
    206 H206        2.5685  -24.8857  -50.8352 H         1 UNK         0.0600 
    207 H207        2.4208  -22.3928  -51.1852 H         1 UNK         0.0600 
    208 H208        2.2467  -23.3208  -52.6648 H         1 UNK         0.0600 
    209 H209        0.8323  -22.6096  -51.9160 H         1 UNK         0.0600 
    210 H210       -0.6238  -25.2771  -50.0249 H         1 UNK         0.3000 
    211 H211       -2.3402  -26.5319  -50.5930 H         1 UNK         0.0600 
    212 H212       -0.3467  -28.2021  -52.2111 H         1 UNK         0.0600 
    213 H213       -1.9098  -28.7361  -51.6074 H         1 UNK         0.0600 
    214 H214       -0.6258  -28.3466  -50.4758 H         1 UNK         0.0600 
    215 H215       -1.9860  -24.1809  -52.1594 H         1 UNK         0.3000 
    216 H216       -2.5565  -24.7434  -54.9399 H         1 UNK         0.0600 
    217 H217       -2.6830  -22.1283  -53.3631 H         1 UNK         0.0600 
    218 H218       -2.6316  -22.2843  -55.1143 H         1 UNK         0.0600 
    219 H219       -1.2429  -22.7668  -54.1525 H         1 UNK         0.0600 
    220 H220       -4.5510  -24.9552  -52.2901 H         1 UNK         0.3000 
    221 H221       -6.6863  -25.2665  -51.9212 H         1 UNK         0.0600 
    222 H222       -7.3537  -24.7870  -54.8761 H         1 UNK         0.0600 
    223 H223       -6.8557  -26.3426  -54.2117 H         1 UNK         0.0600 
    224 H224       -8.3511  -25.5952  -53.6809 H         1 UNK         0.0600 
    225 H225       -8.8705  -24.1492  -51.9156 H         1 UNK         0.3000 
    226 H226       -8.5558  -21.7823  -50.5901 H         1 UNK         0.0600 
    227 H227      -11.0919  -22.8851  -51.9056 H         1 UNK         0.0600 
    228 H228      -10.4819  -23.2980  -50.3023 H         1 UNK         0.0600 
    229 H229      -11.0573  -21.6725  -50.6308 H         1 UNK         0.0600 
    230 H230       -9.1389  -22.0686  -54.0388 H         1 UNK         0.3000 
    231 H231       -9.9899  -19.4439  -54.6550 H         1 UNK         0.0600 
    232 H232       -8.3859  -21.4616  -56.3175 H         1 UNK         0.0600 
    233 H233       -9.2217  -20.0527  -56.9605 H         1 UNK         0.0600 
    234 H234      -10.1452  -21.3554  -56.2303 H         1 UNK         0.0600 
    235 H235       -6.8079  -20.5646  -53.6830 H         1 UNK         0.3000 
    236 H236       -5.2903  -18.4099  -54.8663 H         1 UNK         0.0600 
    237 H237       -4.3284  -20.6359  -54.2762 H         1 UNK         0.0600 
    238 H238       -3.4600  -19.3245  -53.4892 H         1 UNK         0.0600 
    239 H239       -4.5917  -20.3051  -52.5643 H         1 UNK         0.0600 
    240 H240       -7.2350  -18.6691  -51.9464 H         1 UNK         0.3000 
    241 H241       -6.2158  -16.0252  -51.0136 H         1 UNK         0.0600 
    242 H242      -10.1985  -16.6666  -51.1323 H         1 UNK         0.3800 
    243 H243       -9.1592  -17.9783  -51.6221 H         1 UNK         0.3800 
    244 H244       -6.4945  -16.7718  -48.6396 H         1 UNK         0.0800 
    245 H245       -6.8479  -18.3879  -49.1912 H         1 UNK         0.0800 
    246 H246       -4.2676  -15.4755  -49.6141 H         1 UNK         0.0800 
    247 H247       -4.0666  -16.0270  -47.9632 H         1 UNK         0.0800 
@<TRIPOS>BOND
     1    1    2 1    
     2    1  127 1    
     3    1  128 1    
     4    1  129 1    
     5    2    3 2    
     6    2    4 am   BACKBONE|DICT|INTERRES
     7    4    5 1    
     8    4  130 1    
     9    5    6 1    
    10    5   65 1    
    11    5  131 1    
    12    6    7 1    
    13    6  132 1    
    14    6  133 1    
    15    7    8 1    
    16    8    9 1    
    17    8  134 1    
    18    8  135 1    
    19    9   10 ar   
    20    9   14 ar   
    21   10   11 ar   
    22   10  136 1    
    23   11   12 ar   
    24   11  126 1    
    25   12   13 ar   
    26   12  137 1    
    27   13   14 ar   
    28   13   15 1    
    29   14  138 1    
    30   15   16 1    
    31   15  139 1    
    32   15  140 1    
    33   16   17 1    
    34   17   18 1    
    35   17  141 1    
    36   17  142 1    
    37   18   19 1    
    38   18   67 1    
    39   18  143 1    
    40   19   20 am   BACKBONE|DICT|INTERRES
    41   19  144 1    
    42   20   21 2    
    43   20   22 1    
    44   22   23 1    
    45   22   24 1    
    46   22  145 1    
    47   23  146 1    
    48   23  147 1    
    49   23  148 1    
    50   24   25 am   BACKBONE|DICT|INTERRES
    51   24  149 1    
    52   25   26 2    
    53   25   27 1    
    54   27   28 1    
    55   27   29 1    
    56   27  150 1    
    57   28  151 1    
    58   28  152 1    
    59   28  153 1    
    60   29   30 am   BACKBONE|DICT|INTERRES
    61   29  154 1    
    62   30   31 2    
    63   30   32 1    
    64   32   33 1    
    65   32   34 1    
    66   32  155 1    
    67   33  156 1    
    68   33  157 1    
    69   33  158 1    
    70   34   35 am   BACKBONE|DICT|INTERRES
    71   34  159 1    
    72   35   36 2    
    73   35   37 1    
    74   37   38 1    
    75   37   39 1    
    76   37  160 1    
    77   38  161 1    
    78   38  162 1    
    79   38  163 1    
    80   39   40 am   BACKBONE|DICT|INTERRES
    81   39  164 1    
    82   40   41 2    
    83   40   42 1    
    84   42   43 1    
    85   42   44 1    
    86   42  165 1    
    87   43  166 1    
    88   43  167 1    
    89   43  168 1    
    90   44   45 am   BACKBONE|DICT|INTERRES
    91   44  169 1    
    92   45   46 2    
    93   45   47 1    
    94   47   48 1    
    95   47   49 1    
    96   47  170 1    
    97   48  171 1    
    98   48  172 1    
    99   48  173 1    
   100   49   50 am   BACKBONE|DICT|INTERRES
   101   49  174 1    
   102   50   51 2    
   103   50   52 1    
   104   52   53 1    
   105   52   54 1    
   106   52  175 1    
   107   53  176 1    
   108   53  177 1    
   109   53  178 1    
   110   54   55 am   BACKBONE|DICT|INTERRES
   111   54  179 1    
   112   55   56 2    
   113   55   57 1    
   114   57   58 1    
   115   57   59 1    
   116   57  180 1    
   117   58  181 1    
   118   58  182 1    
   119   58  183 1    
   120   59   60 am   BACKBONE|DICT|INTERRES
   121   59  184 1    
   122   60   61 2    
   123   60   62 1    
   124   62   63 1    
   125   62   64 1    
   126   62  185 1    
   127   63  186 1    
   128   63  187 1    
   129   63  188 1    
   130   64   65 am   BACKBONE|DICT|INTERRES
   131   64  189 1    
   132   65   66 2    
   133   67   68 2    
   134   67   69 am   BACKBONE|DICT|INTERRES
   135   69   70 1    
   136   69  190 1    
   137   70   71 1    
   138   70   72 1    
   139   70  191 1    
   140   71  192 1    
   141   71  193 1    
   142   71  194 1    
   143   72   73 2    
   144   72   74 am   BACKBONE|DICT|INTERRES
   145   74   75 1    
   146   74  195 1    
   147   75   76 1    
   148   75   77 1    
   149   75  196 1    
   150   76  197 1    
   151   76  198 1    
   152   76  199 1    
   153   77   78 2    
   154   77   79 am   BACKBONE|DICT|INTERRES
   155   79   80 1    
   156   79  200 1    
   157   80   81 1    
   158   80   82 1    
   159   80  201 1    
   160   81  202 1    
   161   81  203 1    
   162   81  204 1    
   163   82   83 2    
   164   82   84 am   BACKBONE|DICT|INTERRES
   165   84   85 1    
   166   84  205 1    
   167   85   86 1    
   168   85   87 1    
   169   85  206 1    
   170   86  207 1    
   171   86  208 1    
   172   86  209 1    
   173   87   88 2    
   174   87   89 am   BACKBONE|DICT|INTERRES
   175   89   90 1    
   176   89  210 1    
   177   90   91 1    
   178   90   92 1    
   179   90  211 1    
   180   91  212 1    
   181   91  213 1    
   182   91  214 1    
   183   92   93 2    
   184   92   94 am   BACKBONE|DICT|INTERRES
   185   94   95 1    
   186   94  215 1    
   187   95   96 1    
   188   95   97 1    
   189   95  216 1    
   190   96  217 1    
   191   96  218 1    
   192   96  219 1    
   193   97   98 2    
   194   97   99 am   BACKBONE|DICT|INTERRES
   195   99  100 1    
   196   99  220 1    
   197  100  101 1    
   198  100  102 1    
   199  100  221 1    
   200  101  222 1    
   201  101  223 1    
   202  101  224 1    
   203  102  103 2    
   204  102  104 am   BACKBONE|DICT|INTERRES
   205  104  105 1    
   206  104  225 1    
   207  105  106 1    
   208  105  107 1    
   209  105  226 1    
   210  106  227 1    
   211  106  228 1    
   212  106  229 1    
   213  107  108 2    
   214  107  109 am   BACKBONE|DICT|INTERRES
   215  109  110 1    
   216  109  230 1    
   217  110  111 1    
   218  110  112 1    
   219  110  231 1    
   220  111  232 1    
   221  111  233 1    
   222  111  234 1    
   223  112  113 2    
   224  112  114 am   BACKBONE|DICT|INTERRES
   225  114  115 1    
   226  114  235 1    
   227  115  116 1    
   228  115  117 1    
   229  115  236 1    
   230  116  237 1    
   231  116  238 1    
   232  116  239 1    
   233  117  118 2    
   234  117  119 am   BACKBONE|DICT|INTERRES
   235  119  120 1    
   236  119  240 1    
   237  120  121 1    
   238  120  124 1    
   239  120  241 1    
   240  121  122 am   BACKBONE|DICT|INTERRES
   241  121  123 2    
   242  122  242 1    
   243  122  243 1    
   244  124  125 1    
   245  124  244 1    
   246  124  245 1    
   247  125  126 1    
   248  126  246 1    
   249  126  247 1    
@<TRIPOS>SUBSTRUCTURE
     1 UNK         1 GROUP             0       ****    0 ROOT    
