@<TRIPOS>MOLECULE
3R540
247   249    1
SMALL
USER_CHARGES


@<TRIPOS>ATOM
      1 CA          2.9597  -10.1993  -49.6772 C.3       0 UNK        -0.1800 
      2 C           2.3807  -11.5510  -49.2848 C.2       0 UNK         0.5000 
      3 O           2.1289  -11.7907  -48.1036 O.2       0 UNK        -0.5000 
      4 N           2.1697  -12.4357  -50.2674 N.am      1 UNK        -0.5000 
      5 CA          1.5782  -13.7639  -50.0929 C.3       1 UNK         0.1400 
      6 C6          2.0183  -14.7283  -51.2228 C.3       23 UNK        -0.0398 
      7 S7          1.6504  -16.4746  -50.8362 S.3       23 UNK        -0.2404 
      8 C8          3.3126  -17.2003  -50.7003 C.3       23 UNK        -0.0205 
      9 C9          3.2225  -18.7155  -50.6170 C.ar      23 UNK        -0.0193 
     10 C10         2.9363  -19.4537  -51.7680 C.ar      23 UNK        -0.1150 
     11 C11         2.7792  -20.8411  -51.7065 C.ar      23 UNK        -0.0193 
     12 C12         2.9687  -21.4971  -50.4876 C.ar      23 UNK        -0.1150 
     13 C13         3.2885  -20.7733  -49.3346 C.ar      23 UNK        -0.0193 
     14 C14         3.4014  -19.3807  -49.4005 C.ar      23 UNK        -0.1150 
     15 C15         3.5138  -21.5010  -48.0213 C.3       23 UNK        -0.0205 
     16 S16         1.9422  -21.7892  -47.1553 S.3       23 UNK        -0.2404 
     17 C17         2.0714  -23.5673  -46.7703 C.3       23 UNK        -0.0398 
     18 CA          1.1710  -24.0421  -45.6044 C.3       11 UNK         0.1400 
     19 N           1.5041  -23.3837  -44.3366 N.am      11 UNK        -0.5000 
     20 C           1.6680  -24.0103  -43.1640 C.2       10 UNK         0.5000 
     21 O           1.5791  -25.2319  -43.0303 O.2       10 UNK        -0.5000 
     22 CA          1.9444  -23.1231  -41.9313 C.3       10 UNK         0.1400 
     23 CB          2.6907  -23.8670  -40.8044 C.3       10 UNK        -0.1800 
     24 N           2.6085  -21.8579  -42.2557 N.am      10 UNK        -0.5000 
     25 C           3.8360  -21.6711  -42.7628 C.2       9 UNK         0.5000 
     26 O           4.6199  -22.5855  -43.0198 O.2       9 UNK        -0.5000 
     27 CA          4.2631  -20.2147  -43.0444 C.3       9 UNK         0.1400 
     28 CB          4.3215  -19.9595  -44.5579 C.3       9 UNK        -0.1800 
     29 N           3.3799  -19.2172  -42.4351 N.am      9 UNK        -0.5000 
     30 C           3.3395  -18.9156  -41.1303 C.2       8 UNK         0.5000 
     31 O           4.1044  -19.3958  -40.2932 O.2       8 UNK        -0.5000 
     32 CA          2.2281  -17.9471  -40.6802 C.3       8 UNK         0.1400 
     33 CB          2.6676  -16.4874  -40.8679 C.3       8 UNK        -0.1800 
     34 N           0.9571  -18.1730  -41.3757 N.am      8 UNK        -0.5000 
     35 C           0.2190  -19.2877  -41.2677 C.2       7 UNK         0.5000 
     36 O           0.5174  -20.2353  -40.5415 O.2       7 UNK        -0.5000 
     37 CA         -1.0345  -19.3908  -42.1537 C.3       7 UNK         0.1400 
     38 CB         -2.2122  -18.6169  -41.5446 C.3       7 UNK        -0.1800 
     39 N          -0.7923  -18.9332  -43.5215 N.am      7 UNK        -0.5000 
     40 C           0.0139  -19.5502  -44.3973 C.2       6 UNK         0.5000 
     41 O           0.5782  -20.6199  -44.1642 O.2       6 UNK        -0.5000 
     42 CA          0.2591  -18.8337  -45.7393 C.3       6 UNK         0.1400 
     43 CB         -0.8455  -19.1686  -46.7527 C.3       6 UNK        -0.1800 
     44 N           0.3785  -17.3823  -45.5887 N.am      6 UNK        -0.5000 
     45 C           1.3538  -16.7782  -44.8936 C.2       5 UNK         0.5000 
     46 O           2.2875  -17.3776  -44.3632 O.2       5 UNK        -0.5000 
     47 CA          1.2312  -15.2588  -44.7010 C.3       5 UNK         0.1400 
     48 CB          1.7844  -14.5008  -45.9170 C.3       5 UNK        -0.1800 
     49 N          -0.1543  -14.8647  -44.4423 N.am      5 UNK        -0.5000 
     50 C          -0.7990  -15.1110  -43.2922 C.2       4 UNK         0.5000 
     51 O          -0.2712  -15.6523  -42.3213 O.2       4 UNK        -0.5000 
     52 CA         -2.2887  -14.7232  -43.2234 C.3       4 UNK         0.1400 
     53 CB         -2.4437  -13.2631  -42.7735 C.3       4 UNK        -0.1800 
     54 N          -2.9858  -14.9112  -44.4961 N.am      4 UNK        -0.5000 
     55 C          -3.2120  -16.0998  -45.0745 C.2       3 UNK         0.5000 
     56 O          -2.9103  -17.1756  -44.5598 O.2       3 UNK        -0.5000 
     57 CA         -3.8162  -16.0720  -46.4943 C.3       3 UNK         0.1400 
     58 CB         -5.3501  -16.0911  -46.4297 C.3       3 UNK        -0.1800 
     59 N          -3.3726  -14.9170  -47.2864 N.am      3 UNK        -0.5000 
     60 C          -2.0926  -14.6661  -47.5924 C.2       2 UNK         0.5000 
     61 O          -1.1655  -15.4110  -47.2636 O.2       2 UNK        -0.5000 
     62 CA         -1.7995  -13.3386  -48.3133 C.3       2 UNK         0.1400 
     63 CB         -2.0376  -12.1516  -47.3649 C.3       2 UNK        -0.1800 
     64 N          -0.4034  -13.3059  -48.7401 N.am      2 UNK        -0.5000 
     65 C           0.0438  -13.6404  -49.9532 C.2       1 UNK         0.5000 
     66 O          -0.6890  -13.8120  -50.9286 O.2       1 UNK        -0.5000 
     67 C          -0.3324  -23.9254  -45.9345 C.2       11 UNK         0.5000 
     68 O          -0.7724  -24.5005  -46.9310 O.2       11 UNK        -0.5000 
     69 N          -1.1046  -23.2283  -45.0848 N.am      12 UNK        -0.5000 
     70 CA         -2.5465  -22.9744  -45.2097 C.3       12 UNK         0.1400 
     71 CB         -2.9897  -22.0418  -44.0722 C.3       12 UNK        -0.1800 
     72 C          -3.4495  -24.2282  -45.2656 C.2       12 UNK         0.5000 
     73 O          -4.6320  -24.1118  -45.5882 O.2       12 UNK        -0.5000 
     74 N          -2.8899  -25.4058  -44.9593 N.am      13 UNK        -0.5000 
     75 CA         -3.5236  -26.7076  -45.1648 C.3       13 UNK         0.1400 
     76 CB         -2.7271  -27.7709  -44.3929 C.3       13 UNK        -0.1800 
     77 C          -3.6376  -27.0969  -46.6552 C.2       13 UNK         0.5000 
     78 O          -4.4965  -27.9132  -46.9922 O.2       13 UNK        -0.5000 
     79 N          -2.7773  -26.5252  -47.5103 N.am      14 UNK        -0.5000 
     80 CA         -2.7294  -26.7743  -48.9509 C.3       14 UNK         0.1400 
     81 CB         -1.3890  -27.4401  -49.3029 C.3       14 UNK        -0.1800 
     82 C          -2.9180  -25.4764  -49.7527 C.2       14 UNK         0.5000 
     83 O          -3.6941  -25.4652  -50.7089 O.2       14 UNK        -0.5000 
     84 N          -2.2113  -24.4095  -49.3596 N.am      15 UNK        -0.5000 
     85 CA         -2.3022  -23.0850  -49.9690 C.3       15 UNK         0.1400 
     86 CB         -1.0279  -22.2952  -49.6266 C.3       15 UNK        -0.1800 
     87 C          -3.5415  -22.3279  -49.4641 C.2       15 UNK         0.5000 
     88 O          -3.9475  -22.5077  -48.3161 O.2       15 UNK        -0.5000 
     89 N          -4.0860  -21.4557  -50.3134 N.am      16 UNK        -0.5000 
     90 CA         -5.1037  -20.4686  -49.9563 C.3       16 UNK         0.1400 
     91 CB         -6.2916  -20.6006  -50.9164 C.3       16 UNK        -0.1800 
     92 C          -4.5150  -19.0529  -50.0416 C.2       16 UNK         0.5000 
     93 O          -4.8682  -18.1998  -49.2277 O.2       16 UNK        -0.5000 
     94 N          -3.6327  -18.8348  -51.0293 N.am      17 UNK        -0.5000 
     95 CA         -2.8608  -17.6326  -51.3521 C.3       17 UNK         0.1400 
     96 CB         -1.9206  -17.2573  -50.1949 C.3       17 UNK        -0.1800 
     97 C          -3.6991  -16.4300  -51.8253 C.2       17 UNK         0.5000 
     98 O          -3.3526  -15.8066  -52.8285 O.2       17 UNK        -0.5000 
     99 N          -4.7823  -16.1237  -51.1047 N.am      18 UNK        -0.5000 
    100 CA        -5.6267  -14.9540  -51.3238 C.3       18 UNK         0.1400 
    101 CB        -6.4653  -14.6989  -50.0621 C.3       18 UNK        -0.1800 
    102 C         -6.5331  -15.0505  -52.5644 C.2       18 UNK         0.5000 
    103 O         -6.7202  -14.0355  -53.2375 O.2       18 UNK        -0.5000 
    104 N         -7.1121  -16.2327  -52.8284 N.am      19 UNK        -0.5000 
    105 CA        -8.1942  -16.3823  -53.8114 C.3       19 UNK         0.1400 
    106 CB        -9.5310  -15.9703  -53.1591 C.3       19 UNK        -0.1800 
    107 C         -8.2890  -17.7754  -54.4648 C.2       19 UNK         0.5000 
    108 O         -9.2887  -18.0463  -55.1331 O.2       19 UNK        -0.5000 
    109 N         -7.2794  -18.6377  -54.2915 N.am      20 UNK        -0.5000 
    110 CA        -7.2339  -19.9708  -54.8983 C.3       20 UNK         0.1400 
    111 CB        -8.1667  -20.9573  -54.1569 C.3       20 UNK        -0.1800 
    112 C         -5.7713  -20.4269  -55.0249 C.2       20 UNK         0.5000 
    113 O         -4.9654  -19.6777  -55.5801 O.2       20 UNK        -0.5000 
    114 N         -5.4498  -21.6318  -54.5294 N.am      21 UNK        -0.5000 
    115 CA        -4.1252  -22.2606  -54.5626 C.3       21 UNK         0.1400 
    116 CB        -4.1798  -23.5794  -53.7763 C.3       21 UNK        -0.1800 
    117 C         -3.0249  -21.3482  -53.9941 C.2       21 UNK         0.5000 
    118 O         -3.1805  -20.8506  -52.8780 O.2       21 UNK        -0.5000 
    119 N         -1.9645  -21.1318  -54.7786 N.am      22 UNK        -0.5000 
    120 CA        -0.8713  -20.1727  -54.5311 C.3       22 UNK         0.1400 
    121 C         -1.2467  -18.6753  -54.7580 C.2       22 UNK         0.5000 
    122 N         -2.4631  -18.3260  -55.1573 N.am      22 UNK        -0.7600 
    123 O         -0.3995  -17.8020  -54.5979 O.2       22 UNK        -0.5000 
    124 C124       -0.1422  -20.3738  -53.1719 C.3       23 UNK        -0.0398 
    125 S125        0.6143  -22.0266  -52.9890 S.3       23 UNK        -0.2404 
    126 C126        2.3944  -21.6275  -52.9528 C.3       23 UNK        -0.0205 
    127 H127        2.2731   -9.4014  -49.3942 H         1 UNK         0.0600 
    128 H128        3.1383  -10.1301  -50.7505 H         1 UNK         0.0600 
    129 H129        3.9067  -10.0339  -49.1634 H         1 UNK         0.0600 
    130 H130        2.3687  -12.1674  -51.2208 H         1 UNK         0.3000 
    131 H131        1.9628  -14.1789  -49.1583 H         1 UNK         0.0600 
    132 H132        1.5459  -14.4696  -52.1720 H         1 UNK         0.0800 
    133 H133        3.0914  -14.6290  -51.3911 H         1 UNK         0.0800 
    134 H134        3.8189  -16.7908  -49.8248 H         1 UNK         0.0800 
    135 H135        3.9100  -16.9221  -51.5699 H         1 UNK         0.0800 
    136 H136        2.8001  -18.9363  -52.7073 H         1 UNK         0.1150 
    137 H137        2.8554  -22.5708  -50.4336 H         1 UNK         0.1150 
    138 H138        3.6248  -18.8170  -48.5055 H         1 UNK         0.1150 
    139 H139        4.0260  -22.4440  -48.2173 H         1 UNK         0.0800 
    140 H140        4.1776  -20.9237  -47.3773 H         1 UNK         0.0800 
    141 H141        3.1086  -23.7958  -46.5213 H         1 UNK         0.0800 
    142 H142        1.8524  -24.1321  -47.6783 H         1 UNK         0.0800 
    143 H143        1.3531  -25.1140  -45.5054 H         1 UNK         0.0600 
    144 H144        1.5344  -22.3678  -44.3562 H         1 UNK         0.3000 
    145 H145        0.9631  -22.8482  -41.5426 H         1 UNK         0.0600 
    146 H146        2.8632  -23.2134  -39.9492 H         1 UNK         0.0600 
    147 H147        2.1117  -24.7193  -40.4473 H         1 UNK         0.0600 
    148 H148        3.6568  -24.2464  -41.1382 H         1 UNK         0.0600 
    149 H149        2.0443  -21.0322  -42.1036 H         1 UNK         0.3000 
    150 H150        5.2672  -20.0834  -42.6364 H         1 UNK         0.0600 
    151 H151        4.9916  -20.6657  -45.0493 H         1 UNK         0.0600 
    152 H152        4.6887  -18.9566  -44.7760 H         1 UNK         0.0600 
    153 H153        3.3379  -20.0618  -45.0169 H         1 UNK         0.0600 
    154 H154        2.7678  -18.7110  -43.0700 H         1 UNK         0.3000 
    155 H155        2.0569  -18.1135  -39.6147 H         1 UNK         0.0600 
    156 H156        3.5940  -16.2863  -40.3286 H         1 UNK         0.0600 
    157 H157        1.9140  -15.7968  -40.4888 H         1 UNK         0.0600 
    158 H158        2.8410  -16.2503  -41.9175 H         1 UNK         0.0600 
    159 H159        0.6152  -17.4126  -41.9549 H         1 UNK         0.3000 
    160 H160       -1.3141  -20.4448  -42.1958 H         1 UNK         0.0600 
    161 H161       -2.0036  -17.5497  -41.4759 H         1 UNK         0.0600 
    162 H162       -2.4338  -18.9733  -40.5380 H         1 UNK         0.0600 
    163 H163       -3.1160  -18.7434  -42.1411 H         1 UNK         0.0600 
    164 H164       -1.2898  -18.1011  -43.8208 H         1 UNK         0.3000 
    165 H165        1.2077  -19.1948  -46.1382 H         1 UNK         0.0600 
    166 H166       -0.6296  -18.7288  -47.7261 H         1 UNK         0.0600 
    167 H167       -0.9288  -20.2469  -46.8941 H         1 UNK         0.0600 
    168 H168       -1.8200  -18.8052  -46.4277 H         1 UNK         0.0600 
    169 H169       -0.3284  -16.8074  -46.0353 H         1 UNK         0.3000 
    170 H170        1.8318  -14.9788  -43.8330 H         1 UNK         0.0600 
    171 H171        2.8512  -14.6925  -46.0372 H         1 UNK         0.0600 
    172 H172        1.2987  -14.8041  -46.8431 H         1 UNK         0.0600 
    173 H173        1.6591  -13.4239  -45.8045 H         1 UNK         0.0600 
    174 H174       -0.6731  -14.4962  -45.2258 H         1 UNK         0.3000 
    175 H175       -2.7654  -15.3632  -42.4781 H         1 UNK         0.0600 
    176 H176       -1.9499  -13.0959  -41.8153 H         1 UNK         0.0600 
    177 H177       -2.0068  -12.5699  -43.4936 H         1 UNK         0.0600 
    178 H178       -3.4937  -12.9988  -42.6467 H         1 UNK         0.0600 
    179 H179       -3.2745  -14.0771  -44.9847 H         1 UNK         0.3000 
    180 H180       -3.4865  -16.9775  -47.0076 H         1 UNK         0.0600 
    181 H181       -5.7485  -15.1811  -45.9796 H         1 UNK         0.0600 
    182 H182       -5.7043  -16.9351  -45.8362 H         1 UNK         0.0600 
    183 H183       -5.7842  -16.1958  -47.4237 H         1 UNK         0.0600 
    184 H184       -4.0873  -14.2635  -47.5707 H         1 UNK         0.3000 
    185 H185       -2.4671  -13.2521  -49.1731 H         1 UNK         0.0600 
    186 H186       -3.0799  -12.0964  -47.0490 H         1 UNK         0.0600 
    187 H187       -1.4233  -12.2217  -46.4660 H         1 UNK         0.0600 
    188 H188       -1.8013  -11.2067  -47.8548 H         1 UNK         0.0600 
    189 H189        0.2821  -13.1333  -48.0163 H         1 UNK         0.3000 
    190 H190       -0.6406  -22.7721  -44.3123 H         1 UNK         0.3000 
    191 H191       -2.6886  -22.4395  -46.1477 H         1 UNK         0.0600 
    192 H192       -2.7315  -22.4465  -43.0931 H         1 UNK         0.0600 
    193 H193       -4.0684  -21.8802  -44.0878 H         1 UNK         0.0600 
    194 H194       -2.5270  -21.0622  -44.1731 H         1 UNK         0.0600 
    195 H195       -1.9196  -25.4117  -44.6828 H         1 UNK         0.3000 
    196 H196       -4.5343  -26.6699  -44.7530 H         1 UNK         0.0600 
    197 H197       -3.1856  -28.7551  -44.4979 H         1 UNK         0.0600 
    198 H198       -2.6923  -27.5421  -43.3275 H         1 UNK         0.0600 
    199 H199       -1.7009  -27.8465  -44.7547 H         1 UNK         0.0600 
    200 H200       -2.1188  -25.8393  -47.1537 H         1 UNK         0.3000 
    201 H201       -3.5302  -27.4541  -49.2494 H         1 UNK         0.0600 
    202 H202       -1.2848  -28.4013  -48.7994 H         1 UNK         0.0600 
    203 H203       -0.5408  -26.8179  -49.0137 H         1 UNK         0.0600 
    204 H204       -1.3131  -27.6241  -50.3753 H         1 UNK         0.0600 
    205 H205       -1.6270  -24.4759  -48.5303 H         1 UNK         0.3000 
    206 H206       -2.3632  -23.1927  -51.0544 H         1 UNK         0.0600 
    207 H207       -0.1342  -22.8094  -49.9805 H         1 UNK         0.0600 
    208 H208       -1.0395  -21.3086  -50.0911 H         1 UNK         0.0600 
    209 H209       -0.9228  -22.1482  -48.5512 H         1 UNK         0.0600 
    210 H210       -3.6873  -21.3619  -51.2450 H         1 UNK         0.3000 
    211 H211       -5.4630  -20.6220  -48.9367 H         1 UNK         0.0600 
    212 H212       -7.0806  -19.8902  -50.6663 H         1 UNK         0.0600 
    213 H213       -6.7238  -21.6003  -50.8723 H         1 UNK         0.0600 
    214 H214       -5.9878  -20.4091  -51.9449 H         1 UNK         0.0600 
    215 H215       -3.4721  -19.5995  -51.6824 H         1 UNK         0.3000 
    216 H216       -2.2275  -17.9106  -52.1934 H         1 UNK         0.0600 
    217 H217       -1.3523  -16.3590  -50.4310 H         1 UNK         0.0600 
    218 H218       -1.2013  -18.0531  -50.0031 H         1 UNK         0.0600 
    219 H219       -2.4629  -17.0659  -49.2707 H         1 UNK         0.0600 
    220 H220       -4.9867  -16.7107  -50.2989 H         1 UNK         0.3000 
    221 H221       -4.9726  -14.0908  -51.4664 H         1 UNK         0.0600 
    222 H222       -7.0913  -15.5568  -49.8133 H         1 UNK         0.0600 
    223 H223       -5.8280  -14.4873  -49.2043 H         1 UNK         0.0600 
    224 H224       -7.1231  -13.8389  -50.1950 H         1 UNK         0.0600 
    225 H225       -6.9276  -17.0173  -52.2206 H         1 UNK         0.3000 
    226 H226       -8.0070  -15.7038  -54.6462 H         1 UNK         0.0600 
    227 H227       -9.4950  -14.9462  -52.7876 H         1 UNK         0.0600 
    228 H228      -10.3557  -16.0183  -53.8712 H         1 UNK         0.0600 
    229 H229       -9.7811  -16.6211  -52.3208 H         1 UNK         0.0600 
    230 H230       -6.4333  -18.3327  -53.8323 H         1 UNK         0.3000 
    231 H231       -7.5926  -19.8910  -55.9267 H         1 UNK         0.0600 
    232 H232       -9.2023  -20.6194  -54.1914 H         1 UNK         0.0600 
    233 H233       -7.9003  -21.0716  -53.1084 H         1 UNK         0.0600 
    234 H234       -8.1496  -21.9450  -54.6189 H         1 UNK         0.0600 
    235 H235       -6.1785  -22.1669  -54.0814 H         1 UNK         0.3000 
    236 H236       -3.8951  -22.4879  -55.6053 H         1 UNK         0.0600 
    237 H237       -3.2067  -24.0726  -53.7677 H         1 UNK         0.0600 
    238 H238       -4.4729  -23.4182  -52.7379 H         1 UNK         0.0600 
    239 H239       -4.8915  -24.2756  -54.2201 H         1 UNK         0.0600 
    240 H240       -1.9353  -21.5823  -55.6818 H         1 UNK         0.3000 
    241 H241       -0.1398  -20.3808  -55.3127 H         1 UNK         0.0600 
    242 H242       -3.2038  -19.0038  -55.3108 H         1 UNK         0.3800 
    243 H243       -2.6619  -17.3475  -55.2898 H         1 UNK         0.3800 
    244 H244        0.6329  -19.6193  -53.0625 H         1 UNK         0.0800 
    245 H245       -0.8140  -20.2054  -52.3311 H         1 UNK         0.0800 
    246 H246        2.9644  -22.5571  -52.9847 H         1 UNK         0.0800 
    247 H247        2.6613  -21.0757  -53.8554 H         1 UNK         0.0800 
@<TRIPOS>BOND
     1    1    2 1    
     2    1  127 1    
     3    1  128 1    
     4    1  129 1    
     5    2    3 2    
     6    2    4 am   BACKBONE|DICT|INTERRES
     7    4    5 1    
     8    4  130 1    
     9    5    6 1    
    10    5   65 1    
    11    5  131 1    
    12    6    7 1    
    13    6  132 1    
    14    6  133 1    
    15    7    8 1    
    16    8    9 1    
    17    8  134 1    
    18    8  135 1    
    19    9   10 ar   
    20    9   14 ar   
    21   10   11 ar   
    22   10  136 1    
    23   11   12 ar   
    24   11  126 1    
    25   12   13 ar   
    26   12  137 1    
    27   13   14 ar   
    28   13   15 1    
    29   14  138 1    
    30   15   16 1    
    31   15  139 1    
    32   15  140 1    
    33   16   17 1    
    34   17   18 1    
    35   17  141 1    
    36   17  142 1    
    37   18   19 1    
    38   18   67 1    
    39   18  143 1    
    40   19   20 am   BACKBONE|DICT|INTERRES
    41   19  144 1    
    42   20   21 2    
    43   20   22 1    
    44   22   23 1    
    45   22   24 1    
    46   22  145 1    
    47   23  146 1    
    48   23  147 1    
    49   23  148 1    
    50   24   25 am   BACKBONE|DICT|INTERRES
    51   24  149 1    
    52   25   26 2    
    53   25   27 1    
    54   27   28 1    
    55   27   29 1    
    56   27  150 1    
    57   28  151 1    
    58   28  152 1    
    59   28  153 1    
    60   29   30 am   BACKBONE|DICT|INTERRES
    61   29  154 1    
    62   30   31 2    
    63   30   32 1    
    64   32   33 1    
    65   32   34 1    
    66   32  155 1    
    67   33  156 1    
    68   33  157 1    
    69   33  158 1    
    70   34   35 am   BACKBONE|DICT|INTERRES
    71   34  159 1    
    72   35   36 2    
    73   35   37 1    
    74   37   38 1    
    75   37   39 1    
    76   37  160 1    
    77   38  161 1    
    78   38  162 1    
    79   38  163 1    
    80   39   40 am   BACKBONE|DICT|INTERRES
    81   39  164 1    
    82   40   41 2    
    83   40   42 1    
    84   42   43 1    
    85   42   44 1    
    86   42  165 1    
    87   43  166 1    
    88   43  167 1    
    89   43  168 1    
    90   44   45 am   BACKBONE|DICT|INTERRES
    91   44  169 1    
    92   45   46 2    
    93   45   47 1    
    94   47   48 1    
    95   47   49 1    
    96   47  170 1    
    97   48  171 1    
    98   48  172 1    
    99   48  173 1    
   100   49   50 am   BACKBONE|DICT|INTERRES
   101   49  174 1    
   102   50   51 2    
   103   50   52 1    
   104   52   53 1    
   105   52   54 1    
   106   52  175 1    
   107   53  176 1    
   108   53  177 1    
   109   53  178 1    
   110   54   55 am   BACKBONE|DICT|INTERRES
   111   54  179 1    
   112   55   56 2    
   113   55   57 1    
   114   57   58 1    
   115   57   59 1    
   116   57  180 1    
   117   58  181 1    
   118   58  182 1    
   119   58  183 1    
   120   59   60 am   BACKBONE|DICT|INTERRES
   121   59  184 1    
   122   60   61 2    
   123   60   62 1    
   124   62   63 1    
   125   62   64 1    
   126   62  185 1    
   127   63  186 1    
   128   63  187 1    
   129   63  188 1    
   130   64   65 am   BACKBONE|DICT|INTERRES
   131   64  189 1    
   132   65   66 2    
   133   67   68 2    
   134   67   69 am   BACKBONE|DICT|INTERRES
   135   69   70 1    
   136   69  190 1    
   137   70   71 1    
   138   70   72 1    
   139   70  191 1    
   140   71  192 1    
   141   71  193 1    
   142   71  194 1    
   143   72   73 2    
   144   72   74 am   BACKBONE|DICT|INTERRES
   145   74   75 1    
   146   74  195 1    
   147   75   76 1    
   148   75   77 1    
   149   75  196 1    
   150   76  197 1    
   151   76  198 1    
   152   76  199 1    
   153   77   78 2    
   154   77   79 am   BACKBONE|DICT|INTERRES
   155   79   80 1    
   156   79  200 1    
   157   80   81 1    
   158   80   82 1    
   159   80  201 1    
   160   81  202 1    
   161   81  203 1    
   162   81  204 1    
   163   82   83 2    
   164   82   84 am   BACKBONE|DICT|INTERRES
   165   84   85 1    
   166   84  205 1    
   167   85   86 1    
   168   85   87 1    
   169   85  206 1    
   170   86  207 1    
   171   86  208 1    
   172   86  209 1    
   173   87   88 2    
   174   87   89 am   BACKBONE|DICT|INTERRES
   175   89   90 1    
   176   89  210 1    
   177   90   91 1    
   178   90   92 1    
   179   90  211 1    
   180   91  212 1    
   181   91  213 1    
   182   91  214 1    
   183   92   93 2    
   184   92   94 am   BACKBONE|DICT|INTERRES
   185   94   95 1    
   186   94  215 1    
   187   95   96 1    
   188   95   97 1    
   189   95  216 1    
   190   96  217 1    
   191   96  218 1    
   192   96  219 1    
   193   97   98 2    
   194   97   99 am   BACKBONE|DICT|INTERRES
   195   99  100 1    
   196   99  220 1    
   197  100  101 1    
   198  100  102 1    
   199  100  221 1    
   200  101  222 1    
   201  101  223 1    
   202  101  224 1    
   203  102  103 2    
   204  102  104 am   BACKBONE|DICT|INTERRES
   205  104  105 1    
   206  104  225 1    
   207  105  106 1    
   208  105  107 1    
   209  105  226 1    
   210  106  227 1    
   211  106  228 1    
   212  106  229 1    
   213  107  108 2    
   214  107  109 am   BACKBONE|DICT|INTERRES
   215  109  110 1    
   216  109  230 1    
   217  110  111 1    
   218  110  112 1    
   219  110  231 1    
   220  111  232 1    
   221  111  233 1    
   222  111  234 1    
   223  112  113 2    
   224  112  114 am   BACKBONE|DICT|INTERRES
   225  114  115 1    
   226  114  235 1    
   227  115  116 1    
   228  115  117 1    
   229  115  236 1    
   230  116  237 1    
   231  116  238 1    
   232  116  239 1    
   233  117  118 2    
   234  117  119 am   BACKBONE|DICT|INTERRES
   235  119  120 1    
   236  119  240 1    
   237  120  121 1    
   238  120  124 1    
   239  120  241 1    
   240  121  122 am   BACKBONE|DICT|INTERRES
   241  121  123 2    
   242  122  242 1    
   243  122  243 1    
   244  124  125 1    
   245  124  244 1    
   246  124  245 1    
   247  125  126 1    
   248  126  246 1    
   249  126  247 1    
@<TRIPOS>SUBSTRUCTURE
     1 UNK         1 GROUP             0       ****    0 ROOT    
