@<TRIPOS>MOLECULE
3R540
247   249    1
SMALL
USER_CHARGES


@<TRIPOS>ATOM
      1 CA         -4.2893  -17.8854  -46.2015 C.3       0 UNK        -0.1800 
      2 C          -3.1264  -16.9939  -46.6069 C.2       0 UNK         0.5000 
      3 O          -2.0016  -17.2383  -46.1796 O.2       0 UNK        -0.5000 
      4 N          -3.3981  -15.9861  -47.4475 N.am      1 UNK        -0.5000 
      5 CA         -2.4463  -15.0094  -47.9868 C.3       1 UNK         0.1400 
      6 C6         -1.2057  -15.6623  -48.6476 C.3       23 UNK        -0.0398 
      7 S7         -0.4101  -14.6049  -49.8988 S.3       23 UNK        -0.2404 
      8 C8          1.3250  -15.1454  -49.7628 C.3       23 UNK        -0.0205 
      9 C9          1.4959  -16.6407  -50.0024 C.ar      23 UNK        -0.0193 
     10 C10         1.3006  -17.1790  -51.2777 C.ar      23 UNK        -0.1150 
     11 C11         1.4809  -18.5462  -51.5073 C.ar      23 UNK        -0.0193 
     12 C12         1.8486  -19.3782  -50.4458 C.ar      23 UNK        -0.1150 
     13 C13         2.0544  -18.8549  -49.1655 C.ar      23 UNK        -0.0193 
     14 C14         1.8804  -17.4830  -48.9541 C.ar      23 UNK        -0.1150 
     15 C15         2.5232  -19.7735  -48.0394 C.3       23 UNK        -0.0205 
     16 S16         1.6369  -19.5456  -46.4602 S.3       23 UNK        -0.2404 
     17 C17        -0.0618  -20.0143  -46.9205 C.3       23 UNK        -0.0398 
     18 CA         -0.3348  -21.5317  -46.8227 C.3       11 UNK         0.1400 
     19 N          -0.0793  -22.0760  -45.4848 N.am      11 UNK        -0.5000 
     20 C          -0.0821  -23.3824  -45.1841 C.2       10 UNK         0.5000 
     21 O          -0.2450  -24.2739  -46.0156 O.2       10 UNK        -0.5000 
     22 CA          0.0554  -23.7566  -43.7004 C.3       10 UNK         0.1400 
     23 CB          1.5308  -23.8063  -43.2757 C.3       10 UNK        -0.1800 
     24 N          -0.6885  -22.8283  -42.8489 N.am      10 UNK        -0.5000 
     25 C          -2.0262  -22.8201  -42.7489 C.2       9 UNK         0.5000 
     26 O          -2.7532  -23.6307  -43.3223 O.2       9 UNK        -0.5000 
     27 CA         -2.6643  -21.7000  -41.9039 C.3       9 UNK         0.1400 
     28 CB         -2.7514  -22.1200  -40.4294 C.3       9 UNK        -0.1800 
     29 N          -1.9472  -20.4281  -42.0025 N.am      9 UNK        -0.5000 
     30 C          -1.8322  -19.7057  -43.1261 C.2       8 UNK         0.5000 
     31 O          -2.3778  -20.0127  -44.1842 O.2       8 UNK        -0.5000 
     32 CA         -0.9073  -18.4729  -43.0723 C.3       8 UNK         0.1400 
     33 CB         -1.7075  -17.2098  -42.7220 C.3       8 UNK        -0.1800 
     34 N           0.2086  -18.6105  -42.1294 N.am      8 UNK        -0.5000 
     35 C           1.1501  -19.5650  -42.1798 C.2       7 UNK         0.5000 
     36 O           1.1412  -20.4754  -43.0093 O.2       7 UNK        -0.5000 
     37 CA          2.2492  -19.5157  -41.0949 C.3       7 UNK         0.1400 
     38 CB          3.5229  -20.2858  -41.5029 C.3       7 UNK        -0.1800 
     39 N           2.5780  -18.1550  -40.6448 N.am      7 UNK        -0.5000 
     40 C           3.0796  -17.1616  -41.3939 C.2       6 UNK         0.5000 
     41 O           3.3087  -17.2690  -42.6007 O.2       6 UNK        -0.5000 
     42 CA          3.3142  -15.8154  -40.6706 C.3       6 UNK         0.1400 
     43 CB          4.1109  -15.9714  -39.3566 C.3       6 UNK        -0.1800 
     44 N           3.9223  -14.8121  -41.5514 N.am      6 UNK        -0.5000 
     45 C           5.1537  -14.8173  -42.0819 C.2       5 UNK         0.5000 
     46 O           6.0485  -15.6019  -41.7601 O.2       5 UNK        -0.5000 
     47 CA          5.3869  -13.7956  -43.2135 C.3       5 UNK         0.1400 
     48 CB          6.8555  -13.7332  -43.6713 C.3       5 UNK        -0.1800 
     49 N           4.5466  -14.1201  -44.3682 N.am      5 UNK        -0.5000 
     50 C           3.2501  -13.8111  -44.4891 C.2       4 UNK         0.5000 
     51 O           2.6232  -13.1609  -43.6481 O.2       4 UNK        -0.5000 
     52 CA          2.5242  -14.3536  -45.7338 C.3       4 UNK         0.1400 
     53 CB          1.6091  -15.5257  -45.3443 C.3       4 UNK        -0.1800 
     54 N           1.7382  -13.3126  -46.3995 N.am      4 UNK        -0.5000 
     55 C           2.2714  -12.2398  -47.0071 C.2       3 UNK         0.5000 
     56 O           3.4862  -12.0530  -47.0941 O.2       3 UNK        -0.5000 
     57 CA          1.3210  -11.2096  -47.6538 C.3       3 UNK         0.1400 
     58 CB          1.5498  -11.1357  -49.1727 C.3       3 UNK        -0.1800 
     59 N          -0.0943  -11.4842  -47.4129 N.am      3 UNK        -0.5000 
     60 C          -0.7761  -11.1304  -46.3151 C.2       2 UNK         0.5000 
     61 O          -0.2875  -10.4897  -45.3843 O.2       2 UNK        -0.5000 
     62 CA         -2.2526  -11.5768  -46.2402 C.3       2 UNK         0.1400 
     63 CB         -3.1853  -10.4124  -46.6076 C.3       2 UNK        -0.1800 
     64 N          -2.5666  -12.7269  -47.0973 N.am      2 UNK        -0.5000 
     65 C          -2.0580  -13.9553  -46.9301 C.2       1 UNK         0.5000 
     66 O          -1.2875  -14.2408  -46.0136 O.2       1 UNK        -0.5000 
     67 C          -1.7651  -21.8536  -47.3055 C.2       11 UNK         0.5000 
     68 O          -1.9475  -22.2182  -48.4671 O.2       11 UNK        -0.5000 
     69 N          -2.7509  -21.7530  -46.4039 N.am      12 UNK        -0.5000 
     70 CA         -4.1376  -22.1465  -46.6445 C.3       12 UNK         0.1400 
     71 CB         -5.0092  -21.7221  -45.4521 C.3       12 UNK        -0.1800 
     72 C          -4.2917  -23.6548  -46.9101 C.2       12 UNK         0.5000 
     73 O          -5.0254  -24.0335  -47.8221 O.2       12 UNK        -0.5000 
     74 N          -3.6048  -24.4800  -46.1099 N.am      13 UNK        -0.5000 
     75 CA         -3.6810  -25.9369  -46.1718 C.3       13 UNK         0.1400 
     76 CB         -3.1739  -26.5314  -44.8479 C.3       13 UNK        -0.1800 
     77 C          -2.9203  -26.5396  -47.3656 C.2       13 UNK         0.5000 
     78 O          -3.5072  -27.3047  -48.1318 O.2       13 UNK        -0.5000 
     79 N          -1.6225  -26.2284  -47.4760 N.am      14 UNK        -0.5000 
     80 CA         -0.7024  -26.8997  -48.3932 C.3       14 UNK         0.1400 
     81 CB          0.6987  -26.9574  -47.7629 C.3       14 UNK        -0.1800 
     82 C          -0.6475  -26.2267  -49.7708 C.2       14 UNK         0.5000 
     83 O          -0.7303  -26.9208  -50.7849 O.2       14 UNK        -0.5000 
     84 N          -0.4926  -24.8960  -49.7892 N.am      15 UNK        -0.5000 
     85 CA         -0.3405  -24.1197  -51.0237 C.3       15 UNK         0.1400 
     86 CB          0.5170  -22.8732  -50.7466 C.3       15 UNK        -0.1800 
     87 C          -1.6858  -23.7304  -51.6621 C.2       15 UNK         0.5000 
     88 O          -1.6947  -23.3307  -52.8248 O.2       15 UNK        -0.5000 
     89 N          -2.7824  -23.8367  -50.8948 N.am      16 UNK        -0.5000 
     90 CA         -4.1446  -23.4065  -51.2327 C.3       16 UNK         0.1400 
     91 CB         -4.7221  -24.2424  -52.3912 C.3       16 UNK        -0.1800 
     92 C          -4.2390  -21.8837  -51.4682 C.2       16 UNK         0.5000 
     93 O          -5.0423  -21.4168  -52.2803 O.2       16 UNK        -0.5000 
     94 N          -3.4160  -21.1237  -50.7328 N.am      17 UNK        -0.5000 
     95 CA         -3.2618  -19.6776  -50.8816 C.3       17 UNK         0.1400 
     96 CB         -1.9943  -19.2325  -50.1458 C.3       17 UNK        -0.1800 
     97 C          -4.4865  -18.8830  -50.3943 C.2       17 UNK         0.5000 
     98 O          -4.7010  -17.7640  -50.8566 O.2       17 UNK        -0.5000 
     99 N          -5.3015  -19.4912  -49.5199 N.am      18 UNK        -0.5000 
    100 CA        -6.5941  -18.9651  -49.0707 C.3       18 UNK         0.1400 
    101 CB        -7.1142  -19.8252  -47.9093 C.3       18 UNK        -0.1800 
    102 C         -7.6427  -18.8962  -50.1992 C.2       18 UNK         0.5000 
    103 O         -8.5112  -18.0245  -50.1681 O.2       18 UNK        -0.5000 
    104 N         -7.5224  -19.7959  -51.1849 N.am      19 UNK        -0.5000 
    105 CA        -8.3216  -19.8140  -52.4108 C.3       19 UNK         0.1400 
    106 CB        -8.5848  -21.2810  -52.7927 C.3       19 UNK        -0.1800 
    107 C         -7.6211  -19.0709  -53.5677 C.2       19 UNK         0.5000 
    108 O         -8.1756  -19.0159  -54.6658 O.2       19 UNK        -0.5000 
    109 N         -6.4092  -18.5478  -53.3149 N.am      20 UNK        -0.5000 
    110 CA        -5.4687  -17.9509  -54.2695 C.3       20 UNK         0.1400 
    111 CB        -6.0235  -16.6264  -54.8330 C.3       20 UNK        -0.1800 
    112 C         -5.0271  -18.9403  -55.3704 C.2       20 UNK         0.5000 
    113 O         -4.7418  -18.5264  -56.4949 O.2       20 UNK        -0.5000 
    114 N         -4.9776  -20.2343  -55.0268 N.am      21 UNK        -0.5000 
    115 CA        -4.7229  -21.3446  -55.9435 C.3       21 UNK         0.1400 
    116 CB        -5.7653  -22.4448  -55.6775 C.3       21 UNK        -0.1800 
    117 C         -3.2694  -21.8518  -55.8538 C.2       21 UNK         0.5000 
    118 O         -3.0207  -23.0376  -56.0787 O.2       21 UNK        -0.5000 
    119 N         -2.3368  -20.9391  -55.5490 N.am      22 UNK        -0.5000 
    120 CA        -0.8809  -21.1513  -55.5554 C.3       22 UNK         0.1400 
    121 C         -0.3497  -21.6561  -56.9286 C.2       22 UNK         0.5000 
    122 N          0.5679  -22.6135  -56.9339 N.am      22 UNK        -0.7600 
    123 O         -0.7259  -21.1516  -57.9847 O.2       22 UNK        -0.5000 
    124 C124       -0.1312  -19.8552  -55.1560 C.3       23 UNK        -0.0398 
    125 S125       -0.3819  -19.3776  -53.4108 S.3       23 UNK        -0.2404 
    126 C126        1.3491  -19.1093  -52.9143 C.3       23 UNK        -0.0205 
    127 H127       -4.3009  -18.0235  -45.1204 H         1 UNK         0.0600 
    128 H128       -4.1755  -18.8629  -46.6690 H         1 UNK         0.0600 
    129 H129       -5.2495  -17.4669  -46.5022 H         1 UNK         0.0600 
    130 H130       -4.3550  -15.8466  -47.7395 H         1 UNK         0.3000 
    131 H131       -3.0013  -14.5010  -48.7771 H         1 UNK         0.0600 
    132 H132       -1.5048  -16.5746  -49.1563 H         1 UNK         0.0800 
    133 H133       -0.4754  -15.9714  -47.9001 H         1 UNK         0.0800 
    134 H134        1.9240  -14.5961  -50.4902 H         1 UNK         0.0800 
    135 H135        1.7087  -14.8671  -48.7810 H         1 UNK         0.0800 
    136 H136        1.0199  -16.5301  -52.0955 H         1 UNK         0.1150 
    137 H137        2.0066  -20.4316  -50.6255 H         1 UNK         0.1150 
    138 H138        2.0564  -17.0714  -47.9713 H         1 UNK         0.1150 
    139 H139        2.4379  -20.8201  -48.3354 H         1 UNK         0.0800 
    140 H140        3.5845  -19.5905  -47.8681 H         1 UNK         0.0800 
    141 H141       -0.2557  -19.6498  -47.9280 H         1 UNK         0.0800 
    142 H142       -0.7414  -19.4691  -46.2670 H         1 UNK         0.0800 
    143 H143        0.3493  -22.0357  -47.5082 H         1 UNK         0.0600 
    144 H144        0.1064  -21.4067  -44.7472 H         1 UNK         0.3000 
    145 H145       -0.3625  -24.7566  -43.5660 H         1 UNK         0.0600 
    146 H146        1.6304  -24.0484  -42.2176 H         1 UNK         0.0600 
    147 H147        2.0666  -24.5728  -43.8368 H         1 UNK         0.0600 
    148 H148        2.0413  -22.8603  -43.4543 H         1 UNK         0.0600 
    149 H149       -0.1559  -22.0758  -42.4317 H         1 UNK         0.3000 
    150 H150       -3.6792  -21.5431  -42.2751 H         1 UNK         0.0600 
    151 H151       -3.3006  -23.0565  -40.3228 H         1 UNK         0.0600 
    152 H152       -3.2732  -21.3695  -39.8355 H         1 UNK         0.0600 
    153 H153       -1.7628  -22.2676  -39.9928 H         1 UNK         0.0600 
    154 H154       -1.4674  -20.1074  -41.1747 H         1 UNK         0.3000 
    155 H155       -0.4807  -18.3413  -44.0688 H         1 UNK         0.0600 
    156 H156       -1.0869  -16.3170  -42.8017 H         1 UNK         0.0600 
    157 H157       -2.1112  -17.2544  -41.7100 H         1 UNK         0.0600 
    158 H158       -2.5471  -17.0779  -43.4055 H         1 UNK         0.0600 
    159 H159        0.2844  -17.9040  -41.4132 H         1 UNK         0.3000 
    160 H160        1.8287  -20.0256  -40.2271 H         1 UNK         0.0600 
    161 H161        3.9621  -19.8862  -42.4175 H         1 UNK         0.0600 
    162 H162        3.3035  -21.3391  -41.6811 H         1 UNK         0.0600 
    163 H163        4.2793  -20.2416  -40.7195 H         1 UNK         0.0600 
    164 H164        2.4051  -17.9716  -39.6662 H         1 UNK         0.3000 
    165 H165        2.3276  -15.4246  -40.4180 H         1 UNK         0.0600 
    166 H166        5.0456  -16.5124  -39.5073 H         1 UNK         0.0600 
    167 H167        4.3522  -15.0004  -38.9241 H         1 UNK         0.0600 
    168 H168        3.5374  -16.5189  -38.6084 H         1 UNK         0.0600 
    169 H169        3.2688  -14.1531  -41.9618 H         1 UNK         0.3000 
    170 H170        5.1158  -12.8087  -42.8321 H         1 UNK         0.0600 
    171 H171        7.5133  -13.4815  -42.8384 H         1 UNK         0.0600 
    172 H172        7.1930  -14.6857  -44.0817 H         1 UNK         0.0600 
    173 H173        6.9964  -12.9701  -44.4370 H         1 UNK         0.0600 
    174 H174        4.9799  -14.6882  -45.0816 H         1 UNK         0.3000 
    175 H175        3.2629  -14.7224  -46.4485 H         1 UNK         0.0600 
    176 H176        0.8731  -15.2322  -44.5946 H         1 UNK         0.0600 
    177 H177        1.0660  -15.9150  -46.2031 H         1 UNK         0.0600 
    178 H178        2.1869  -16.3517  -44.9283 H         1 UNK         0.0600 
    179 H179        0.7316  -13.3916  -46.3228 H         1 UNK         0.3000 
    180 H180        1.5692  -10.2343  -47.2298 H         1 UNK         0.0600 
    181 H181        1.3361  -12.0868  -49.6600 H         1 UNK         0.0600 
    182 H182        2.5837  -10.8755  -49.4027 H         1 UNK         0.0600 
    183 H183        0.9174  -10.3748  -49.6304 H         1 UNK         0.0600 
    184 H184       -0.5772  -12.0106  -48.1260 H         1 UNK         0.3000 
    185 H185       -2.4536  -11.8630  -45.2056 H         1 UNK         0.0600 
    186 H186       -3.0007   -9.5473  -45.9693 H         1 UNK         0.0600 
    187 H187       -3.0433  -10.0937  -47.6410 H         1 UNK         0.0600 
    188 H188       -4.2321  -10.6894  -46.4810 H         1 UNK         0.0600 
    189 H189       -3.1947  -12.5515  -47.8687 H         1 UNK         0.3000 
    190 H190       -2.5415  -21.3559  -45.4911 H         1 UNK         0.3000 
    191 H191       -4.4860  -21.6126  -47.5298 H         1 UNK         0.0600 
    192 H192       -4.7234  -22.2411  -44.5376 H         1 UNK         0.0600 
    193 H193       -6.0603  -21.9454  -45.6387 H         1 UNK         0.0600 
    194 H194       -4.9323  -20.6529  -45.2596 H         1 UNK         0.0600 
    195 H195       -3.0598  -24.0855  -45.3516 H         1 UNK         0.3000 
    196 H196       -4.7314  -26.2180  -46.2757 H         1 UNK         0.0600 
    197 H197       -3.2142  -27.6213  -44.8661 H         1 UNK         0.0600 
    198 H198       -3.7848  -26.1981  -44.0087 H         1 UNK         0.0600 
    199 H199       -2.1423  -26.2431  -44.6432 H         1 UNK         0.0600 
    200 H200       -1.2104  -25.5504  -46.8368 H         1 UNK         0.3000 
    201 H201       -1.0325  -27.9306  -48.5403 H         1 UNK         0.0600 
    202 H202        0.6760  -27.4661  -46.7991 H         1 UNK         0.0600 
    203 H203        1.1169  -25.9627  -47.6054 H         1 UNK         0.0600 
    204 H204        1.3912  -27.5048  -48.4035 H         1 UNK         0.0600 
    205 H205       -0.4631  -24.3884  -48.9161 H         1 UNK         0.3000 
    206 H206        0.1972  -24.7229  -51.7585 H         1 UNK         0.0600 
    207 H207        1.4886  -23.1451  -50.3342 H         1 UNK         0.0600 
    208 H208        0.6992  -22.3181  -51.6679 H         1 UNK         0.0600 
    209 H209        0.0372  -22.1879  -50.0507 H         1 UNK         0.0600 
    210 H210       -2.6436  -24.1357  -49.9395 H         1 UNK         0.3000 
    211 H211       -4.7573  -23.6089  -50.3556 H         1 UNK         0.0600 
    212 H212       -4.1944  -24.0587  -53.3273 H         1 UNK         0.0600 
    213 H213       -5.7750  -24.0095  -52.5529 H         1 UNK         0.0600 
    214 H214       -4.6571  -25.3088  -52.1754 H         1 UNK         0.0600 
    215 H215       -2.8039  -21.5813  -50.0617 H         1 UNK         0.3000 
    216 H216       -3.1291  -19.4701  -51.9455 H         1 UNK         0.0600 
    217 H217       -1.1725  -19.9323  -50.2989 H         1 UNK         0.0600 
    218 H218       -2.1645  -19.1323  -49.0737 H         1 UNK         0.0600 
    219 H219       -1.6595  -18.2702  -50.5300 H         1 UNK         0.0600 
    220 H220       -5.0521  -20.4179  -49.2111 H         1 UNK         0.3000 
    221 H221       -6.4394  -17.9480  -48.7049 H         1 UNK         0.0600 
    222 H222       -7.2220  -20.8718  -48.1968 H         1 UNK         0.0600 
    223 H223       -6.4442  -19.7774  -47.0529 H         1 UNK         0.0600 
    224 H224       -8.0903  -19.4758  -47.5702 H         1 UNK         0.0600 
    225 H225       -6.7633  -20.4637  -51.1490 H         1 UNK         0.3000 
    226 H226       -9.2838  -19.3269  -52.2404 H         1 UNK         0.0600 
    227 H227       -9.0892  -21.8138  -51.9865 H         1 UNK         0.0600 
    228 H228       -9.2234  -21.3493  -53.6742 H         1 UNK         0.0600 
    229 H229       -7.6591  -21.8120  -53.0179 H         1 UNK         0.0600 
    230 H230       -6.0669  -18.6067  -52.3654 H         1 UNK         0.3000 
    231 H231       -4.5685  -17.7135  -53.7010 H         1 UNK         0.0600 
    232 H232       -5.2695  -16.1073  -55.4257 H         1 UNK         0.0600 
    233 H233       -6.3233  -15.9526  -54.0303 H         1 UNK         0.0600 
    234 H234       -6.8887  -16.7891  -55.4761 H         1 UNK         0.0600 
    235 H235       -5.1619  -20.4980  -54.0632 H         1 UNK         0.3000 
    236 H236       -4.8642  -21.0140  -56.9744 H         1 UNK         0.0600 
    237 H237       -6.7772  -22.0668  -55.8254 H         1 UNK         0.0600 
    238 H238       -5.6354  -23.2912  -56.3527 H         1 UNK         0.0600 
    239 H239       -5.7001  -22.8187  -54.6578 H         1 UNK         0.0600 
    240 H240       -2.6429  -19.9923  -55.3874 H         1 UNK         0.3000 
    241 H241       -0.6641  -21.9183  -54.8106 H         1 UNK         0.0600 
    242 H242        0.8915  -23.0403  -56.0795 H         1 UNK         0.3800 
    243 H243        0.9323  -22.9380  -57.8164 H         1 UNK         0.3800 
    244 H244        0.9398  -19.9760  -55.3299 H         1 UNK         0.0800 
    245 H245       -0.4403  -19.0227  -55.7906 H         1 UNK         0.0800 
    246 H246        1.8217  -18.4206  -53.6164 H         1 UNK         0.0800 
    247 H247        1.8934  -20.0515  -52.9963 H         1 UNK         0.0800 
@<TRIPOS>BOND
     1    1    2 1    
     2    1  127 1    
     3    1  128 1    
     4    1  129 1    
     5    2    3 2    
     6    2    4 am   BACKBONE|DICT|INTERRES
     7    4    5 1    
     8    4  130 1    
     9    5    6 1    
    10    5   65 1    
    11    5  131 1    
    12    6    7 1    
    13    6  132 1    
    14    6  133 1    
    15    7    8 1    
    16    8    9 1    
    17    8  134 1    
    18    8  135 1    
    19    9   10 ar   
    20    9   14 ar   
    21   10   11 ar   
    22   10  136 1    
    23   11   12 ar   
    24   11  126 1    
    25   12   13 ar   
    26   12  137 1    
    27   13   14 ar   
    28   13   15 1    
    29   14  138 1    
    30   15   16 1    
    31   15  139 1    
    32   15  140 1    
    33   16   17 1    
    34   17   18 1    
    35   17  141 1    
    36   17  142 1    
    37   18   19 1    
    38   18   67 1    
    39   18  143 1    
    40   19   20 am   BACKBONE|DICT|INTERRES
    41   19  144 1    
    42   20   21 2    
    43   20   22 1    
    44   22   23 1    
    45   22   24 1    
    46   22  145 1    
    47   23  146 1    
    48   23  147 1    
    49   23  148 1    
    50   24   25 am   BACKBONE|DICT|INTERRES
    51   24  149 1    
    52   25   26 2    
    53   25   27 1    
    54   27   28 1    
    55   27   29 1    
    56   27  150 1    
    57   28  151 1    
    58   28  152 1    
    59   28  153 1    
    60   29   30 am   BACKBONE|DICT|INTERRES
    61   29  154 1    
    62   30   31 2    
    63   30   32 1    
    64   32   33 1    
    65   32   34 1    
    66   32  155 1    
    67   33  156 1    
    68   33  157 1    
    69   33  158 1    
    70   34   35 am   BACKBONE|DICT|INTERRES
    71   34  159 1    
    72   35   36 2    
    73   35   37 1    
    74   37   38 1    
    75   37   39 1    
    76   37  160 1    
    77   38  161 1    
    78   38  162 1    
    79   38  163 1    
    80   39   40 am   BACKBONE|DICT|INTERRES
    81   39  164 1    
    82   40   41 2    
    83   40   42 1    
    84   42   43 1    
    85   42   44 1    
    86   42  165 1    
    87   43  166 1    
    88   43  167 1    
    89   43  168 1    
    90   44   45 am   BACKBONE|DICT|INTERRES
    91   44  169 1    
    92   45   46 2    
    93   45   47 1    
    94   47   48 1    
    95   47   49 1    
    96   47  170 1    
    97   48  171 1    
    98   48  172 1    
    99   48  173 1    
   100   49   50 am   BACKBONE|DICT|INTERRES
   101   49  174 1    
   102   50   51 2    
   103   50   52 1    
   104   52   53 1    
   105   52   54 1    
   106   52  175 1    
   107   53  176 1    
   108   53  177 1    
   109   53  178 1    
   110   54   55 am   BACKBONE|DICT|INTERRES
   111   54  179 1    
   112   55   56 2    
   113   55   57 1    
   114   57   58 1    
   115   57   59 1    
   116   57  180 1    
   117   58  181 1    
   118   58  182 1    
   119   58  183 1    
   120   59   60 am   BACKBONE|DICT|INTERRES
   121   59  184 1    
   122   60   61 2    
   123   60   62 1    
   124   62   63 1    
   125   62   64 1    
   126   62  185 1    
   127   63  186 1    
   128   63  187 1    
   129   63  188 1    
   130   64   65 am   BACKBONE|DICT|INTERRES
   131   64  189 1    
   132   65   66 2    
   133   67   68 2    
   134   67   69 am   BACKBONE|DICT|INTERRES
   135   69   70 1    
   136   69  190 1    
   137   70   71 1    
   138   70   72 1    
   139   70  191 1    
   140   71  192 1    
   141   71  193 1    
   142   71  194 1    
   143   72   73 2    
   144   72   74 am   BACKBONE|DICT|INTERRES
   145   74   75 1    
   146   74  195 1    
   147   75   76 1    
   148   75   77 1    
   149   75  196 1    
   150   76  197 1    
   151   76  198 1    
   152   76  199 1    
   153   77   78 2    
   154   77   79 am   BACKBONE|DICT|INTERRES
   155   79   80 1    
   156   79  200 1    
   157   80   81 1    
   158   80   82 1    
   159   80  201 1    
   160   81  202 1    
   161   81  203 1    
   162   81  204 1    
   163   82   83 2    
   164   82   84 am   BACKBONE|DICT|INTERRES
   165   84   85 1    
   166   84  205 1    
   167   85   86 1    
   168   85   87 1    
   169   85  206 1    
   170   86  207 1    
   171   86  208 1    
   172   86  209 1    
   173   87   88 2    
   174   87   89 am   BACKBONE|DICT|INTERRES
   175   89   90 1    
   176   89  210 1    
   177   90   91 1    
   178   90   92 1    
   179   90  211 1    
   180   91  212 1    
   181   91  213 1    
   182   91  214 1    
   183   92   93 2    
   184   92   94 am   BACKBONE|DICT|INTERRES
   185   94   95 1    
   186   94  215 1    
   187   95   96 1    
   188   95   97 1    
   189   95  216 1    
   190   96  217 1    
   191   96  218 1    
   192   96  219 1    
   193   97   98 2    
   194   97   99 am   BACKBONE|DICT|INTERRES
   195   99  100 1    
   196   99  220 1    
   197  100  101 1    
   198  100  102 1    
   199  100  221 1    
   200  101  222 1    
   201  101  223 1    
   202  101  224 1    
   203  102  103 2    
   204  102  104 am   BACKBONE|DICT|INTERRES
   205  104  105 1    
   206  104  225 1    
   207  105  106 1    
   208  105  107 1    
   209  105  226 1    
   210  106  227 1    
   211  106  228 1    
   212  106  229 1    
   213  107  108 2    
   214  107  109 am   BACKBONE|DICT|INTERRES
   215  109  110 1    
   216  109  230 1    
   217  110  111 1    
   218  110  112 1    
   219  110  231 1    
   220  111  232 1    
   221  111  233 1    
   222  111  234 1    
   223  112  113 2    
   224  112  114 am   BACKBONE|DICT|INTERRES
   225  114  115 1    
   226  114  235 1    
   227  115  116 1    
   228  115  117 1    
   229  115  236 1    
   230  116  237 1    
   231  116  238 1    
   232  116  239 1    
   233  117  118 2    
   234  117  119 am   BACKBONE|DICT|INTERRES
   235  119  120 1    
   236  119  240 1    
   237  120  121 1    
   238  120  124 1    
   239  120  241 1    
   240  121  122 am   BACKBONE|DICT|INTERRES
   241  121  123 2    
   242  122  242 1    
   243  122  243 1    
   244  124  125 1    
   245  124  244 1    
   246  124  245 1    
   247  125  126 1    
   248  126  246 1    
   249  126  247 1    
@<TRIPOS>SUBSTRUCTURE
     1 UNK         1 GROUP             0       ****    0 ROOT    
