@<TRIPOS>MOLECULE
3R540
247   249    1
SMALL
USER_CHARGES


@<TRIPOS>ATOM
      1 CA          2.0967  -12.4353  -53.4885 C.3       0 UNK        -0.1800 
      2 C           2.1118  -12.9365  -52.0512 C.2       0 UNK         0.5000 
      3 O           2.7648  -12.3324  -51.1998 O.2       0 UNK        -0.5000 
      4 N           1.4044  -14.0387  -51.7792 N.am      1 UNK        -0.5000 
      5 CA          1.2447  -14.6155  -50.4419 C.3       1 UNK         0.1400 
      6 C6          0.7986  -16.0931  -50.5278 C.3       23 UNK        -0.0398 
      7 S7          1.0664  -17.0304  -48.9846 S.3       23 UNK        -0.2404 
      8 C8          2.7254  -17.7441  -49.2365 C.3       23 UNK        -0.0205 
      9 C9          2.7430  -18.8255  -50.3079 C.ar      23 UNK        -0.0193 
     10 C10         3.2190  -18.5398  -51.5894 C.ar      23 UNK        -0.1150 
     11 C11         3.2253  -19.5220  -52.5841 C.ar      23 UNK        -0.0193 
     12 C12         2.7811  -20.8122  -52.2779 C.ar      23 UNK        -0.1150 
     13 C13         2.3210  -21.1181  -50.9924 C.ar      23 UNK        -0.0193 
     14 C14         2.3030  -20.1185  -50.0144 C.ar      23 UNK        -0.1150 
     15 C15         1.8262  -22.5184  -50.6588 C.3       23 UNK        -0.0205 
     16 S16         2.9465  -23.3617  -49.4967 S.3       23 UNK        -0.2404 
     17 C17         2.0251  -24.9025  -49.1359 C.3       23 UNK        -0.0398 
     18 CA          1.2871  -24.9116  -47.7666 C.3       11 UNK         0.1400 
     19 N           2.1487  -24.5435  -46.6387 N.am      11 UNK        -0.5000 
     20 C           3.0597  -25.3649  -46.1072 C.2       10 UNK         0.5000 
     21 O           3.1835  -26.5427  -46.4472 O.2       10 UNK        -0.5000 
     22 CA          4.0077  -24.8106  -45.0244 C.3       10 UNK         0.1400 
     23 CB          5.2962  -24.2570  -45.6635 C.3       10 UNK        -0.1800 
     24 N           3.4280  -23.8446  -44.0804 N.am      10 UNK        -0.5000 
     25 C           3.0027  -22.5945  -44.3037 C.2       9 UNK         0.5000 
     26 O           2.9408  -22.0792  -45.4228 O.2       9 UNK        -0.5000 
     27 CA          2.6096  -21.7976  -43.0387 C.3       9 UNK         0.1400 
     28 CB          3.8678  -21.3058  -42.3049 C.3       9 UNK        -0.1800 
     29 N           1.7564  -20.6395  -43.3014 N.am      9 UNK        -0.5000 
     30 C           0.5576  -20.6751  -43.8954 C.2       8 UNK         0.5000 
     31 O           0.0090  -21.7216  -44.2391 O.2       8 UNK        -0.5000 
     32 CA         -0.1574  -19.3287  -44.1478 C.3       8 UNK         0.1400 
     33 CB         -1.3555  -19.1680  -43.2010 C.3       8 UNK        -0.1800 
     34 N           0.7076  -18.1472  -44.0556 N.am      8 UNK        -0.5000 
     35 C           1.7519  -17.8876  -44.8621 C.2       7 UNK         0.5000 
     36 O           2.0750  -18.6155  -45.7986 O.2       7 UNK        -0.5000 
     37 CA          2.6009  -16.6279  -44.5827 C.3       7 UNK         0.1400 
     38 CB          2.4911  -15.6304  -45.7456 C.3       7 UNK        -0.1800 
     39 N           2.2570  -15.9406  -43.3378 N.am      7 UNK        -0.5000 
     40 C           2.5075  -16.3944  -42.1016 C.2       6 UNK         0.5000 
     41 O           3.1252  -17.4345  -41.8708 O.2       6 UNK        -0.5000 
     42 CA          1.9321  -15.5700  -40.9286 C.3       6 UNK         0.1400 
     43 CB          3.0254  -14.6887  -40.3059 C.3       6 UNK        -0.1800 
     44 N           0.7866  -14.7234  -41.2916 N.am      6 UNK        -0.5000 
     45 C          -0.3790  -15.1719  -41.7799 C.2       5 UNK         0.5000 
     46 O          -0.6093  -16.3695  -41.9574 O.2       5 UNK        -0.5000 
     47 CA         -1.4318  -14.1114  -42.1626 C.3       5 UNK         0.1400 
     48 CB         -0.8018  -12.9076  -42.8857 C.3       5 UNK        -0.1800 
     49 N          -2.4500  -14.6991  -43.0344 N.am      5 UNK        -0.5000 
     50 C          -3.6204  -15.1988  -42.6149 C.2       4 UNK         0.5000 
     51 O          -3.9943  -15.1404  -41.4417 O.2       4 UNK        -0.5000 
     52 CA         -4.5228  -15.9065  -43.6537 C.3       4 UNK         0.1400 
     53 CB         -6.0150  -15.5638  -43.4572 C.3       4 UNK        -0.1800 
     54 N          -4.1265  -15.7200  -45.0557 N.am      4 UNK        -0.5000 
     55 C          -4.1190  -14.5817  -45.7630 C.2       3 UNK         0.5000 
     56 O          -4.4547  -13.4802  -45.3225 O.2       3 UNK        -0.5000 
     57 CA         -3.6250  -14.7027  -47.2168 C.3       3 UNK         0.1400 
     58 CB         -4.7562  -14.3910  -48.2097 C.3       3 UNK        -0.1800 
     59 N          -2.4873  -13.8309  -47.5066 N.am      3 UNK        -0.5000 
     60 C          -1.3305  -13.7948  -46.8339 C.2       2 UNK         0.5000 
     61 O          -1.0718  -14.5114  -45.8640 O.2       2 UNK        -0.5000 
     62 CA         -0.2689  -12.8258  -47.3860 C.3       2 UNK         0.1400 
     63 CB          0.6075  -12.2126  -46.2815 C.3       2 UNK        -0.1800 
     64 N           0.5848  -13.5244  -48.3432 N.am      2 UNK        -0.5000 
     65 C           0.2528  -13.7691  -49.6166 C.2       1 UNK         0.5000 
     66 O          -0.7915  -13.3692  -50.1389 O.2       1 UNK        -0.5000 
     67 C          -0.0121  -24.0931  -47.8222 C.2       11 UNK         0.5000 
     68 O          -1.0569  -24.6573  -48.1519 O.2       11 UNK        -0.5000 
     69 N           0.0574  -22.7844  -47.5386 N.am      12 UNK        -0.5000 
     70 CA         -1.0446  -21.8527  -47.7922 C.3       12 UNK         0.1400 
     71 CB         -0.5684  -20.4018  -47.6499 C.3       12 UNK        -0.1800 
     72 C          -2.3260  -22.1353  -46.9883 C.2       12 UNK         0.5000 
     73 O          -3.4129  -22.0074  -47.5468 O.2       12 UNK        -0.5000 
     74 N          -2.1944  -22.5563  -45.7246 N.am      13 UNK        -0.5000 
     75 CA         -3.3084  -22.9423  -44.8533 C.3       13 UNK         0.1400 
     76 CB         -2.7754  -23.2835  -43.4534 C.3       13 UNK        -0.1800 
     77 C          -4.1416  -24.1126  -45.4088 C.2       13 UNK         0.5000 
     78 O          -5.3669  -24.0937  -45.2870 O.2       13 UNK        -0.5000 
     79 N          -3.4667  -25.0860  -46.0369 N.am      14 UNK        -0.5000 
     80 CA         -4.1008  -26.1997  -46.7416 C.3       14 UNK         0.1400 
     81 CB         -3.0767  -27.3240  -46.9599 C.3       14 UNK        -0.1800 
     82 C          -4.7138  -25.7437  -48.0770 C.2       14 UNK         0.5000 
     83 O          -5.8277  -26.1495  -48.4094 O.2       14 UNK        -0.5000 
     84 N          -4.0008  -24.8670  -48.7954 N.am      15 UNK        -0.5000 
     85 CA         -4.4079  -24.2594  -50.0630 C.3       15 UNK         0.1400 
     86 CB         -3.1449  -23.8527  -50.8386 C.3       15 UNK        -0.1800 
     87 C          -5.3962  -23.0839  -49.8823 C.2       15 UNK         0.5000 
     88 O          -5.2133  -22.0255  -50.4888 O.2       15 UNK        -0.5000 
     89 N          -6.4390  -23.3020  -49.0686 N.am      16 UNK        -0.5000 
     90 CA         -7.5843  -22.4176  -48.8273 C.3       16 UNK         0.1400 
     91 CB         -8.4667  -22.3481  -50.0921 C.3       16 UNK        -0.1800 
     92 C          -7.1981  -21.0227  -48.2884 C.2       16 UNK         0.5000 
     93 O          -7.7456  -20.0163  -48.7387 O.2       16 UNK        -0.5000 
     94 N          -6.2463  -20.9862  -47.3443 N.am      17 UNK        -0.5000 
     95 CA         -5.6549  -19.7808  -46.7449 C.3       17 UNK         0.1400 
     96 CB         -6.6843  -19.0186  -45.8856 C.3       17 UNK        -0.1800 
     97 C          -4.9604  -18.8916  -47.7986 C.2       17 UNK         0.5000 
     98 O          -5.1450  -17.6757  -47.8161 O.2       17 UNK        -0.5000 
     99 N          -4.1808  -19.5537  -48.6606 N.am      18 UNK        -0.5000 
    100 CA        -3.4103  -19.0630  -49.8040 C.3       18 UNK         0.1400 
    101 CB        -2.5375  -17.8463  -49.4449 C.3       18 UNK        -0.1800 
    102 C         -4.2385  -18.7841  -51.0701 C.2       18 UNK         0.5000 
    103 O         -3.6366  -18.5060  -52.1087 O.2       18 UNK        -0.5000 
    104 N         -5.5743  -18.8783  -51.0031 N.am      19 UNK        -0.5000 
    105 CA        -6.4765  -18.5845  -52.1206 C.3       19 UNK         0.1400 
    106 CB        -7.9259  -18.5310  -51.6179 C.3       19 UNK        -0.1800 
    107 C         -6.3494  -19.5625  -53.3050 C.2       19 UNK         0.5000 
    108 O         -6.6206  -19.1641  -54.4384 O.2       19 UNK        -0.5000 
    109 N         -5.9232  -20.8043  -53.0356 N.am      20 UNK        -0.5000 
    110 CA        -5.6207  -21.8153  -54.0518 C.3       20 UNK         0.1400 
    111 CB        -6.1935  -23.1698  -53.6013 C.3       20 UNK        -0.1800 
    112 C         -4.1079  -21.9101  -54.3452 C.2       20 UNK         0.5000 
    113 O         -3.7048  -22.7693  -55.1309 O.2       20 UNK        -0.5000 
    114 N         -3.3001  -21.0425  -53.7212 N.am      21 UNK        -0.5000 
    115 CA        -1.8631  -20.9044  -53.9393 C.3       21 UNK         0.1400 
    116 CB        -1.1150  -21.1904  -52.6212 C.3       21 UNK        -0.1800 
    117 C         -1.5803  -19.5075  -54.5252 C.2       21 UNK         0.5000 
    118 O         -2.3239  -19.0536  -55.3980 O.2       21 UNK        -0.5000 
    119 N         -0.5081  -18.8574  -54.0599 N.am      22 UNK        -0.5000 
    120 CA        -0.0248  -17.5557  -54.5490 C.3       22 UNK         0.1400 
    121 C         -0.6909  -16.3270  -53.8572 C.2       22 UNK         0.5000 
    122 N         -1.7861  -16.4700  -53.1215 N.am      22 UNK        -0.7600 
    123 O         -0.1898  -15.2112  -53.9657 O.2       22 UNK        -0.5000 
    124 C124        1.5268  -17.4565  -54.5181 C.3       23 UNK        -0.0398 
    125 S125        2.3817  -18.9323  -55.1835 S.3       23 UNK        -0.2404 
    126 C126        3.7306  -19.1880  -53.9818 C.3       23 UNK        -0.0205 
    127 H127        1.5107  -13.0845  -54.1391 H         1 UNK         0.0600 
    128 H128        3.1125  -12.3900  -53.8812 H         1 UNK         0.0600 
    129 H129        1.6677  -11.4342  -53.5320 H         1 UNK         0.0600 
    130 H130        0.8354  -14.4503  -52.5148 H         1 UNK         0.3000 
    131 H131        2.2219  -14.5858  -49.9545 H         1 UNK         0.0600 
    132 H132       -0.2555  -16.1546  -50.7960 H         1 UNK         0.0800 
    133 H133        1.3287  -16.5969  -51.3322 H         1 UNK         0.0800 
    134 H134        3.0665  -18.1730  -48.2933 H         1 UNK         0.0800 
    135 H135        3.4303  -16.9476  -49.4785 H         1 UNK         0.0800 
    136 H136        3.5764  -17.5451  -51.8161 H         1 UNK         0.1150 
    137 H137        2.7924  -21.5754  -53.0434 H         1 UNK         0.1150 
    138 H138        1.9583  -20.3502  -49.0172 H         1 UNK         0.1150 
    139 H139        0.8265  -22.4468  -50.2310 H         1 UNK         0.0800 
    140 H140        1.7317  -23.1199  -51.5642 H         1 UNK         0.0800 
    141 H141        2.7504  -25.7169  -49.1514 H         1 UNK         0.0800 
    142 H142        1.3355  -25.1225  -49.9532 H         1 UNK         0.0800 
    143 H143        0.9530  -25.9373  -47.5929 H         1 UNK         0.0600 
    144 H144        2.1399  -23.5795  -46.3210 H         1 UNK         0.3000 
    145 H145        4.2975  -25.6659  -44.4118 H         1 UNK         0.0600 
    146 H146        6.0072  -23.9331  -44.9035 H         1 UNK         0.0600 
    147 H147        5.7900  -25.0202  -46.2663 H         1 UNK         0.0600 
    148 H148        5.0943  -23.4091  -46.3189 H         1 UNK         0.0600 
    149 H149        3.3969  -24.1753  -43.1259 H         1 UNK         0.3000 
    150 H150        2.0555  -22.4661  -42.3769 H         1 UNK         0.0600 
    151 H151        4.5239  -22.1358  -42.0399 H         1 UNK         0.0600 
    152 H152        3.6098  -20.7908  -41.3791 H         1 UNK         0.0600 
    153 H153        4.4450  -20.6151  -42.9214 H         1 UNK         0.0600 
    154 H154        2.1413  -19.7349  -43.0715 H         1 UNK         0.3000 
    155 H155       -0.5566  -19.3520  -45.1577 H         1 UNK         0.0600 
    156 H156       -2.0455  -20.0070  -43.2949 H         1 UNK         0.0600 
    157 H157       -1.9192  -18.2630  -43.4285 H         1 UNK         0.0600 
    158 H158       -1.0389  -19.1157  -42.1587 H         1 UNK         0.0600 
    159 H159        0.4818  -17.4895  -43.3171 H         1 UNK         0.3000 
    160 H160        3.6417  -16.9503  -44.5110 H         1 UNK         0.0600 
    161 H161        3.0638  -14.7235  -45.5511 H         1 UNK         0.0600 
    162 H162        2.8792  -16.0653  -46.6669 H         1 UNK         0.0600 
    163 H163        1.4548  -15.3493  -45.9296 H         1 UNK         0.0600 
    164 H164        1.7310  -15.0847  -43.4294 H         1 UNK         0.3000 
    165 H165        1.5920  -16.2801  -40.1720 H         1 UNK         0.0600 
    166 H166        2.6585  -14.1705  -39.4198 H         1 UNK         0.0600 
    167 H167        3.8828  -15.2885  -39.9973 H         1 UNK         0.0600 
    168 H168        3.3865  -13.9382  -41.0102 H         1 UNK         0.0600 
    169 H169        0.9115  -13.7287  -41.1713 H         1 UNK         0.3000 
    170 H170       -1.8905  -13.7505  -41.2400 H         1 UNK         0.0600 
    171 H171       -0.2052  -12.3006  -42.2044 H         1 UNK         0.0600 
    172 H172       -0.1506  -13.2290  -43.6971 H         1 UNK         0.0600 
    173 H173       -1.5658  -12.2546  -43.3086 H         1 UNK         0.0600 
    174 H174       -2.1884  -14.8121  -44.0070 H         1 UNK         0.3000 
    175 H175       -4.4084  -16.9737  -43.4586 H         1 UNK         0.0600 
    176 H176       -6.6395  -16.0681  -44.1943 H         1 UNK         0.0600 
    177 H177       -6.3629  -15.8770  -42.4723 H         1 UNK         0.0600 
    178 H178       -6.1986  -14.4924  -43.5404 H         1 UNK         0.0600 
    179 H179       -3.8178  -16.5587  -45.5263 H         1 UNK         0.3000 
    180 H180       -3.2923  -15.7276  -47.3864 H         1 UNK         0.0600 
    181 H181       -5.0733  -13.3495  -48.1446 H         1 UNK         0.0600 
    182 H182       -5.6312  -15.0118  -48.0135 H         1 UNK         0.0600 
    183 H183       -4.4451  -14.5865  -49.2361 H         1 UNK         0.0600 
    184 H184       -2.5819  -13.2356  -48.3172 H         1 UNK         0.3000 
    185 H185       -0.7781  -12.0015  -47.8905 H         1 UNK         0.0600 
    186 H186       -0.0033  -11.6619  -45.5656 H         1 UNK         0.0600 
    187 H187        1.1648  -12.9686  -45.7297 H         1 UNK         0.0600 
    188 H188        1.3275  -11.5084  -46.6987 H         1 UNK         0.0600 
    189 H189        1.4385  -13.9167  -47.9747 H         1 UNK         0.3000 
    190 H190        0.9396  -22.3781  -47.2624 H         1 UNK         0.3000 
    191 H191       -1.3239  -21.9770  -48.8390 H         1 UNK         0.0600 
    192 H192        0.2955  -20.3172  -46.9920 H         1 UNK         0.0600 
    193 H193       -1.3541  -19.7538  -47.2622 H         1 UNK         0.0600 
    194 H194       -0.2797  -19.9946  -48.6184 H         1 UNK         0.0600 
    195 H195       -1.2691  -22.5461  -45.3012 H         1 UNK         0.3000 
    196 H196       -3.9722  -22.0806  -44.7627 H         1 UNK         0.0600 
    197 H197       -3.5822  -23.6054  -42.7936 H         1 UNK         0.0600 
    198 H198       -2.3054  -22.4187  -42.9866 H         1 UNK         0.0600 
    199 H199       -2.0379  -24.0861  -43.4888 H         1 UNK         0.0600 
    200 H200       -2.4657  -24.9933  -46.1367 H         1 UNK         0.3000 
    201 H201       -4.9064  -26.5935  -46.1181 H         1 UNK         0.0600 
    202 H202       -2.6712  -27.6769  -46.0116 H         1 UNK         0.0600 
    203 H203       -2.2417  -26.9996  -47.5814 H         1 UNK         0.0600 
    204 H204       -3.5388  -28.1794  -47.4540 H         1 UNK         0.0600 
    205 H205       -3.0915  -24.5887  -48.4427 H         1 UNK         0.3000 
    206 H206       -4.9248  -25.0163  -50.6562 H         1 UNK         0.0600 
    207 H207       -2.4527  -24.6886  -50.9402 H         1 UNK         0.0600 
    208 H208       -3.3939  -23.5147  -51.8442 H         1 UNK         0.0600 
    209 H209       -2.6193  -23.0404  -50.3403 H         1 UNK         0.0600 
    210 H210       -6.4830  -24.2121  -48.6233 H         1 UNK         0.3000 
    211 H211       -8.1747  -22.8889  -48.0405 H         1 UNK         0.0600 
    212 H212       -7.9418  -21.8823  -50.9264 H         1 UNK         0.0600 
    213 H213       -9.3734  -21.7701  -49.9101 H         1 UNK         0.0600 
    214 H214       -8.7774  -23.3434  -50.4096 H         1 UNK         0.0600 
    215 H215       -5.8006  -21.8596  -47.0950 H         1 UNK         0.3000 
    216 H216       -4.8670  -20.1260  -46.0746 H         1 UNK         0.0600 
    217 H217       -6.2067  -18.2024  -45.3436 H         1 UNK         0.0600 
    218 H218       -7.1435  -19.6743  -45.1461 H         1 UNK         0.0600 
    219 H219       -7.4805  -18.5847  -46.4911 H         1 UNK         0.0600 
    220 H220       -4.1188  -20.5595  -48.5173 H         1 UNK         0.3000 
    221 H221       -2.7403  -19.8854  -50.0542 H         1 UNK         0.0600 
    222 H222       -3.1187  -16.9244  -49.4269 H         1 UNK         0.0600 
    223 H223       -2.0491  -17.9536  -48.4782 H         1 UNK         0.0600 
    224 H224       -1.7564  -17.7200  -50.1924 H         1 UNK         0.0600 
    225 H225       -6.0022  -19.1492  -50.1272 H         1 UNK         0.3000 
    226 H226       -6.2168  -17.5913  -52.4929 H         1 UNK         0.0600 
    227 H227       -8.5988  -18.1941  -52.4072 H         1 UNK         0.0600 
    228 H228       -8.2743  -19.5101  -51.2909 H         1 UNK         0.0600 
    229 H229       -8.0315  -17.8392  -50.7819 H         1 UNK         0.0600 
    230 H230       -5.7105  -21.0598  -52.0734 H         1 UNK         0.3000 
    231 H231       -6.1073  -21.5549  -54.9937 H         1 UNK         0.0600 
    232 H232       -7.2507  -23.0883  -53.3479 H         1 UNK         0.0600 
    233 H233       -5.6694  -23.5634  -52.7331 H         1 UNK         0.0600 
    234 H234       -6.1069  -23.9123  -54.3952 H         1 UNK         0.0600 
    235 H235       -3.7220  -20.3093  -53.1634 H         1 UNK         0.3000 
    236 H236       -1.5173  -21.6248  -54.6828 H         1 UNK         0.0600 
    237 H237       -0.0363  -21.1831  -52.7736 H         1 UNK         0.0600 
    238 H238       -1.3506  -20.4586  -51.8490 H         1 UNK         0.0600 
    239 H239       -1.3643  -22.1776  -52.2372 H         1 UNK         0.0600 
    240 H240        0.0507  -19.2896  -53.3393 H         1 UNK         0.3000 
    241 H241       -0.3107  -17.4720  -55.5989 H         1 UNK         0.0600 
    242 H242       -2.2482  -17.3654  -53.0068 H         1 UNK         0.3800 
    243 H243       -2.1939  -15.6528  -52.6987 H         1 UNK         0.3800 
    244 H244        1.8558  -16.5957  -55.1027 H         1 UNK         0.0800 
    245 H245        1.8657  -17.2639  -53.5036 H         1 UNK         0.0800 
    246 H246        4.3627  -18.2989  -53.9598 H         1 UNK         0.0800 
    247 H247        4.3661  -20.0005  -54.3368 H         1 UNK         0.0800 
@<TRIPOS>BOND
     1    1    2 1    
     2    1  127 1    
     3    1  128 1    
     4    1  129 1    
     5    2    3 2    
     6    2    4 am   BACKBONE|DICT|INTERRES
     7    4    5 1    
     8    4  130 1    
     9    5    6 1    
    10    5   65 1    
    11    5  131 1    
    12    6    7 1    
    13    6  132 1    
    14    6  133 1    
    15    7    8 1    
    16    8    9 1    
    17    8  134 1    
    18    8  135 1    
    19    9   10 ar   
    20    9   14 ar   
    21   10   11 ar   
    22   10  136 1    
    23   11   12 ar   
    24   11  126 1    
    25   12   13 ar   
    26   12  137 1    
    27   13   14 ar   
    28   13   15 1    
    29   14  138 1    
    30   15   16 1    
    31   15  139 1    
    32   15  140 1    
    33   16   17 1    
    34   17   18 1    
    35   17  141 1    
    36   17  142 1    
    37   18   19 1    
    38   18   67 1    
    39   18  143 1    
    40   19   20 am   BACKBONE|DICT|INTERRES
    41   19  144 1    
    42   20   21 2    
    43   20   22 1    
    44   22   23 1    
    45   22   24 1    
    46   22  145 1    
    47   23  146 1    
    48   23  147 1    
    49   23  148 1    
    50   24   25 am   BACKBONE|DICT|INTERRES
    51   24  149 1    
    52   25   26 2    
    53   25   27 1    
    54   27   28 1    
    55   27   29 1    
    56   27  150 1    
    57   28  151 1    
    58   28  152 1    
    59   28  153 1    
    60   29   30 am   BACKBONE|DICT|INTERRES
    61   29  154 1    
    62   30   31 2    
    63   30   32 1    
    64   32   33 1    
    65   32   34 1    
    66   32  155 1    
    67   33  156 1    
    68   33  157 1    
    69   33  158 1    
    70   34   35 am   BACKBONE|DICT|INTERRES
    71   34  159 1    
    72   35   36 2    
    73   35   37 1    
    74   37   38 1    
    75   37   39 1    
    76   37  160 1    
    77   38  161 1    
    78   38  162 1    
    79   38  163 1    
    80   39   40 am   BACKBONE|DICT|INTERRES
    81   39  164 1    
    82   40   41 2    
    83   40   42 1    
    84   42   43 1    
    85   42   44 1    
    86   42  165 1    
    87   43  166 1    
    88   43  167 1    
    89   43  168 1    
    90   44   45 am   BACKBONE|DICT|INTERRES
    91   44  169 1    
    92   45   46 2    
    93   45   47 1    
    94   47   48 1    
    95   47   49 1    
    96   47  170 1    
    97   48  171 1    
    98   48  172 1    
    99   48  173 1    
   100   49   50 am   BACKBONE|DICT|INTERRES
   101   49  174 1    
   102   50   51 2    
   103   50   52 1    
   104   52   53 1    
   105   52   54 1    
   106   52  175 1    
   107   53  176 1    
   108   53  177 1    
   109   53  178 1    
   110   54   55 am   BACKBONE|DICT|INTERRES
   111   54  179 1    
   112   55   56 2    
   113   55   57 1    
   114   57   58 1    
   115   57   59 1    
   116   57  180 1    
   117   58  181 1    
   118   58  182 1    
   119   58  183 1    
   120   59   60 am   BACKBONE|DICT|INTERRES
   121   59  184 1    
   122   60   61 2    
   123   60   62 1    
   124   62   63 1    
   125   62   64 1    
   126   62  185 1    
   127   63  186 1    
   128   63  187 1    
   129   63  188 1    
   130   64   65 am   BACKBONE|DICT|INTERRES
   131   64  189 1    
   132   65   66 2    
   133   67   68 2    
   134   67   69 am   BACKBONE|DICT|INTERRES
   135   69   70 1    
   136   69  190 1    
   137   70   71 1    
   138   70   72 1    
   139   70  191 1    
   140   71  192 1    
   141   71  193 1    
   142   71  194 1    
   143   72   73 2    
   144   72   74 am   BACKBONE|DICT|INTERRES
   145   74   75 1    
   146   74  195 1    
   147   75   76 1    
   148   75   77 1    
   149   75  196 1    
   150   76  197 1    
   151   76  198 1    
   152   76  199 1    
   153   77   78 2    
   154   77   79 am   BACKBONE|DICT|INTERRES
   155   79   80 1    
   156   79  200 1    
   157   80   81 1    
   158   80   82 1    
   159   80  201 1    
   160   81  202 1    
   161   81  203 1    
   162   81  204 1    
   163   82   83 2    
   164   82   84 am   BACKBONE|DICT|INTERRES
   165   84   85 1    
   166   84  205 1    
   167   85   86 1    
   168   85   87 1    
   169   85  206 1    
   170   86  207 1    
   171   86  208 1    
   172   86  209 1    
   173   87   88 2    
   174   87   89 am   BACKBONE|DICT|INTERRES
   175   89   90 1    
   176   89  210 1    
   177   90   91 1    
   178   90   92 1    
   179   90  211 1    
   180   91  212 1    
   181   91  213 1    
   182   91  214 1    
   183   92   93 2    
   184   92   94 am   BACKBONE|DICT|INTERRES
   185   94   95 1    
   186   94  215 1    
   187   95   96 1    
   188   95   97 1    
   189   95  216 1    
   190   96  217 1    
   191   96  218 1    
   192   96  219 1    
   193   97   98 2    
   194   97   99 am   BACKBONE|DICT|INTERRES
   195   99  100 1    
   196   99  220 1    
   197  100  101 1    
   198  100  102 1    
   199  100  221 1    
   200  101  222 1    
   201  101  223 1    
   202  101  224 1    
   203  102  103 2    
   204  102  104 am   BACKBONE|DICT|INTERRES
   205  104  105 1    
   206  104  225 1    
   207  105  106 1    
   208  105  107 1    
   209  105  226 1    
   210  106  227 1    
   211  106  228 1    
   212  106  229 1    
   213  107  108 2    
   214  107  109 am   BACKBONE|DICT|INTERRES
   215  109  110 1    
   216  109  230 1    
   217  110  111 1    
   218  110  112 1    
   219  110  231 1    
   220  111  232 1    
   221  111  233 1    
   222  111  234 1    
   223  112  113 2    
   224  112  114 am   BACKBONE|DICT|INTERRES
   225  114  115 1    
   226  114  235 1    
   227  115  116 1    
   228  115  117 1    
   229  115  236 1    
   230  116  237 1    
   231  116  238 1    
   232  116  239 1    
   233  117  118 2    
   234  117  119 am   BACKBONE|DICT|INTERRES
   235  119  120 1    
   236  119  240 1    
   237  120  121 1    
   238  120  124 1    
   239  120  241 1    
   240  121  122 am   BACKBONE|DICT|INTERRES
   241  121  123 2    
   242  122  242 1    
   243  122  243 1    
   244  124  125 1    
   245  124  244 1    
   246  124  245 1    
   247  125  126 1    
   248  126  246 1    
   249  126  247 1    
@<TRIPOS>SUBSTRUCTURE
     1 UNK         1 GROUP             0       ****    0 ROOT    
