@<TRIPOS>MOLECULE
3R540
247   249    1
SMALL
USER_CHARGES


@<TRIPOS>ATOM
      1 CA          4.0357  -15.8001  -47.2015 C.3       0 UNK        -0.1800 
      2 C           2.9546  -14.7971  -46.8290 C.2       0 UNK         0.5000 
      3 O           2.9207  -14.3325  -45.6907 O.2       0 UNK        -0.5000 
      4 N           2.0923  -14.4454  -47.7929 N.am      1 UNK        -0.5000 
      5 CA          0.8993  -13.5954  -47.6436 C.3       1 UNK         0.1400 
      6 C6          0.1483  -13.4084  -48.9873 C.3       23 UNK        -0.0398 
      7 S7         -0.3677  -14.9930  -49.7293 S.3       23 UNK        -0.2404 
      8 C8          0.8146  -15.1703  -51.1049 C.3       23 UNK        -0.0205 
      9 C9          1.0462  -16.6413  -51.4011 C.ar      23 UNK        -0.0193 
     10 C10         0.3376  -17.2909  -52.4148 C.ar      23 UNK        -0.1150 
     11 C11         0.4856  -18.6681  -52.6155 C.ar      23 UNK        -0.0193 
     12 C12         1.3678  -19.3880  -51.8022 C.ar      23 UNK        -0.1150 
     13 C13         2.0743  -18.7489  -50.7794 C.ar      23 UNK        -0.0193 
     14 C14         1.9317  -17.3704  -50.6070 C.ar      23 UNK        -0.1150 
     15 C15         2.9235  -19.5615  -49.8097 C.3       23 UNK        -0.0205 
     16 S16         2.5391  -19.2079  -48.0563 S.3       23 UNK        -0.2404 
     17 C17         0.7233  -19.4158  -47.9882 C.3       23 UNK        -0.0398 
     18 CA          0.3211  -20.7778  -47.3863 C.3       11 UNK         0.1400 
     19 N           0.5858  -20.8564  -45.9478 N.am      11 UNK        -0.5000 
     20 C           0.5334  -21.9847  -45.2281 C.2       10 UNK         0.5000 
     21 O           0.3251  -23.0947  -45.7159 O.2       10 UNK        -0.5000 
     22 CA          0.6834  -21.8457  -43.7020 C.3       10 UNK         0.1400 
     23 CB          2.1622  -21.7557  -43.2972 C.3       10 UNK        -0.1800 
     24 N          -0.0524  -20.6971  -43.1695 N.am      10 UNK        -0.5000 
     25 C          -1.3868  -20.5724  -43.2126 C.2       9 UNK         0.5000 
     26 O          -2.1368  -21.4427  -43.6549 O.2       9 UNK        -0.5000 
     27 CA         -1.9850  -19.2416  -42.7201 C.3       9 UNK         0.1400 
     28 CB         -2.1190  -19.2369  -41.1904 C.3       9 UNK        -0.1800 
     29 N          -1.2177  -18.0733  -43.1561 N.am      9 UNK        -0.5000 
     30 C          -1.0558  -17.7039  -44.4355 C.2       8 UNK         0.5000 
     31 O          -1.5738  -18.2908  -45.3836 O.2       8 UNK        -0.5000 
     32 CA         -0.1131  -16.5168  -44.7088 C.3       8 UNK         0.1400 
     33 CB         -0.8180  -15.1795  -44.4379 C.3       8 UNK        -0.1800 
     34 N           1.1159  -16.5902  -43.9214 N.am      8 UNK        -0.5000 
     35 C           2.0094  -17.5864  -43.9927 C.2       7 UNK         0.5000 
     36 O           1.9161  -18.5336  -44.7714 O.2       7 UNK        -0.5000 
     37 CA          3.1569  -17.5597  -42.9692 C.3       7 UNK         0.1400 
     38 CB          4.2695  -16.5897  -43.3919 C.3       7 UNK        -0.1800 
     39 N           2.6762  -17.2098  -41.6328 N.am      7 UNK        -0.5000 
     40 C           1.9019  -18.0026  -40.8784 C.2       6 UNK         0.5000 
     41 O           1.5496  -19.1330  -41.2135 O.2       6 UNK        -0.5000 
     42 CA          1.4106  -17.4185  -39.5413 C.3       6 UNK         0.1400 
     43 CB          2.4680  -17.6139  -38.4446 C.3       6 UNK        -0.1800 
     44 N           1.0724  -15.9979  -39.6406 N.am      6 UNK        -0.5000 
     45 C           0.0376  -15.5125  -40.3419 C.2       5 UNK         0.5000 
     46 O          -0.7685  -16.2181  -40.9464 O.2       5 UNK        -0.5000 
     47 CA         -0.0814  -13.9783  -40.4227 C.3       5 UNK         0.1400 
     48 CB         -0.8435  -13.4285  -39.2080 C.3       5 UNK        -0.1800 
     49 N           1.2216  -13.3133  -40.5259 N.am      5 UNK        -0.5000 
     50 C           2.0641  -13.4751  -41.5537 C.2       4 UNK         0.5000 
     51 O           1.8163  -14.1814  -42.5328 O.2       4 UNK        -0.5000 
     52 CA          3.4333  -12.7978  -41.4372 C.3       4 UNK         0.1400 
     53 CB          4.3549  -13.6362  -40.5267 C.3       4 UNK        -0.1800 
     54 N           4.0058  -12.6748  -42.7746 N.am      4 UNK        -0.5000 
     55 C           5.1065  -11.9858  -43.0957 C.2       3 UNK         0.5000 
     56 O           5.7714  -11.3343  -42.2890 O.2       3 UNK        -0.5000 
     57 CA          5.5280  -12.0177  -44.5726 C.3       3 UNK         0.1400 
     58 CB          6.1639  -13.3692  -44.9346 C.3       3 UNK        -0.1800 
     59 N           4.4018  -11.7422  -45.4656 N.am      3 UNK        -0.5000 
     60 C           3.9569  -10.5076  -45.7445 C.2       2 UNK         0.5000 
     61 O           4.4385   -9.4901  -45.2437 O.2       2 UNK        -0.5000 
     62 CA          2.8117  -10.3597  -46.7664 C.3       2 UNK         0.1400 
     63 CB          3.2546   -9.4909  -47.9565 C.3       2 UNK        -0.1800 
     64 N           2.3536  -11.6482  -47.2873 N.am      2 UNK        -0.5000 
     65 C           1.1743  -12.2159  -47.0058 C.2       1 UNK         0.5000 
     66 O           0.3198  -11.7042  -46.2813 O.2       1 UNK        -0.5000 
     67 C          -1.1437  -21.1217  -47.7259 C.2       11 UNK         0.5000 
     68 O          -1.3738  -21.8499  -48.6895 O.2       11 UNK        -0.5000 
     69 N          -2.1028  -20.6451  -46.9197 N.am      12 UNK        -0.5000 
     70 CA         -3.5286  -20.9481  -47.0685 C.3       12 UNK         0.1400 
     71 CB         -4.3533  -20.0579  -46.1282 C.3       12 UNK        -0.1800 
     72 C          -3.8491  -22.4368  -46.8427 C.2       12 UNK         0.5000 
     73 O          -4.6788  -22.9944  -47.5595 O.2       12 UNK        -0.5000 
     74 N          -3.1510  -23.0731  -45.8927 N.am      13 UNK        -0.5000 
     75 CA         -3.2054  -24.5174  -45.6546 C.3       13 UNK         0.1400 
     76 CB         -2.5233  -24.8323  -44.3147 C.3       13 UNK        -0.1800 
     77 C          -2.5777  -25.3460  -46.7965 C.2       13 UNK         0.5000 
     78 O          -2.9480  -26.5066  -46.9747 O.2       13 UNK        -0.5000 
     79 N          -1.6563  -24.7365  -47.5532 N.am      14 UNK        -0.5000 
     80 CA         -0.9621  -25.3229  -48.6996 C.3       14 UNK         0.1400 
     81 CB          0.4941  -24.8259  -48.6977 C.3       14 UNK        -0.1800 
     82 C          -1.6518  -25.0189  -50.0473 C.2       14 UNK         0.5000 
     83 O          -1.0954  -25.3691  -51.0900 O.2       14 UNK        -0.5000 
     84 N          -2.8331  -24.3814  -50.0239 N.am      15 UNK        -0.5000 
     85 CA         -3.6574  -24.0885  -51.1998 C.3       15 UNK         0.1400 
     86 CB         -4.8731  -23.2555  -50.7630 C.3       15 UNK        -0.1800 
     87 C          -4.1178  -25.3685  -51.9242 C.2       15 UNK         0.5000 
     88 O          -4.2642  -26.4196  -51.2931 O.2       15 UNK        -0.5000 
     89 N          -4.3726  -25.2549  -53.2326 N.am      16 UNK        -0.5000 
     90 CA         -4.7363  -26.3601  -54.1240 C.3       16 UNK         0.1400 
     91 CB         -4.3796  -25.9615  -55.5677 C.3       16 UNK        -0.1800 
     92 C          -6.2156  -26.7711  -53.9659 C.2       16 UNK         0.5000 
     93 O          -6.9890  -26.6675  -54.9174 O.2       16 UNK        -0.5000 
     94 N          -6.5817  -27.1978  -52.7489 N.am      17 UNK        -0.5000 
     95 CA         -7.9395  -27.4933  -52.2775 C.3       17 UNK         0.1400 
     96 CB         -8.5480  -28.6959  -53.0299 C.3       17 UNK        -0.1800 
     97 C          -8.8230  -26.2296  -52.3141 C.2       17 UNK         0.5000 
     98 O          -9.8874  -26.2261  -52.9350 O.2       17 UNK        -0.5000 
     99 N          -8.3231  -25.1696  -51.6587 N.am      18 UNK        -0.5000 
    100 CA        -8.8800  -23.8121  -51.6075 C.3       18 UNK         0.1400 
    101 CB       -10.2504  -23.7947  -50.8973 C.3       18 UNK        -0.1800 
    102 C         -8.8970  -23.1294  -52.9926 C.2       18 UNK         0.5000 
    103 O         -9.8788  -22.4807  -53.3593 O.2       18 UNK        -0.5000 
    104 N         -7.7934  -23.2858  -53.7316 N.am      19 UNK        -0.5000 
    105 CA        -7.5405  -22.6763  -55.0330 C.3       19 UNK         0.1400 
    106 CB        -8.0358  -23.6070  -56.1550 C.3       19 UNK        -0.1800 
    107 C         -6.0408  -22.3569  -55.1573 C.2       19 UNK         0.5000 
    108 O         -5.2785  -22.6040  -54.2182 O.2       19 UNK        -0.5000 
    109 N         -5.6566  -21.7911  -56.3098 N.am      20 UNK        -0.5000 
    110 CA        -4.3284  -21.2577  -56.6561 C.3       20 UNK         0.1400 
    111 CB        -3.2033  -22.2928  -56.4386 C.3       20 UNK        -0.1800 
    112 C         -4.0187  -19.8950  -55.9973 C.2       20 UNK         0.5000 
    113 O         -2.8894  -19.4157  -56.0979 O.2       20 UNK        -0.5000 
    114 N         -5.0379  -19.2804  -55.3750 N.am      21 UNK        -0.5000 
    115 CA        -5.0475  -17.9530  -54.7470 C.3       21 UNK         0.1400 
    116 CB        -4.8162  -16.8495  -55.8013 C.3       21 UNK        -0.1800 
    117 C         -4.1112  -17.8127  -53.5270 C.2       21 UNK         0.5000 
    118 O         -3.7394  -16.6920  -53.1745 O.2       21 UNK        -0.5000 
    119 N         -3.7579  -18.9378  -52.8912 N.am      22 UNK        -0.5000 
    120 CA        -2.8723  -18.9720  -51.7150 C.3       22 UNK         0.1400 
    121 C         -3.5682  -18.6231  -50.3683 C.2       22 UNK         0.5000 
    122 N         -4.8928  -18.5583  -50.2990 N.am      22 UNK        -0.7600 
    123 O         -2.8927  -18.3955  -49.3705 O.2       22 UNK        -0.5000 
    124 C124       -2.0934  -20.3073  -51.5977 C.3       23 UNK        -0.0398 
    125 S125       -1.2117  -20.8660  -53.1005 S.3       23 UNK        -0.2404 
    126 C126       -0.3386  -19.3705  -53.6907 C.3       23 UNK        -0.0205 
    127 H127        4.0651  -15.9883  -48.2743 H         1 UNK         0.0600 
    128 H128        3.8524  -16.7470  -46.6943 H         1 UNK         0.0600 
    129 H129        5.0153  -15.4330  -46.8975 H         1 UNK         0.0600 
    130 H130        2.1898  -14.8706  -48.7019 H         1 UNK         0.3000 
    131 H131        0.2314  -14.1251  -46.9632 H         1 UNK         0.0600 
    132 H132       -0.7569  -12.8175  -48.8344 H         1 UNK         0.0800 
    133 H133        0.7557  -12.8470  -49.6996 H         1 UNK         0.0800 
    134 H134        1.7661  -14.6971  -50.8590 H         1 UNK         0.0800 
    135 H135        0.4288  -14.6527  -51.9846 H         1 UNK         0.0800 
    136 H136       -0.3590  -16.7294  -53.0220 H         1 UNK         0.1150 
    137 H137        1.4680  -20.4556  -51.9393 H         1 UNK         0.1150 
    138 H138        2.4626  -16.8766  -49.8072 H         1 UNK         0.1150 
    139 H139        2.7899  -20.6304  -49.9831 H         1 UNK         0.0800 
    140 H140        3.9766  -19.3455  -49.9931 H         1 UNK         0.0800 
    141 H141        0.2982  -19.2950  -48.9847 H         1 UNK         0.0800 
    142 H142        0.3066  -18.5995  -47.3965 H         1 UNK         0.0800 
    143 H143        0.9335  -21.5433  -47.8676 H         1 UNK         0.0600 
    144 H144        0.8348  -19.9874  -45.4827 H         1 UNK         0.3000 
    145 H145        0.2653  -22.7459  -43.2468 H         1 UNK         0.0600 
    146 H146        2.2726  -21.7237  -42.2132 H         1 UNK         0.0600 
    147 H147        2.7172  -22.6234  -43.6558 H         1 UNK         0.0600 
    148 H148        2.6420  -20.8678  -43.7081 H         1 UNK         0.0600 
    149 H149        0.4983  -19.9588  -42.7437 H         1 UNK         0.3000 
    150 H150       -2.9871  -19.1538  -43.1442 H         1 UNK         0.0600 
    151 H151       -2.7046  -20.0906  -40.8471 H         1 UNK         0.0600 
    152 H152       -2.6237  -18.3357  -40.8420 H         1 UNK         0.0600 
    153 H153       -1.1469  -19.2868  -40.6999 H         1 UNK         0.0600 
    154 H154       -0.8052  -17.5016  -42.4249 H         1 UNK         0.3000 
    155 H155        0.1711  -16.5460  -45.7628 H         1 UNK         0.0600 
    156 H156       -0.1483  -14.3368  -44.6114 H         1 UNK         0.0600 
    157 H157       -1.1732  -15.1111  -43.4099 H         1 UNK         0.0600 
    158 H158       -1.6806  -15.0547  -45.0933 H         1 UNK         0.0600 
    159 H159        1.3049  -15.8075  -43.3001 H         1 UNK         0.3000 
    160 H160        3.5862  -18.5629  -42.9241 H         1 UNK         0.0600 
    161 H161        3.9082  -15.5642  -43.4553 H         1 UNK         0.0600 
    162 H162        4.6680  -16.8574  -44.3706 H         1 UNK         0.0600 
    163 H163        5.1006  -16.6091  -42.6871 H         1 UNK         0.0600 
    164 H164        2.8763  -16.2771  -41.3075 H         1 UNK         0.3000 
    165 H165        0.5108  -17.9641  -39.2493 H         1 UNK         0.0600 
    166 H166        2.1003  -17.2713  -37.4772 H         1 UNK         0.0600 
    167 H167        2.7280  -18.6679  -38.3375 H         1 UNK         0.0600 
    168 H168        3.3869  -17.0699  -38.6670 H         1 UNK         0.0600 
    169 H169        1.6821  -15.3477  -39.1679 H         1 UNK         0.3000 
    170 H170       -0.6534  -13.7382  -41.3214 H         1 UNK         0.0600 
    171 H171       -1.8253  -13.8959  -39.1198 H         1 UNK         0.0600 
    172 H172       -0.3071  -13.6130  -38.2765 H         1 UNK         0.0600 
    173 H173       -1.0039  -12.3538  -39.2967 H         1 UNK         0.0600 
    174 H174        1.4919  -12.7234  -39.7520 H         1 UNK         0.3000 
    175 H175        3.2967  -11.8002  -41.0155 H         1 UNK         0.0600 
    176 H176        4.5566  -14.6185  -40.9550 H         1 UNK         0.0600 
    177 H177        5.3131  -13.1442  -40.3618 H         1 UNK         0.0600 
    178 H178        3.9077  -13.7910  -39.5442 H         1 UNK         0.0600 
    179 H179        3.4904  -13.1712  -43.4945 H         1 UNK         0.3000 
    180 H180        6.2903  -11.2493  -44.7198 H         1 UNK         0.0600 
    181 H181        5.4716  -14.1972  -44.7872 H         1 UNK         0.0600 
    182 H182        7.0398  -13.5642  -44.3146 H         1 UNK         0.0600 
    183 H183        6.4911  -13.3856  -45.9742 H         1 UNK         0.0600 
    184 H184        3.8931  -12.5446  -45.8191 H         1 UNK         0.3000 
    185 H185        1.9988   -9.8403  -46.2551 H         1 UNK         0.0600 
    186 H186        3.5648   -8.4984  -47.6271 H         1 UNK         0.0600 
    187 H187        4.0942   -9.9375  -48.4906 H         1 UNK         0.0600 
    188 H188        2.4398   -9.3535  -48.6676 H         1 UNK         0.0600 
    189 H189        2.9964  -12.1463  -47.8864 H         1 UNK         0.3000 
    190 H190       -1.8510  -19.9824  -46.1908 H         1 UNK         0.3000 
    191 H191       -3.8125  -20.7075  -48.0945 H         1 UNK         0.0600 
    192 H192       -4.1115  -20.2423  -45.0819 H         1 UNK         0.0600 
    193 H193       -5.4209  -20.2402  -46.2561 H         1 UNK         0.0600 
    194 H194       -4.1764  -19.0018  -46.3332 H         1 UNK         0.0600 
    195 H195       -2.5358  -22.5311  -45.2933 H         1 UNK         0.3000 
    196 H196       -4.2551  -24.8079  -45.5771 H         1 UNK         0.0600 
    197 H197       -2.5845  -25.8969  -44.0855 H         1 UNK         0.0600 
    198 H198       -2.9986  -24.2944  -43.4942 H         1 UNK         0.0600 
    199 H199       -1.4681  -24.5591  -44.3258 H         1 UNK         0.0600 
    200 H200       -1.4135  -23.7783  -47.3358 H         1 UNK         0.3000 
    201 H201       -0.9417  -26.4091  -48.5916 H         1 UNK         0.0600 
    202 H202        0.9828  -25.0385  -47.7467 H         1 UNK         0.0600 
    203 H203        0.5528  -23.7517  -48.8712 H         1 UNK         0.0600 
    204 H204        1.0783  -25.3155  -49.4776 H         1 UNK         0.0600 
    205 H205       -3.2186  -24.1219  -49.1266 H         1 UNK         0.3000 
    206 H206       -3.0543  -23.4981  -51.8925 H         1 UNK         0.0600 
    207 H207       -5.5116  -23.8100  -50.0744 H         1 UNK         0.0600 
    208 H208       -5.4852  -22.9666  -51.6165 H         1 UNK         0.0600 
    209 H209       -4.5654  -22.3366  -50.2639 H         1 UNK         0.0600 
    210 H210       -4.3311  -24.3346  -53.6590 H         1 UNK         0.3000 
    211 H211       -4.1310  -27.2317  -53.8656 H         1 UNK         0.0600 
    212 H212       -4.9471  -25.0918  -55.8991 H         1 UNK         0.0600 
    213 H213       -4.5906  -26.7755  -56.2622 H         1 UNK         0.0600 
    214 H214       -3.3198  -25.7235  -55.6606 H         1 UNK         0.0600 
    215 H215       -5.8537  -27.2051  -52.0386 H         1 UNK         0.3000 
    216 H216       -7.8486  -27.7783  -51.2282 H         1 UNK         0.0600 
    217 H217       -9.5074  -28.9787  -52.5952 H         1 UNK         0.0600 
    218 H218       -7.8959  -29.5673  -52.9718 H         1 UNK         0.0600 
    219 H219       -8.7219  -28.4771  -54.0836 H         1 UNK         0.0600 
    220 H220       -7.4433  -25.2945  -51.1794 H         1 UNK         0.3000 
    221 H221       -8.1934  -23.2260  -50.9947 H         1 UNK         0.0600 
    222 H222      -11.0191  -24.3039  -51.4790 H         1 UNK         0.0600 
    223 H223      -10.1945  -24.2758  -49.9208 H         1 UNK         0.0600 
    224 H224      -10.5912  -22.7716  -50.7346 H         1 UNK         0.0600 
    225 H225       -7.0050  -23.7847  -53.3455 H         1 UNK         0.3000 
    226 H226       -8.0778  -21.7277  -55.0942 H         1 UNK         0.0600 
    227 H227       -9.0609  -23.9328  -55.9777 H         1 UNK         0.0600 
    228 H228       -8.0229  -23.1033  -57.1217 H         1 UNK         0.0600 
    229 H229       -7.4144  -24.4970  -56.2445 H         1 UNK         0.0600 
    230 H230       -6.3613  -21.6486  -57.0207 H         1 UNK         0.3000 
    231 H231       -4.3695  -21.0569  -57.7276 H         1 UNK         0.0600 
    232 H232       -3.4521  -23.2505  -56.8948 H         1 UNK         0.0600 
    233 H233       -2.9987  -22.4625  -55.3814 H         1 UNK         0.0600 
    234 H234       -2.2714  -21.9523  -56.8911 H         1 UNK         0.0600 
    235 H235       -5.9198  -19.7703  -55.3564 H         1 UNK         0.3000 
    236 H236       -6.0568  -17.8182  -54.3560 H         1 UNK         0.0600 
    237 H237       -3.7967  -16.8658  -56.1874 H         1 UNK         0.0600 
    238 H238       -5.4969  -16.9607  -56.6453 H         1 UNK         0.0600 
    239 H239       -4.9882  -15.8592  -55.3782 H         1 UNK         0.0600 
    240 H240       -4.0807  -19.8261  -53.2456 H         1 UNK         0.3000 
    241 H241       -2.1355  -18.1814  -51.8428 H         1 UNK         0.0600 
    242 H242       -5.4604  -18.7296  -51.1125 H         1 UNK         0.3800 
    243 H243       -5.3290  -18.3145  -49.4245 H         1 UNK         0.3800 
    244 H244       -1.3512  -20.2301  -50.8022 H         1 UNK         0.0800 
    245 H245       -2.7671  -21.1092  -51.2963 H         1 UNK         0.0800 
    246 H246       -1.0736  -18.6881  -54.1198 H         1 UNK         0.0800 
    247 H247        0.3234  -19.6545  -54.5093 H         1 UNK         0.0800 
@<TRIPOS>BOND
     1    1    2 1    
     2    1  127 1    
     3    1  128 1    
     4    1  129 1    
     5    2    3 2    
     6    2    4 am   BACKBONE|DICT|INTERRES
     7    4    5 1    
     8    4  130 1    
     9    5    6 1    
    10    5   65 1    
    11    5  131 1    
    12    6    7 1    
    13    6  132 1    
    14    6  133 1    
    15    7    8 1    
    16    8    9 1    
    17    8  134 1    
    18    8  135 1    
    19    9   10 ar   
    20    9   14 ar   
    21   10   11 ar   
    22   10  136 1    
    23   11   12 ar   
    24   11  126 1    
    25   12   13 ar   
    26   12  137 1    
    27   13   14 ar   
    28   13   15 1    
    29   14  138 1    
    30   15   16 1    
    31   15  139 1    
    32   15  140 1    
    33   16   17 1    
    34   17   18 1    
    35   17  141 1    
    36   17  142 1    
    37   18   19 1    
    38   18   67 1    
    39   18  143 1    
    40   19   20 am   BACKBONE|DICT|INTERRES
    41   19  144 1    
    42   20   21 2    
    43   20   22 1    
    44   22   23 1    
    45   22   24 1    
    46   22  145 1    
    47   23  146 1    
    48   23  147 1    
    49   23  148 1    
    50   24   25 am   BACKBONE|DICT|INTERRES
    51   24  149 1    
    52   25   26 2    
    53   25   27 1    
    54   27   28 1    
    55   27   29 1    
    56   27  150 1    
    57   28  151 1    
    58   28  152 1    
    59   28  153 1    
    60   29   30 am   BACKBONE|DICT|INTERRES
    61   29  154 1    
    62   30   31 2    
    63   30   32 1    
    64   32   33 1    
    65   32   34 1    
    66   32  155 1    
    67   33  156 1    
    68   33  157 1    
    69   33  158 1    
    70   34   35 am   BACKBONE|DICT|INTERRES
    71   34  159 1    
    72   35   36 2    
    73   35   37 1    
    74   37   38 1    
    75   37   39 1    
    76   37  160 1    
    77   38  161 1    
    78   38  162 1    
    79   38  163 1    
    80   39   40 am   BACKBONE|DICT|INTERRES
    81   39  164 1    
    82   40   41 2    
    83   40   42 1    
    84   42   43 1    
    85   42   44 1    
    86   42  165 1    
    87   43  166 1    
    88   43  167 1    
    89   43  168 1    
    90   44   45 am   BACKBONE|DICT|INTERRES
    91   44  169 1    
    92   45   46 2    
    93   45   47 1    
    94   47   48 1    
    95   47   49 1    
    96   47  170 1    
    97   48  171 1    
    98   48  172 1    
    99   48  173 1    
   100   49   50 am   BACKBONE|DICT|INTERRES
   101   49  174 1    
   102   50   51 2    
   103   50   52 1    
   104   52   53 1    
   105   52   54 1    
   106   52  175 1    
   107   53  176 1    
   108   53  177 1    
   109   53  178 1    
   110   54   55 am   BACKBONE|DICT|INTERRES
   111   54  179 1    
   112   55   56 2    
   113   55   57 1    
   114   57   58 1    
   115   57   59 1    
   116   57  180 1    
   117   58  181 1    
   118   58  182 1    
   119   58  183 1    
   120   59   60 am   BACKBONE|DICT|INTERRES
   121   59  184 1    
   122   60   61 2    
   123   60   62 1    
   124   62   63 1    
   125   62   64 1    
   126   62  185 1    
   127   63  186 1    
   128   63  187 1    
   129   63  188 1    
   130   64   65 am   BACKBONE|DICT|INTERRES
   131   64  189 1    
   132   65   66 2    
   133   67   68 2    
   134   67   69 am   BACKBONE|DICT|INTERRES
   135   69   70 1    
   136   69  190 1    
   137   70   71 1    
   138   70   72 1    
   139   70  191 1    
   140   71  192 1    
   141   71  193 1    
   142   71  194 1    
   143   72   73 2    
   144   72   74 am   BACKBONE|DICT|INTERRES
   145   74   75 1    
   146   74  195 1    
   147   75   76 1    
   148   75   77 1    
   149   75  196 1    
   150   76  197 1    
   151   76  198 1    
   152   76  199 1    
   153   77   78 2    
   154   77   79 am   BACKBONE|DICT|INTERRES
   155   79   80 1    
   156   79  200 1    
   157   80   81 1    
   158   80   82 1    
   159   80  201 1    
   160   81  202 1    
   161   81  203 1    
   162   81  204 1    
   163   82   83 2    
   164   82   84 am   BACKBONE|DICT|INTERRES
   165   84   85 1    
   166   84  205 1    
   167   85   86 1    
   168   85   87 1    
   169   85  206 1    
   170   86  207 1    
   171   86  208 1    
   172   86  209 1    
   173   87   88 2    
   174   87   89 am   BACKBONE|DICT|INTERRES
   175   89   90 1    
   176   89  210 1    
   177   90   91 1    
   178   90   92 1    
   179   90  211 1    
   180   91  212 1    
   181   91  213 1    
   182   91  214 1    
   183   92   93 2    
   184   92   94 am   BACKBONE|DICT|INTERRES
   185   94   95 1    
   186   94  215 1    
   187   95   96 1    
   188   95   97 1    
   189   95  216 1    
   190   96  217 1    
   191   96  218 1    
   192   96  219 1    
   193   97   98 2    
   194   97   99 am   BACKBONE|DICT|INTERRES
   195   99  100 1    
   196   99  220 1    
   197  100  101 1    
   198  100  102 1    
   199  100  221 1    
   200  101  222 1    
   201  101  223 1    
   202  101  224 1    
   203  102  103 2    
   204  102  104 am   BACKBONE|DICT|INTERRES
   205  104  105 1    
   206  104  225 1    
   207  105  106 1    
   208  105  107 1    
   209  105  226 1    
   210  106  227 1    
   211  106  228 1    
   212  106  229 1    
   213  107  108 2    
   214  107  109 am   BACKBONE|DICT|INTERRES
   215  109  110 1    
   216  109  230 1    
   217  110  111 1    
   218  110  112 1    
   219  110  231 1    
   220  111  232 1    
   221  111  233 1    
   222  111  234 1    
   223  112  113 2    
   224  112  114 am   BACKBONE|DICT|INTERRES
   225  114  115 1    
   226  114  235 1    
   227  115  116 1    
   228  115  117 1    
   229  115  236 1    
   230  116  237 1    
   231  116  238 1    
   232  116  239 1    
   233  117  118 2    
   234  117  119 am   BACKBONE|DICT|INTERRES
   235  119  120 1    
   236  119  240 1    
   237  120  121 1    
   238  120  124 1    
   239  120  241 1    
   240  121  122 am   BACKBONE|DICT|INTERRES
   241  121  123 2    
   242  122  242 1    
   243  122  243 1    
   244  124  125 1    
   245  124  244 1    
   246  124  245 1    
   247  125  126 1    
   248  126  246 1    
   249  126  247 1    
@<TRIPOS>SUBSTRUCTURE
     1 UNK         1 GROUP             0       ****    0 ROOT    
