@<TRIPOS>MOLECULE
3R540
247   249    1
SMALL
USER_CHARGES


@<TRIPOS>ATOM
      1 CA         -4.5690  -16.6009  -45.2065 C.3       0 UNK        -0.1800 
      2 C          -3.8742  -15.5256  -46.0324 C.2       0 UNK         0.5000 
      3 O          -4.5458  -14.6901  -46.6378 O.2       0 UNK        -0.5000 
      4 N          -2.5357  -15.5529  -46.0682 N.am      1 UNK        -0.5000 
      5 CA         -1.6940  -14.5815  -46.7701 C.3       1 UNK         0.1400 
      6 C6         -0.2502  -15.1229  -46.9578 C.3       23 UNK        -0.0398 
      7 S7          0.6203  -14.2932  -48.3352 S.3       23 UNK        -0.2404 
      8 C8          1.7212  -15.5948  -48.9869 C.3       23 UNK        -0.0205 
      9 C9          0.9999  -16.8311  -49.5160 C.ar      23 UNK        -0.0193 
     10 C10        -0.1261  -16.7217  -50.3378 C.ar      23 UNK        -0.1150 
     11 C11        -0.7693  -17.8637  -50.8256 C.ar      23 UNK        -0.0193 
     12 C12        -0.2667  -19.1273  -50.4981 C.ar      23 UNK        -0.1150 
     13 C13         0.8707  -19.2548  -49.6922 C.ar      23 UNK        -0.0193 
     14 C14         1.4968  -18.1002  -49.2095 C.ar      23 UNK        -0.1150 
     15 C15         1.4389  -20.6378  -49.3845 C.3       23 UNK        -0.0205 
     16 S16         1.8979  -20.8444  -47.6282 S.3       23 UNK        -0.2404 
     17 C17         1.3211  -22.5364  -47.2653 C.3       23 UNK        -0.0398 
     18 CA         -0.0949  -22.6395  -46.6415 C.3       11 UNK         0.1400 
     19 N          -0.1482  -22.1957  -45.2433 N.am      11 UNK        -0.5000 
     20 C          -1.1633  -22.4977  -44.4187 C.2       10 UNK         0.5000 
     21 O          -2.1400  -23.1646  -44.7623 O.2       10 UNK        -0.5000 
     22 CA         -1.1004  -21.9561  -42.9809 C.3       10 UNK         0.1400 
     23 CB         -0.1136  -22.7738  -42.1342 C.3       10 UNK        -0.1800 
     24 N          -0.7619  -20.5357  -42.9061 N.am      10 UNK        -0.5000 
     25 C          -1.5105  -19.5424  -43.4062 C.2       9 UNK         0.5000 
     26 O          -2.5649  -19.7175  -44.0160 O.2       9 UNK        -0.5000 
     27 CA         -0.9697  -18.1109  -43.2311 C.3       9 UNK         0.1400 
     28 CB         -1.1973  -17.5957  -41.8028 C.3       9 UNK        -0.1800 
     29 N           0.4466  -18.0099  -43.5739 N.am      9 UNK        -0.5000 
     30 C           0.9361  -18.2382  -44.8000 C.2       8 UNK         0.5000 
     31 O           0.2324  -18.4665  -45.7819 O.2       8 UNK        -0.5000 
     32 CA          2.4664  -18.2528  -44.9376 C.3       8 UNK         0.1400 
     33 CB          3.0161  -16.8266  -45.0810 C.3       8 UNK        -0.1800 
     34 N           3.1123  -18.9300  -43.8123 N.am      8 UNK        -0.5000 
     35 C           3.0083  -20.2430  -43.5536 C.2       7 UNK         0.5000 
     36 O           2.3752  -21.0371  -44.2490 O.2       7 UNK        -0.5000 
     37 CA          3.6931  -20.7450  -42.2698 C.3       7 UNK         0.1400 
     38 CB          5.1924  -20.9783  -42.5087 C.3       7 UNK        -0.1800 
     39 N           3.5165  -19.8251  -41.1457 N.am      7 UNK        -0.5000 
     40 C           2.3373  -19.5496  -40.5704 C.2       6 UNK         0.5000 
     41 O           1.2758  -20.0757  -40.9007 O.2       6 UNK        -0.5000 
     42 CA          2.3376  -18.4674  -39.4762 C.3       6 UNK         0.1400 
     43 CB          2.6398  -19.0862  -38.1035 C.3       6 UNK        -0.1800 
     44 N           3.2864  -17.3827  -39.7424 N.am      6 UNK        -0.5000 
     45 C           3.2073  -16.5467  -40.7857 C.2       5 UNK         0.5000 
     46 O           2.3393  -16.6218  -41.6586 O.2       5 UNK        -0.5000 
     47 CA          4.3174  -15.4858  -40.8971 C.3       5 UNK         0.1400 
     48 CB          5.3565  -15.9037  -41.9491 C.3       5 UNK        -0.1800 
     49 N           3.7917  -14.1654  -41.2412 N.am      5 UNK        -0.5000 
     50 C           2.9905  -13.4319  -40.4562 C.2       4 UNK         0.5000 
     51 O           2.6268  -13.7885  -39.3341 O.2       4 UNK        -0.5000 
     52 CA          2.5434  -12.0530  -40.9829 C.3       4 UNK         0.1400 
     53 CB          3.2513  -10.9291  -40.2086 C.3       4 UNK        -0.1800 
     54 N           2.7745  -11.8466  -42.4158 N.am      4 UNK        -0.5000 
     55 C           2.0172  -12.3666  -43.3887 C.2       3 UNK         0.5000 
     56 O           1.0982  -13.1633  -43.1914 O.2       3 UNK        -0.5000 
     57 CA          2.3571  -11.9278  -44.8264 C.3       3 UNK         0.1400 
     58 CB          3.2273  -12.9856  -45.5221 C.3       3 UNK        -0.1800 
     59 N           1.1493  -11.7129  -45.6213 N.am      3 UNK        -0.5000 
     60 C           0.2308  -10.7613  -45.3955 C.2       2 UNK         0.5000 
     61 O           0.3677   -9.8637  -44.5631 O.2       2 UNK        -0.5000 
     62 CA         -1.0618  -10.8221  -46.2379 C.3       2 UNK         0.1400 
     63 CB         -0.9945   -9.8211  -47.4015 C.3       2 UNK        -0.1800 
     64 N          -1.3280  -12.1584  -46.7765 N.am      2 UNK        -0.5000 
     65 C          -1.6927  -13.2175  -46.0416 C.2       1 UNK         0.5000 
     66 O          -1.9702  -13.1494  -44.8415 O.2       1 UNK        -0.5000 
     67 C          -1.1913  -21.9757  -47.5023 C.2       11 UNK         0.5000 
     68 O          -1.7512  -22.6300  -48.3831 O.2       11 UNK        -0.5000 
     69 N          -1.5047  -20.7057  -47.2112 N.am      12 UNK        -0.5000 
     70 CA         -2.5900  -19.9653  -47.8428 C.3       12 UNK         0.1400 
     71 CB         -2.4739  -18.4830  -47.4887 C.3       12 UNK        -0.1800 
     72 C          -3.9675  -20.5230  -47.4580 C.2       12 UNK         0.5000 
     73 O          -4.7894  -20.7389  -48.3447 O.2       12 UNK        -0.5000 
     74 N          -4.1795  -20.8118  -46.1655 N.am      13 UNK        -0.5000 
     75 CA         -5.3965  -21.4464  -45.6482 C.3       13 UNK         0.1400 
     76 CB         -5.3406  -21.4893  -44.1140 C.3       13 UNK        -0.1800 
     77 C          -5.6422  -22.8552  -46.2265 C.2       13 UNK         0.5000 
     78 O          -6.7939  -23.2302  -46.4487 O.2       13 UNK        -0.5000 
     79 N          -4.5557  -23.5909  -46.4957 N.am      14 UNK        -0.5000 
     80 CA         -4.5643  -24.8812  -47.1861 C.3       14 UNK         0.1400 
     81 CB         -3.2526  -25.6153  -46.8636 C.3       14 UNK        -0.1800 
     82 C          -4.7502  -24.7658  -48.7154 C.2       14 UNK         0.5000 
     83 O          -4.9786  -25.7890  -49.3617 O.2       14 UNK        -0.5000 
     84 N          -4.6259  -23.5474  -49.2670 N.am      15 UNK        -0.5000 
     85 CA         -4.6251  -23.1989  -50.6930 C.3       15 UNK         0.1400 
     86 CB         -6.0214  -23.4082  -51.3114 C.3       15 UNK        -0.1800 
     87 C          -3.4989  -23.9143  -51.4693 C.2       15 UNK         0.5000 
     88 O          -3.7112  -24.3930  -52.5853 O.2       15 UNK        -0.5000 
     89 N          -2.3110  -23.9830  -50.8496 N.am      16 UNK        -0.5000 
     90 CA         -1.1480  -24.7415  -51.3191 C.3       16 UNK         0.1400 
     91 CB         -0.0934  -24.7731  -50.2060 C.3       16 UNK        -0.1800 
     92 C          -0.5233  -24.2196  -52.6267 C.2       16 UNK         0.5000 
     93 O           0.2431  -24.9482  -53.2588 O.2       16 UNK        -0.5000 
     94 N          -0.8747  -22.9931  -53.0356 N.am      17 UNK        -0.5000 
     95 CA         -0.5050  -22.3652  -54.3059 C.3       17 UNK         0.1400 
     96 CB         -0.7021  -20.8447  -54.1720 C.3       17 UNK        -0.1800 
     97 C          -1.2889  -22.9667  -55.4958 C.2       17 UNK         0.5000 
     98 O          -1.9787  -22.2434  -56.2167 O.2       17 UNK        -0.5000 
     99 N          -1.2063  -24.2978  -55.6438 N.am      18 UNK        -0.5000 
    100 CA        -1.8276  -25.1518  -56.6662 C.3       18 UNK         0.1400 
    101 CB        -1.1674  -24.8868  -58.0351 C.3       18 UNK        -0.1800 
    102 C         -3.3688  -25.0517  -56.7411 C.2       18 UNK         0.5000 
    103 O         -3.9477  -25.3876  -57.7754 O.2       18 UNK        -0.5000 
    104 N         -4.0007  -24.5486  -55.6680 N.am      19 UNK        -0.5000 
    105 CA        -5.4007  -24.1154  -55.5744 C.3       19 UNK         0.1400 
    106 CB        -6.3590  -25.3190  -55.6820 C.3       19 UNK        -0.1800 
    107 C         -5.7708  -22.9700  -56.5487 C.2       19 UNK         0.5000 
    108 O         -6.9568  -22.7109  -56.7590 O.2       19 UNK        -0.5000 
    109 N         -4.7622  -22.2961  -57.1196 N.am      20 UNK        -0.5000 
    110 CA        -4.9109  -21.2003  -58.0758 C.3       20 UNK         0.1400 
    111 CB        -3.7435  -21.2554  -59.0738 C.3       20 UNK        -0.1800 
    112 C         -4.9586  -19.8309  -57.3776 C.2       20 UNK         0.5000 
    113 O         -5.4534  -18.8699  -57.9685 O.2       20 UNK        -0.5000 
    114 N         -4.4587  -19.7643  -56.1389 N.am      21 UNK        -0.5000 
    115 CA        -4.4936  -18.5950  -55.2730 C.3       21 UNK         0.1400 
    116 CB        -3.1547  -17.8449  -55.3620 C.3       21 UNK        -0.1800 
    117 C         -4.7772  -19.0552  -53.8386 C.2       21 UNK         0.5000 
    118 O         -4.4054  -20.1705  -53.4638 O.2       21 UNK        -0.5000 
    119 N         -5.4253  -18.1748  -53.0695 N.am      22 UNK        -0.5000 
    120 CA        -5.7826  -18.3310  -51.6470 C.3       22 UNK         0.1400 
    121 C         -6.8679  -19.4079  -51.3333 C.2       22 UNK         0.5000 
    122 N         -7.4232  -20.1098  -52.3132 N.am      22 UNK        -0.7600 
    123 O         -7.2643  -19.5669  -50.1832 O.2       22 UNK        -0.5000 
    124 C124       -4.5445  -18.4507  -50.7143 C.3       23 UNK        -0.0398 
    125 S125       -3.4171  -17.0198  -50.8607 S.3       23 UNK        -0.2404 
    126 C126       -1.9791  -17.7176  -51.7379 C.3       23 UNK        -0.0205 
    127 H127       -5.2659  -16.1438  -44.5040 H         1 UNK         0.0600 
    128 H128       -5.1300  -17.2707  -45.8585 H         1 UNK         0.0600 
    129 H129       -3.8601  -17.2002  -44.6354 H         1 UNK         0.0600 
    130 H130       -2.0398  -16.2494  -45.5343 H         1 UNK         0.3000 
    131 H131       -2.1379  -14.4364  -47.7580 H         1 UNK         0.0600 
    132 H132       -0.2852  -16.1888  -47.1813 H         1 UNK         0.0800 
    133 H133        0.3364  -15.0313  -46.0415 H         1 UNK         0.0800 
    134 H134        2.4338  -15.8679  -48.2087 H         1 UNK         0.0800 
    135 H135        2.3101  -15.1705  -49.8007 H         1 UNK         0.0800 
    136 H136       -0.5076  -15.7447  -50.5988 H         1 UNK         0.1150 
    137 H137       -0.7534  -20.0122  -50.8829 H         1 UNK         0.1150 
    138 H138        2.3803  -18.1917  -48.5940 H         1 UNK         0.1150 
    139 H139        0.7176  -21.4028  -49.6716 H         1 UNK         0.0800 
    140 H140        2.3226  -20.8026  -50.0018 H         1 UNK         0.0800 
    141 H141        1.3833  -23.1355  -48.1719 H         1 UNK         0.0800 
    142 H142        2.0438  -22.9868  -46.5835 H         1 UNK         0.0800 
    143 H143       -0.3339  -23.7052  -46.6287 H         1 UNK         0.0600 
    144 H144        0.6411  -21.6527  -44.9015 H         1 UNK         0.3000 
    145 H145       -2.0938  -22.0766  -42.5439 H         1 UNK         0.0600 
    146 H146       -0.1482  -22.4709  -41.0876 H         1 UNK         0.0600 
    147 H147       -0.3527  -23.8373  -42.1722 H         1 UNK         0.0600 
    148 H148        0.9123  -22.6544  -42.4831 H         1 UNK         0.0600 
    149 H149        0.0763  -20.3004  -42.3819 H         1 UNK         0.3000 
    150 H150       -1.5213  -17.4619  -43.9124 H         1 UNK         0.0600 
    151 H151       -2.2571  -17.6175  -41.5459 H         1 UNK         0.0600 
    152 H152       -0.8568  -16.5652  -41.6976 H         1 UNK         0.0600 
    153 H153       -0.6684  -18.1984  -41.0648 H         1 UNK         0.0600 
    154 H154        1.0907  -17.7719  -42.8269 H         1 UNK         0.3000 
    155 H155        2.7200  -18.7969  -45.8471 H         1 UNK         0.0600 
    156 H156        4.0973  -16.8295  -45.2187 H         1 UNK         0.0600 
    157 H157        2.7850  -16.2086  -44.2136 H         1 UNK         0.0600 
    158 H158        2.5798  -16.3371  -45.9504 H         1 UNK         0.0600 
    159 H159        3.6041  -18.3450  -43.1545 H         1 UNK         0.3000 
    160 H160        3.2379  -21.7003  -42.0002 H         1 UNK         0.0600 
    161 H161        5.7124  -20.0515  -42.7541 H         1 UNK         0.0600 
    162 H162        5.3514  -21.6728  -43.3348 H         1 UNK         0.0600 
    163 H163        5.6695  -21.4083  -41.6279 H         1 UNK         0.0600 
    164 H164        4.3399  -19.3494  -40.8080 H         1 UNK         0.3000 
    165 H165        1.3360  -18.0338  -39.4418 H         1 UNK         0.0600 
    166 H166        3.6429  -19.5127  -38.0644 H         1 UNK         0.0600 
    167 H167        2.5587  -18.3436  -37.3095 H         1 UNK         0.0600 
    168 H168        1.9340  -19.8852  -37.8722 H         1 UNK         0.0600 
    169 H169        4.0296  -17.2607  -39.0696 H         1 UNK         0.3000 
    170 H170        4.8220  -15.4022  -39.9322 H         1 UNK         0.0600 
    171 H171        5.7707  -16.8873  -41.7237 H         1 UNK         0.0600 
    172 H172        4.9237  -15.9499  -42.9484 H         1 UNK         0.0600 
    173 H173        6.1899  -15.2017  -41.9790 H         1 UNK         0.0600 
    174 H174        4.0190  -13.8073  -42.1558 H         1 UNK         0.3000 
    175 H175        1.4712  -11.9698  -40.7923 H         1 UNK         0.0600 
    176 H176        2.8874   -9.9483  -40.5154 H         1 UNK         0.0600 
    177 H177        3.0721  -11.0177  -39.1362 H         1 UNK         0.0600 
    178 H178        4.3307  -10.9519  -40.3636 H         1 UNK         0.0600 
    179 H179        3.5206  -11.2110  -42.6599 H         1 UNK         0.3000 
    180 H180        2.9109  -10.9873  -44.7909 H         1 UNK         0.0600 
    181 H181        3.5180  -12.6627  -46.5220 H         1 UNK         0.0600 
    182 H182        4.1437  -13.1735  -44.9613 H         1 UNK         0.0600 
    183 H183        2.7000  -13.9345  -45.6187 H         1 UNK         0.0600 
    184 H184        0.9440  -12.4107  -46.3202 H         1 UNK         0.3000 
    185 H185       -1.8933  -10.5394  -45.5888 H         1 UNK         0.0600 
    186 H186       -1.9270   -9.8086  -47.9661 H         1 UNK         0.0600 
    187 H187       -0.8242   -8.8077  -47.0355 H         1 UNK         0.0600 
    188 H188       -0.1853  -10.0608  -48.0926 H         1 UNK         0.0600 
    189 H189       -1.1113  -12.2972  -47.7538 H         1 UNK         0.3000 
    190 H190       -0.9623  -20.2109  -46.5123 H         1 UNK         0.3000 
    191 H191       -2.4844  -20.0626  -48.9247 H         1 UNK         0.0600 
    192 H192       -3.3058  -17.9096  -47.8966 H         1 UNK         0.0600 
    193 H193       -1.5566  -18.0583  -47.8947 H         1 UNK         0.0600 
    194 H194       -2.4633  -18.3373  -46.4097 H         1 UNK         0.0600 
    195 H195       -3.4668  -20.5738  -45.4804 H         1 UNK         0.3000 
    196 H196       -6.2427  -20.8210  -45.9398 H         1 UNK         0.0600 
    197 H197       -6.2416  -21.9450  -43.7016 H         1 UNK         0.0600 
    198 H198       -5.2627  -20.4859  -43.6950 H         1 UNK         0.0600 
    199 H199       -4.4869  -22.0670  -43.7589 H         1 UNK         0.0600 
    200 H200       -3.6501  -23.2362  -46.2075 H         1 UNK         0.3000 
    201 H201       -5.3926  -25.4781  -46.7992 H         1 UNK         0.0600 
    202 H202       -3.1247  -25.7419  -45.7883 H         1 UNK         0.0600 
    203 H203       -2.3860  -25.0729  -47.2421 H         1 UNK         0.0600 
    204 H204       -3.2382  -26.6094  -47.3118 H         1 UNK         0.0600 
    205 H205       -4.4657  -22.7638  -48.6447 H         1 UNK         0.3000 
    206 H206       -4.4014  -22.1325  -50.7471 H         1 UNK         0.0600 
    207 H207       -6.7883  -22.8991  -50.7274 H         1 UNK         0.0600 
    208 H208       -6.0623  -22.9990  -52.3210 H         1 UNK         0.0600 
    209 H209       -6.2869  -24.4640  -51.3712 H         1 UNK         0.0600 
    210 H210       -2.2144  -23.5387  -49.9382 H         1 UNK         0.3000 
    211 H211       -1.4787  -25.7652  -51.5051 H         1 UNK         0.0600 
    212 H212        0.3045  -23.7762  -50.0259 H         1 UNK         0.0600 
    213 H213        0.7440  -25.4180  -50.4751 H         1 UNK         0.0600 
    214 H214       -0.5090  -25.1494  -49.2709 H         1 UNK         0.0600 
    215 H215       -1.5399  -22.4905  -52.4676 H         1 UNK         0.3000 
    216 H216        0.5547  -22.5496  -54.4930 H         1 UNK         0.0600 
    217 H217       -0.4249  -20.3292  -55.0923 H         1 UNK         0.0600 
    218 H218       -0.0834  -20.4347  -53.3737 H         1 UNK         0.0600 
    219 H219       -1.7405  -20.5950  -53.9536 H         1 UNK         0.0600 
    220 H220       -0.6380  -24.7864  -54.9568 H         1 UNK         0.3000 
    221 H221       -1.6051  -26.1808  -56.3810 H         1 UNK         0.0600 
    222 H222       -1.4044  -23.8903  -58.4099 H         1 UNK         0.0600 
    223 H223       -0.0825  -24.9724  -57.9731 H         1 UNK         0.0600 
    224 H224       -1.5039  -25.6064  -58.7823 H         1 UNK         0.0600 
    225 H225       -3.4458  -24.3482  -54.8447 H         1 UNK         0.3000 
    226 H226       -5.5141  -23.6964  -54.5746 H         1 UNK         0.0600 
    227 H227       -7.3839  -25.0250  -55.4533 H         1 UNK         0.0600 
    228 H228       -6.3597  -25.7503  -56.6832 H         1 UNK         0.0600 
    229 H229       -6.0844  -26.1037  -54.9770 H         1 UNK         0.0600 
    230 H230       -3.8078  -22.5290  -56.8604 H         1 UNK         0.3000 
    231 H231       -5.8411  -21.3243  -58.6341 H         1 UNK         0.0600 
    232 H232       -3.8444  -20.4817  -59.8359 H         1 UNK         0.0600 
    233 H233       -3.7094  -22.2165  -59.5873 H         1 UNK         0.0600 
    234 H234       -2.7828  -21.1060  -58.5796 H         1 UNK         0.0600 
    235 H235       -4.1013  -20.6059  -55.7050 H         1 UNK         0.3000 
    236 H236       -5.3002  -17.9271  -55.5833 H         1 UNK         0.0600 
    237 H237       -2.3191  -18.4720  -55.0514 H         1 UNK         0.0600 
    238 H238       -2.9591  -17.5094  -56.3806 H         1 UNK         0.0600 
    239 H239       -3.1586  -16.9606  -54.7237 H         1 UNK         0.0600 
    240 H240       -5.6964  -17.2913  -53.4767 H         1 UNK         0.3000 
    241 H241       -6.2739  -17.3919  -51.3897 H         1 UNK         0.0600 
    242 H242       -8.1446  -20.7778  -52.0945 H         1 UNK         0.3800 
    243 H243       -7.1162  -19.9918  -53.2643 H         1 UNK         0.3800 
    244 H244       -4.0093  -19.3848  -50.8880 H         1 UNK         0.0800 
    245 H245       -4.8717  -18.4794  -49.6751 H         1 UNK         0.0800 
    246 H246       -2.2356  -18.6708  -52.2010 H         1 UNK         0.0800 
    247 H247       -1.7172  -17.0481  -52.5580 H         1 UNK         0.0800 
@<TRIPOS>BOND
     1    1    2 1    
     2    1  127 1    
     3    1  128 1    
     4    1  129 1    
     5    2    3 2    
     6    2    4 am   BACKBONE|DICT|INTERRES
     7    4    5 1    
     8    4  130 1    
     9    5    6 1    
    10    5   65 1    
    11    5  131 1    
    12    6    7 1    
    13    6  132 1    
    14    6  133 1    
    15    7    8 1    
    16    8    9 1    
    17    8  134 1    
    18    8  135 1    
    19    9   10 ar   
    20    9   14 ar   
    21   10   11 ar   
    22   10  136 1    
    23   11   12 ar   
    24   11  126 1    
    25   12   13 ar   
    26   12  137 1    
    27   13   14 ar   
    28   13   15 1    
    29   14  138 1    
    30   15   16 1    
    31   15  139 1    
    32   15  140 1    
    33   16   17 1    
    34   17   18 1    
    35   17  141 1    
    36   17  142 1    
    37   18   19 1    
    38   18   67 1    
    39   18  143 1    
    40   19   20 am   BACKBONE|DICT|INTERRES
    41   19  144 1    
    42   20   21 2    
    43   20   22 1    
    44   22   23 1    
    45   22   24 1    
    46   22  145 1    
    47   23  146 1    
    48   23  147 1    
    49   23  148 1    
    50   24   25 am   BACKBONE|DICT|INTERRES
    51   24  149 1    
    52   25   26 2    
    53   25   27 1    
    54   27   28 1    
    55   27   29 1    
    56   27  150 1    
    57   28  151 1    
    58   28  152 1    
    59   28  153 1    
    60   29   30 am   BACKBONE|DICT|INTERRES
    61   29  154 1    
    62   30   31 2    
    63   30   32 1    
    64   32   33 1    
    65   32   34 1    
    66   32  155 1    
    67   33  156 1    
    68   33  157 1    
    69   33  158 1    
    70   34   35 am   BACKBONE|DICT|INTERRES
    71   34  159 1    
    72   35   36 2    
    73   35   37 1    
    74   37   38 1    
    75   37   39 1    
    76   37  160 1    
    77   38  161 1    
    78   38  162 1    
    79   38  163 1    
    80   39   40 am   BACKBONE|DICT|INTERRES
    81   39  164 1    
    82   40   41 2    
    83   40   42 1    
    84   42   43 1    
    85   42   44 1    
    86   42  165 1    
    87   43  166 1    
    88   43  167 1    
    89   43  168 1    
    90   44   45 am   BACKBONE|DICT|INTERRES
    91   44  169 1    
    92   45   46 2    
    93   45   47 1    
    94   47   48 1    
    95   47   49 1    
    96   47  170 1    
    97   48  171 1    
    98   48  172 1    
    99   48  173 1    
   100   49   50 am   BACKBONE|DICT|INTERRES
   101   49  174 1    
   102   50   51 2    
   103   50   52 1    
   104   52   53 1    
   105   52   54 1    
   106   52  175 1    
   107   53  176 1    
   108   53  177 1    
   109   53  178 1    
   110   54   55 am   BACKBONE|DICT|INTERRES
   111   54  179 1    
   112   55   56 2    
   113   55   57 1    
   114   57   58 1    
   115   57   59 1    
   116   57  180 1    
   117   58  181 1    
   118   58  182 1    
   119   58  183 1    
   120   59   60 am   BACKBONE|DICT|INTERRES
   121   59  184 1    
   122   60   61 2    
   123   60   62 1    
   124   62   63 1    
   125   62   64 1    
   126   62  185 1    
   127   63  186 1    
   128   63  187 1    
   129   63  188 1    
   130   64   65 am   BACKBONE|DICT|INTERRES
   131   64  189 1    
   132   65   66 2    
   133   67   68 2    
   134   67   69 am   BACKBONE|DICT|INTERRES
   135   69   70 1    
   136   69  190 1    
   137   70   71 1    
   138   70   72 1    
   139   70  191 1    
   140   71  192 1    
   141   71  193 1    
   142   71  194 1    
   143   72   73 2    
   144   72   74 am   BACKBONE|DICT|INTERRES
   145   74   75 1    
   146   74  195 1    
   147   75   76 1    
   148   75   77 1    
   149   75  196 1    
   150   76  197 1    
   151   76  198 1    
   152   76  199 1    
   153   77   78 2    
   154   77   79 am   BACKBONE|DICT|INTERRES
   155   79   80 1    
   156   79  200 1    
   157   80   81 1    
   158   80   82 1    
   159   80  201 1    
   160   81  202 1    
   161   81  203 1    
   162   81  204 1    
   163   82   83 2    
   164   82   84 am   BACKBONE|DICT|INTERRES
   165   84   85 1    
   166   84  205 1    
   167   85   86 1    
   168   85   87 1    
   169   85  206 1    
   170   86  207 1    
   171   86  208 1    
   172   86  209 1    
   173   87   88 2    
   174   87   89 am   BACKBONE|DICT|INTERRES
   175   89   90 1    
   176   89  210 1    
   177   90   91 1    
   178   90   92 1    
   179   90  211 1    
   180   91  212 1    
   181   91  213 1    
   182   91  214 1    
   183   92   93 2    
   184   92   94 am   BACKBONE|DICT|INTERRES
   185   94   95 1    
   186   94  215 1    
   187   95   96 1    
   188   95   97 1    
   189   95  216 1    
   190   96  217 1    
   191   96  218 1    
   192   96  219 1    
   193   97   98 2    
   194   97   99 am   BACKBONE|DICT|INTERRES
   195   99  100 1    
   196   99  220 1    
   197  100  101 1    
   198  100  102 1    
   199  100  221 1    
   200  101  222 1    
   201  101  223 1    
   202  101  224 1    
   203  102  103 2    
   204  102  104 am   BACKBONE|DICT|INTERRES
   205  104  105 1    
   206  104  225 1    
   207  105  106 1    
   208  105  107 1    
   209  105  226 1    
   210  106  227 1    
   211  106  228 1    
   212  106  229 1    
   213  107  108 2    
   214  107  109 am   BACKBONE|DICT|INTERRES
   215  109  110 1    
   216  109  230 1    
   217  110  111 1    
   218  110  112 1    
   219  110  231 1    
   220  111  232 1    
   221  111  233 1    
   222  111  234 1    
   223  112  113 2    
   224  112  114 am   BACKBONE|DICT|INTERRES
   225  114  115 1    
   226  114  235 1    
   227  115  116 1    
   228  115  117 1    
   229  115  236 1    
   230  116  237 1    
   231  116  238 1    
   232  116  239 1    
   233  117  118 2    
   234  117  119 am   BACKBONE|DICT|INTERRES
   235  119  120 1    
   236  119  240 1    
   237  120  121 1    
   238  120  124 1    
   239  120  241 1    
   240  121  122 am   BACKBONE|DICT|INTERRES
   241  121  123 2    
   242  122  242 1    
   243  122  243 1    
   244  124  125 1    
   245  124  244 1    
   246  124  245 1    
   247  125  126 1    
   248  126  246 1    
   249  126  247 1    
@<TRIPOS>SUBSTRUCTURE
     1 UNK         1 GROUP             0       ****    0 ROOT    
