@<TRIPOS>MOLECULE
3R540
247   249    1
SMALL
USER_CHARGES


@<TRIPOS>ATOM
      1 CA         -5.5989  -12.6049  -45.9815 C.3       0 UNK        -0.1800 
      2 C          -4.1424  -13.0010  -45.7911 C.2       0 UNK         0.5000 
      3 O          -3.3757  -12.2489  -45.1908 O.2       0 UNK        -0.5000 
      4 N          -3.7592  -14.1869  -46.2833 N.am      1 UNK        -0.5000 
      5 CA         -2.3902  -14.7290  -46.2495 C.3       1 UNK         0.1400 
      6 C6         -2.2639  -16.0352  -47.0745 C.3       23 UNK        -0.0398 
      7 S7         -2.7916  -15.7998  -48.8063 S.3       23 UNK        -0.2404 
      8 C8         -1.2082  -15.7378  -49.7001 C.3       23 UNK        -0.0205 
      9 C9         -1.0184  -16.9785  -50.5571 C.ar      23 UNK        -0.0193 
     10 C10        -1.6368  -17.0564  -51.8079 C.ar      23 UNK        -0.1150 
     11 C11        -1.4632  -18.1793  -52.6208 C.ar      23 UNK        -0.0193 
     12 C12        -0.6724  -19.2382  -52.1667 C.ar      23 UNK        -0.1150 
     13 C13        -0.0456  -19.1719  -50.9175 C.ar      23 UNK        -0.0193 
     14 C14        -0.2204  -18.0381  -50.1166 C.ar      23 UNK        -0.1150 
     15 C15         0.8408  -20.3168  -50.4529 C.3       23 UNK        -0.0205 
     16 S16        -0.0811  -21.5198  -49.4499 S.3       23 UNK        -0.2404 
     17 C17         0.1744  -20.8576  -47.7728 C.3       23 UNK        -0.0398 
     18 CA         -0.5638  -21.7000  -46.7050 C.3       11 UNK         0.1400 
     19 N           0.1641  -21.7665  -45.4366 N.am      11 UNK        -0.5000 
     20 C          -0.1300  -22.6120  -44.4382 C.2       10 UNK         0.5000 
     21 O          -1.0107  -23.4685  -44.5085 O.2       10 UNK        -0.5000 
     22 CA          0.6475  -22.4298  -43.1208 C.3       10 UNK         0.1400 
     23 CB          2.0187  -23.1176  -43.1865 C.3       10 UNK        -0.1800 
     24 N           0.8163  -21.0181  -42.7731 N.am      10 UNK        -0.5000 
     25 C          -0.1975  -20.1861  -42.4955 C.2       9 UNK         0.5000 
     26 O          -1.3713  -20.5482  -42.4121 O.2       9 UNK        -0.5000 
     27 CA          0.1482  -18.6947  -42.3471 C.3       9 UNK         0.1400 
     28 CB          0.5918  -18.3679  -40.9135 C.3       9 UNK        -0.1800 
     29 N           1.1782  -18.2734  -43.2970 N.am      9 UNK        -0.5000 
     30 C           0.9847  -18.1584  -44.6185 C.2       8 UNK         0.5000 
     31 O          -0.0946  -18.3656  -45.1725 O.2       8 UNK        -0.5000 
     32 CA          2.2179  -17.8259  -45.4767 C.3       8 UNK         0.1400 
     33 CB          2.4668  -16.3163  -45.5240 C.3       8 UNK        -0.1800 
     34 N           3.4251  -18.5045  -45.0059 N.am      8 UNK        -0.5000 
     35 C           3.6203  -19.8254  -45.1141 C.2       7 UNK         0.5000 
     36 O           2.8097  -20.5898  -45.6339 O.2       7 UNK        -0.5000 
     37 CA          4.9111  -20.4021  -44.5073 C.3       7 UNK         0.1400 
     38 CB          6.0481  -20.3763  -45.5391 C.3       7 UNK        -0.1800 
     39 N           5.3505  -19.7230  -43.2880 N.am      7 UNK        -0.5000 
     40 C           4.6335  -19.6025  -42.1625 C.2       6 UNK         0.5000 
     41 O           3.4802  -20.0185  -42.0415 O.2       6 UNK        -0.5000 
     42 CA          5.3086  -18.9060  -40.9650 C.3       6 UNK         0.1400 
     43 CB          6.8171  -18.6289  -41.1602 C.3       6 UNK        -0.1800 
     44 N           4.6195  -17.6758  -40.5667 N.am      6 UNK        -0.5000 
     45 C           4.3919  -16.5872  -41.3161 C.2       5 UNK         0.5000 
     46 O           4.6395  -16.5109  -42.5230 O.2       5 UNK        -0.5000 
     47 CA          3.8431  -15.3697  -40.5455 C.3       5 UNK         0.1400 
     48 CB          4.8812  -14.8547  -39.5321 C.3       5 UNK        -0.1800 
     49 N           3.4796  -14.2553  -41.4195 N.am      5 UNK        -0.5000 
     50 C           2.3262  -14.1551  -42.0858 C.2       4 UNK         0.5000 
     51 O           1.4552  -15.0268  -42.0793 O.2       4 UNK        -0.5000 
     52 CA          2.1110  -12.8499  -42.8719 C.3       4 UNK         0.1400 
     53 CB          2.5747  -12.9817  -44.3294 C.3       4 UNK        -0.1800 
     54 N           0.6929  -12.5115  -42.8571 N.am      4 UNK        -0.5000 
     55 C           0.1240  -11.6262  -42.0281 C.2       3 UNK         0.5000 
     56 O           0.7601  -10.8760  -41.2863 O.2       3 UNK        -0.5000 
     57 CA         -1.4180  -11.5775  -42.0045 C.3       3 UNK         0.1400 
     58 CB         -1.9330  -10.4278  -42.8829 C.3       3 UNK        -0.1800 
     59 N          -2.0325  -12.8346  -42.4383 N.am      3 UNK        -0.5000 
     60 C          -1.9685  -13.9823  -41.7443 C.2       2 UNK         0.5000 
     61 O          -1.5113  -14.0533  -40.6028 O.2       2 UNK        -0.5000 
     62 CA         -2.4899  -15.2685  -42.4191 C.3       2 UNK         0.1400 
     63 CB         -3.7620  -15.7674  -41.7148 C.3       2 UNK        -0.1800 
     64 N          -2.7656  -15.1373  -43.8517 N.am      2 UNK        -0.5000 
     65 C          -1.8539  -14.9281  -44.8139 C.2       1 UNK         0.5000 
     66 O          -0.6469  -14.8312  -44.5999 O.2       1 UNK        -0.5000 
     67 C          -2.0183  -21.2256  -46.5087 C.2       11 UNK         0.5000 
     68 O          -2.9210  -21.7914  -47.1212 O.2       11 UNK        -0.5000 
     69 N          -2.2368  -20.2395  -45.6253 N.am      12 UNK        -0.5000 
     70 CA         -3.5626  -19.7499  -45.2370 C.3       12 UNK         0.1400 
     71 CB         -3.4248  -18.5484  -44.2904 C.3       12 UNK        -0.1800 
     72 C          -4.4270  -20.8465  -44.5894 C.2       12 UNK         0.5000 
     73 O          -5.5902  -21.0008  -44.9615 O.2       12 UNK        -0.5000 
     74 N          -3.8249  -21.6282  -43.6811 N.am      13 UNK        -0.5000 
     75 CA         -4.4391  -22.7986  -43.0472 C.3       13 UNK         0.1400 
     76 CB         -3.5196  -23.3116  -41.9290 C.3       13 UNK        -0.1800 
     77 C          -4.7724  -23.9262  -44.0466 C.2       13 UNK         0.5000 
     78 O          -5.7557  -24.6408  -43.8517 O.2       13 UNK        -0.5000 
     79 N          -3.9769  -24.0333  -45.1187 N.am      14 UNK        -0.5000 
     80 CA         -4.1875  -24.9325  -46.2543 C.3       14 UNK         0.1400 
     81 CB         -2.8196  -25.2809  -46.8672 C.3       14 UNK        -0.1800 
     82 C          -5.1407  -24.3544  -47.3248 C.2       14 UNK         0.5000 
     83 O          -5.2748  -24.9619  -48.3873 O.2       14 UNK        -0.5000 
     84 N          -5.7639  -23.1948  -47.0584 N.am      15 UNK        -0.5000 
     85 CA         -6.6919  -22.4608  -47.9282 C.3       15 UNK         0.1400 
     86 CB         -8.0029  -23.2521  -48.1185 C.3       15 UNK        -0.1800 
     87 C          -6.0463  -22.0213  -49.2601 C.2       15 UNK         0.5000 
     88 O          -6.6577  -22.1522  -50.3212 O.2       15 UNK        -0.5000 
     89 N          -4.8026  -21.5307  -49.1640 N.am      16 UNK        -0.5000 
     90 CA         -3.8926  -21.1275  -50.2421 C.3       16 UNK         0.1400 
     91 CB         -4.5064  -20.0365  -51.1445 C.3       16 UNK        -0.1800 
     92 C          -3.3012  -22.3152  -51.0307 C.2       16 UNK         0.5000 
     93 O          -2.6626  -22.0913  -52.0593 O.2       16 UNK        -0.5000 
     94 N          -3.4814  -23.5438  -50.5150 N.am      17 UNK        -0.5000 
     95 CA         -2.9577  -24.8158  -51.0187 C.3       17 UNK         0.1400 
     96 CB         -1.4393  -24.9030  -50.7458 C.3       17 UNK        -0.1800 
     97 C          -3.3558  -25.0500  -52.4904 C.2       17 UNK         0.5000 
     98 O          -4.5505  -25.1158  -52.7893 O.2       17 UNK        -0.5000 
     99 N          -2.3685  -25.1289  -53.3918 N.am      18 UNK        -0.5000 
    100 CA        -2.5472  -25.1183  -54.8430 C.3       18 UNK         0.1400 
    101 CB        -1.2970  -25.7277  -55.5022 C.3       18 UNK        -0.1800 
    102 C         -2.8350  -23.6827  -55.3292 C.2       18 UNK         0.5000 
    103 O         -2.0037  -23.0762  -56.0066 O.2       18 UNK        -0.5000 
    104 N         -4.0069  -23.1585  -54.9436 N.am      19 UNK        -0.5000 
    105 CA        -4.4359  -21.7648  -55.1033 C.3       19 UNK         0.1400 
    106 CB        -5.8376  -21.6081  -54.4967 C.3       19 UNK        -0.1800 
    107 C         -4.4153  -21.2430  -56.5525 C.2       19 UNK         0.5000 
    108 O         -4.2229  -20.0451  -56.7639 O.2       19 UNK        -0.5000 
    109 N         -4.5606  -22.1580  -57.5217 N.am      20 UNK        -0.5000 
    110 CA        -4.4486  -21.9140  -58.9606 C.3       20 UNK         0.1400 
    111 CB        -4.7506  -23.2199  -59.7106 C.3       20 UNK        -0.1800 
    112 C         -3.0839  -21.3445  -59.4010 C.2       20 UNK         0.5000 
    113 O         -3.0252  -20.6643  -60.4263 O.2       20 UNK        -0.5000 
    114 N         -2.0237  -21.5768  -58.6097 N.am      21 UNK        -0.5000 
    115 CA        -0.6886  -21.0043  -58.8107 C.3       21 UNK         0.1400 
    116 CB         0.2873  -21.6244  -57.7995 C.3       21 UNK        -0.1800 
    117 C         -0.6559  -19.4645  -58.7126 C.2       21 UNK         0.5000 
    118 O          0.2218  -18.8428  -59.3130 O.2       21 UNK        -0.5000 
    119 N         -1.6205  -18.8807  -57.9895 N.am      22 UNK        -0.5000 
    120 CA        -1.8594  -17.4317  -57.9203 C.3       22 UNK         0.1400 
    121 C         -2.7646  -16.8909  -59.0691 C.2       22 UNK         0.5000 
    122 N         -3.2395  -17.7060  -60.0047 N.am      22 UNK        -0.7600 
    123 O         -3.0307  -15.6934  -59.1272 O.2       22 UNK        -0.5000 
    124 C124       -2.3945  -17.0088  -56.5281 C.3       23 UNK        -0.0398 
    125 S125       -1.1681  -17.2762  -55.2025 S.3       23 UNK        -0.2404 
    126 C126       -2.1273  -18.2324  -53.9881 C.3       23 UNK        -0.0205 
    127 H127       -6.1600  -13.3689  -46.5202 H         1 UNK         0.0600 
    128 H128       -5.6629  -11.6744  -46.5455 H         1 UNK         0.0600 
    129 H129       -6.0751  -12.4515  -45.0131 H         1 UNK         0.0600 
    130 H130       -4.4321  -14.7507  -46.7833 H         1 UNK         0.3000 
    131 H131       -1.7441  -13.9815  -46.7149 H         1 UNK         0.0600 
    132 H132       -2.8949  -16.8162  -46.6514 H         1 UNK         0.0800 
    133 H133       -1.2442  -16.4240  -47.0441 H         1 UNK         0.0800 
    134 H134       -0.3719  -15.6104  -49.0114 H         1 UNK         0.0800 
    135 H135       -1.2042  -14.8534  -50.3390 H         1 UNK         0.0800 
    136 H136       -2.2490  -16.2354  -52.1543 H         1 UNK         0.1150 
    137 H137       -0.5407  -20.1132  -52.7881 H         1 UNK         0.1150 
    138 H138        0.2682  -17.9762  -49.1550 H         1 UNK         0.1150 
    139 H139        1.2548  -20.8355  -51.3189 H         1 UNK         0.0800 
    140 H140        1.6967  -19.9344  -49.8947 H         1 UNK         0.0800 
    141 H141       -0.1096  -19.8052  -47.7281 H         1 UNK         0.0800 
    142 H142        1.2494  -20.8866  -47.6006 H         1 UNK         0.0800 
    143 H143       -0.6134  -22.7303  -47.0640 H         1 UNK         0.0600 
    144 H144        0.9537  -21.1374  -45.3296 H         1 UNK         0.3000 
    145 H145        0.0690  -22.9021  -42.3241 H         1 UNK         0.0600 
    146 H146        2.5649  -23.0004  -42.2503 H         1 UNK         0.0600 
    147 H147        1.9074  -24.1871  -43.3685 H         1 UNK         0.0600 
    148 H148        2.6365  -22.7132  -43.9874 H         1 UNK         0.0600 
    149 H149        1.7635  -20.6520  -42.7575 H         1 UNK         0.3000 
    150 H150       -0.7590  -18.1269  -42.5586 H         1 UNK         0.0600 
    151 H151       -0.1738  -18.6606  -40.1940 H         1 UNK         0.0600 
    152 H152        0.7609  -17.2987  -40.7880 H         1 UNK         0.0600 
    153 H153        1.5113  -18.8870  -40.6431 H         1 UNK         0.0600 
    154 H154        2.1070  -18.1299  -42.9280 H         1 UNK         0.3000 
    155 H155        2.0114  -18.1625  -46.4952 H         1 UNK         0.0600 
    156 H156        2.6938  -15.9231  -44.5332 H         1 UNK         0.0600 
    157 H157        1.5871  -15.7919  -45.8985 H         1 UNK         0.0600 
    158 H158        3.2993  -16.0703  -46.1831 H         1 UNK         0.0600 
    159 H159        4.1141  -17.9426  -44.5232 H         1 UNK         0.3000 
    160 H160        4.7131  -21.4434  -44.2467 H         1 UNK         0.0600 
    161 H161        6.3204  -19.3561  -45.8128 H         1 UNK         0.0600 
    162 H162        5.7575  -20.8954  -46.4536 H         1 UNK         0.0600 
    163 H163        6.9406  -20.8716  -45.1562 H         1 UNK         0.0600 
    164 H164        6.2807  -19.3311  -43.3025 H         1 UNK         0.3000 
    165 H165        5.2108  -19.5976  -40.1270 H         1 UNK         0.0600 
    166 H166        7.0070  -17.9206  -41.9675 H         1 UNK         0.0600 
    167 H167        7.2540  -18.2127  -40.2524 H         1 UNK         0.0600 
    168 H168        7.3632  -19.5468  -41.3821 H         1 UNK         0.0600 
    169 H169        4.3419  -17.6450  -39.5959 H         1 UNK         0.3000 
    170 H170        2.9547  -15.6917  -39.9974 H         1 UNK         0.0600 
    171 H171        5.8064  -14.5511  -40.0240 H         1 UNK         0.0600 
    172 H172        4.4993  -13.9963  -38.9788 H         1 UNK         0.0600 
    173 H173        5.1372  -15.6180  -38.7965 H         1 UNK         0.0600 
    174 H174        4.1674  -13.5228  -41.5150 H         1 UNK         0.3000 
    175 H175        2.6979  -12.0595  -42.3993 H         1 UNK         0.0600 
    176 H176        3.5881  -13.3806  -44.3906 H         1 UNK         0.0600 
    177 H177        2.5750  -12.0114  -44.8260 H         1 UNK         0.0600 
    178 H178        1.9200  -13.6399  -44.8989 H         1 UNK         0.0600 
    179 H179        0.0949  -13.1528  -43.3659 H         1 UNK         0.3000 
    180 H180       -1.7281  -11.3843  -40.9755 H         1 UNK         0.0600 
    181 H181       -3.0210  -10.3657  -42.8563 H         1 UNK         0.0600 
    182 H182       -1.6288  -10.5505  -43.9231 H         1 UNK         0.0600 
    183 H183       -1.5433   -9.4690  -42.5386 H         1 UNK         0.0600 
    184 H184       -2.4460  -12.8379  -43.3642 H         1 UNK         0.3000 
    185 H185       -1.7104  -16.0221  -42.2981 H         1 UNK         0.0600 
    186 H186       -4.0879  -16.7276  -42.1123 H         1 UNK         0.0600 
    187 H187       -3.5903  -15.9062  -40.6466 H         1 UNK         0.0600 
    188 H188       -4.5848  -15.0602  -41.8253 H         1 UNK         0.0600 
    189 H189       -3.7375  -15.1587  -44.1230 H         1 UNK         0.3000 
    190 H190       -1.4380  -19.7694  -45.2101 H         1 UNK         0.3000 
    191 H191       -4.0622  -19.4129  -46.1477 H         1 UNK         0.0600 
    192 H192       -4.3697  -18.0096  -44.2158 H         1 UNK         0.0600 
    193 H193       -2.6712  -17.8466  -44.6391 H         1 UNK         0.0600 
    194 H194       -3.1432  -18.8490  -43.2818 H         1 UNK         0.0600 
    195 H195       -2.8755  -21.4012  -43.3992 H         1 UNK         0.3000 
    196 H196       -5.3778  -22.4747  -42.5930 H         1 UNK         0.0600 
    197 H197       -2.5576  -23.6446  -42.3186 H         1 UNK         0.0600 
    198 H198       -3.3285  -22.5348  -41.1883 H         1 UNK         0.0600 
    199 H199       -3.9725  -24.1556  -41.4074 H         1 UNK         0.0600 
    200 H200       -3.1683  -23.4263  -45.1762 H         1 UNK         0.3000 
    201 H201       -4.6371  -25.8589  -45.8918 H         1 UNK         0.0600 
    202 H202       -2.9177  -26.0396  -47.6445 H         1 UNK         0.0600 
    203 H203       -2.3480  -24.4098  -47.3210 H         1 UNK         0.0600 
    204 H204       -2.1376  -25.6763  -46.1142 H         1 UNK         0.0600 
    205 H205       -5.5575  -22.7382  -46.1777 H         1 UNK         0.3000 
    206 H206       -6.9411  -21.5410  -47.3975 H         1 UNK         0.0600 
    207 H207       -8.4402  -23.5259  -47.1584 H         1 UNK         0.0600 
    208 H208       -8.7436  -22.6570  -48.6537 H         1 UNK         0.0600 
    209 H209       -7.8460  -24.1678  -48.6894 H         1 UNK         0.0600 
    210 H210       -4.3564  -21.5543  -48.2487 H         1 UNK         0.3000 
    211 H211       -3.0392  -20.6699  -49.7399 H         1 UNK         0.0600 
    212 H212       -3.7761  -19.6719  -51.8659 H         1 UNK         0.0600 
    213 H213       -4.8329  -19.1789  -50.5566 H         1 UNK         0.0600 
    214 H214       -5.3609  -20.4014  -51.7117 H         1 UNK         0.0600 
    215 H215       -4.0763  -23.6254  -49.7006 H         1 UNK         0.3000 
    216 H216       -3.4444  -25.6028  -50.4412 H         1 UNK         0.0600 
    217 H217       -1.0370  -25.8704  -51.0489 H         1 UNK         0.0600 
    218 H218       -1.2308  -24.7907  -49.6817 H         1 UNK         0.0600 
    219 H219       -0.8809  -24.1258  -51.2692 H         1 UNK         0.0600 
    220 H220       -1.4211  -25.0137  -53.0625 H         1 UNK         0.3000 
    221 H221       -3.4042  -25.7411  -55.1079 H         1 UNK         0.0600 
    222 H222       -1.1418  -26.7564  -55.1763 H         1 UNK         0.0600 
    223 H223       -0.3961  -25.1609  -55.2633 H         1 UNK         0.0600 
    224 H224       -1.3971  -25.7430  -56.5883 H         1 UNK         0.0600 
    225 H225       -4.5850  -23.7347  -54.3419 H         1 UNK         0.3000 
    226 H226       -3.7433  -21.1504  -54.5256 H         1 UNK         0.0600 
    227 H227       -5.8584  -21.9407  -53.4586 H         1 UNK         0.0600 
    228 H228       -6.1557  -20.5648  -54.5115 H         1 UNK         0.0600 
    229 H229       -6.5799  -22.1879  -55.0467 H         1 UNK         0.0600 
    230 H230       -4.7016  -23.1165  -57.2391 H         1 UNK         0.3000 
    231 H231       -5.2091  -21.1781  -59.2291 H         1 UNK         0.0600 
    232 H232       -4.0357  -24.0035  -59.4561 H         1 UNK         0.0600 
    233 H233       -4.7041  -23.0708  -60.7902 H         1 UNK         0.0600 
    234 H234       -5.7503  -23.5873  -59.4781 H         1 UNK         0.0600 
    235 H235       -2.1488  -22.1312  -57.7676 H         1 UNK         0.3000 
    236 H236       -0.3592  -21.2767  -59.8154 H         1 UNK         0.0600 
    237 H237        0.0165  -21.3695  -56.7740 H         1 UNK         0.0600 
    238 H238        0.3049  -22.7114  -57.8812 H         1 UNK         0.0600 
    239 H239        1.3042  -21.2681  -57.9684 H         1 UNK         0.0600 
    240 H240       -2.3247  -19.4610  -57.5491 H         1 UNK         0.3000 
    241 H241       -0.9041  -16.9219  -58.0583 H         1 UNK         0.0600 
    242 H242       -3.8148  -17.3242  -60.7387 H         1 UNK         0.3800 
    243 H243       -3.0252  -18.6966  -60.0085 H         1 UNK         0.3800 
    244 H244       -3.3210  -17.5381  -56.3018 H         1 UNK         0.0800 
    245 H245       -2.6435  -15.9464  -56.5144 H         1 UNK         0.0800 
    246 H246       -2.2229  -19.2628  -54.3337 H         1 UNK         0.0800 
    247 H247       -3.1395  -17.8318  -53.9121 H         1 UNK         0.0800 
@<TRIPOS>BOND
     1    1    2 1    
     2    1  127 1    
     3    1  128 1    
     4    1  129 1    
     5    2    3 2    
     6    2    4 am   BACKBONE|DICT|INTERRES
     7    4    5 1    
     8    4  130 1    
     9    5    6 1    
    10    5   65 1    
    11    5  131 1    
    12    6    7 1    
    13    6  132 1    
    14    6  133 1    
    15    7    8 1    
    16    8    9 1    
    17    8  134 1    
    18    8  135 1    
    19    9   10 ar   
    20    9   14 ar   
    21   10   11 ar   
    22   10  136 1    
    23   11   12 ar   
    24   11  126 1    
    25   12   13 ar   
    26   12  137 1    
    27   13   14 ar   
    28   13   15 1    
    29   14  138 1    
    30   15   16 1    
    31   15  139 1    
    32   15  140 1    
    33   16   17 1    
    34   17   18 1    
    35   17  141 1    
    36   17  142 1    
    37   18   19 1    
    38   18   67 1    
    39   18  143 1    
    40   19   20 am   BACKBONE|DICT|INTERRES
    41   19  144 1    
    42   20   21 2    
    43   20   22 1    
    44   22   23 1    
    45   22   24 1    
    46   22  145 1    
    47   23  146 1    
    48   23  147 1    
    49   23  148 1    
    50   24   25 am   BACKBONE|DICT|INTERRES
    51   24  149 1    
    52   25   26 2    
    53   25   27 1    
    54   27   28 1    
    55   27   29 1    
    56   27  150 1    
    57   28  151 1    
    58   28  152 1    
    59   28  153 1    
    60   29   30 am   BACKBONE|DICT|INTERRES
    61   29  154 1    
    62   30   31 2    
    63   30   32 1    
    64   32   33 1    
    65   32   34 1    
    66   32  155 1    
    67   33  156 1    
    68   33  157 1    
    69   33  158 1    
    70   34   35 am   BACKBONE|DICT|INTERRES
    71   34  159 1    
    72   35   36 2    
    73   35   37 1    
    74   37   38 1    
    75   37   39 1    
    76   37  160 1    
    77   38  161 1    
    78   38  162 1    
    79   38  163 1    
    80   39   40 am   BACKBONE|DICT|INTERRES
    81   39  164 1    
    82   40   41 2    
    83   40   42 1    
    84   42   43 1    
    85   42   44 1    
    86   42  165 1    
    87   43  166 1    
    88   43  167 1    
    89   43  168 1    
    90   44   45 am   BACKBONE|DICT|INTERRES
    91   44  169 1    
    92   45   46 2    
    93   45   47 1    
    94   47   48 1    
    95   47   49 1    
    96   47  170 1    
    97   48  171 1    
    98   48  172 1    
    99   48  173 1    
   100   49   50 am   BACKBONE|DICT|INTERRES
   101   49  174 1    
   102   50   51 2    
   103   50   52 1    
   104   52   53 1    
   105   52   54 1    
   106   52  175 1    
   107   53  176 1    
   108   53  177 1    
   109   53  178 1    
   110   54   55 am   BACKBONE|DICT|INTERRES
   111   54  179 1    
   112   55   56 2    
   113   55   57 1    
   114   57   58 1    
   115   57   59 1    
   116   57  180 1    
   117   58  181 1    
   118   58  182 1    
   119   58  183 1    
   120   59   60 am   BACKBONE|DICT|INTERRES
   121   59  184 1    
   122   60   61 2    
   123   60   62 1    
   124   62   63 1    
   125   62   64 1    
   126   62  185 1    
   127   63  186 1    
   128   63  187 1    
   129   63  188 1    
   130   64   65 am   BACKBONE|DICT|INTERRES
   131   64  189 1    
   132   65   66 2    
   133   67   68 2    
   134   67   69 am   BACKBONE|DICT|INTERRES
   135   69   70 1    
   136   69  190 1    
   137   70   71 1    
   138   70   72 1    
   139   70  191 1    
   140   71  192 1    
   141   71  193 1    
   142   71  194 1    
   143   72   73 2    
   144   72   74 am   BACKBONE|DICT|INTERRES
   145   74   75 1    
   146   74  195 1    
   147   75   76 1    
   148   75   77 1    
   149   75  196 1    
   150   76  197 1    
   151   76  198 1    
   152   76  199 1    
   153   77   78 2    
   154   77   79 am   BACKBONE|DICT|INTERRES
   155   79   80 1    
   156   79  200 1    
   157   80   81 1    
   158   80   82 1    
   159   80  201 1    
   160   81  202 1    
   161   81  203 1    
   162   81  204 1    
   163   82   83 2    
   164   82   84 am   BACKBONE|DICT|INTERRES
   165   84   85 1    
   166   84  205 1    
   167   85   86 1    
   168   85   87 1    
   169   85  206 1    
   170   86  207 1    
   171   86  208 1    
   172   86  209 1    
   173   87   88 2    
   174   87   89 am   BACKBONE|DICT|INTERRES
   175   89   90 1    
   176   89  210 1    
   177   90   91 1    
   178   90   92 1    
   179   90  211 1    
   180   91  212 1    
   181   91  213 1    
   182   91  214 1    
   183   92   93 2    
   184   92   94 am   BACKBONE|DICT|INTERRES
   185   94   95 1    
   186   94  215 1    
   187   95   96 1    
   188   95   97 1    
   189   95  216 1    
   190   96  217 1    
   191   96  218 1    
   192   96  219 1    
   193   97   98 2    
   194   97   99 am   BACKBONE|DICT|INTERRES
   195   99  100 1    
   196   99  220 1    
   197  100  101 1    
   198  100  102 1    
   199  100  221 1    
   200  101  222 1    
   201  101  223 1    
   202  101  224 1    
   203  102  103 2    
   204  102  104 am   BACKBONE|DICT|INTERRES
   205  104  105 1    
   206  104  225 1    
   207  105  106 1    
   208  105  107 1    
   209  105  226 1    
   210  106  227 1    
   211  106  228 1    
   212  106  229 1    
   213  107  108 2    
   214  107  109 am   BACKBONE|DICT|INTERRES
   215  109  110 1    
   216  109  230 1    
   217  110  111 1    
   218  110  112 1    
   219  110  231 1    
   220  111  232 1    
   221  111  233 1    
   222  111  234 1    
   223  112  113 2    
   224  112  114 am   BACKBONE|DICT|INTERRES
   225  114  115 1    
   226  114  235 1    
   227  115  116 1    
   228  115  117 1    
   229  115  236 1    
   230  116  237 1    
   231  116  238 1    
   232  116  239 1    
   233  117  118 2    
   234  117  119 am   BACKBONE|DICT|INTERRES
   235  119  120 1    
   236  119  240 1    
   237  120  121 1    
   238  120  124 1    
   239  120  241 1    
   240  121  122 am   BACKBONE|DICT|INTERRES
   241  121  123 2    
   242  122  242 1    
   243  122  243 1    
   244  124  125 1    
   245  124  244 1    
   246  124  245 1    
   247  125  126 1    
   248  126  246 1    
   249  126  247 1    
@<TRIPOS>SUBSTRUCTURE
     1 UNK         1 GROUP             0       ****    0 ROOT    
