@<TRIPOS>MOLECULE
3R540
247   249    1
SMALL
USER_CHARGES


@<TRIPOS>ATOM
      1 CA          1.5061  -11.2953  -44.7863 C.3       0 UNK        -0.1800 
      2 C           2.3223  -10.9759  -46.0302 C.2       0 UNK         0.5000 
      3 O           3.2137  -10.1287  -45.9779 O.2       0 UNK        -0.5000 
      4 N           2.0172  -11.6497  -47.1475 N.am      1 UNK        -0.5000 
      5 CA          2.6869  -11.4839  -48.4467 C.3       1 UNK         0.1400 
      6 C6          1.9365  -12.2049  -49.5939 C.3       23 UNK        -0.0398 
      7 S7          0.2237  -11.6130  -49.8130 S.3       23 UNK        -0.2404 
      8 C8         -0.7414  -12.9680  -49.0726 C.3       23 UNK        -0.0205 
      9 C9         -0.7596  -14.2149  -49.9443 C.ar      23 UNK        -0.0193 
     10 C10        -1.5882  -14.2642  -51.0681 C.ar      23 UNK        -0.1150 
     11 C11        -1.6278  -15.4054  -51.8733 C.ar      23 UNK        -0.0193 
     12 C12        -0.8264  -16.5034  -51.5476 C.ar      23 UNK        -0.1150 
     13 C13        -0.0086  -16.4759  -50.4147 C.ar      23 UNK        -0.0193 
     14 C14         0.0257  -15.3262  -49.6195 C.ar      23 UNK        -0.1150 
     15 C15         0.8320  -17.6921  -50.0514 C.3       23 UNK        -0.0205 
     16 S16         0.2038  -18.5502  -48.5721 S.3       23 UNK        -0.2404 
     17 C17        -1.5028  -18.9712  -49.0661 C.3       23 UNK        -0.0398 
     18 CA         -2.0081  -20.2893  -48.4249 C.3       11 UNK         0.1400 
     19 N          -1.9695  -20.2478  -46.9501 N.am      11 UNK        -0.5000 
     20 C          -1.9948  -21.2980  -46.1115 C.2       10 UNK         0.5000 
     21 O          -2.1077  -22.4637  -46.4962 O.2       10 UNK        -0.5000 
     22 CA         -1.9223  -21.0388  -44.5950 C.3       10 UNK         0.1400 
     23 CB         -0.6271  -21.6168  -44.0043 C.3       10 UNK        -0.1800 
     24 N          -2.0352  -19.6249  -44.2416 N.am      10 UNK        -0.5000 
     25 C          -3.1954  -18.9636  -44.1236 C.2       9 UNK         0.5000 
     26 O          -4.2957  -19.4908  -44.2908 O.2       9 UNK        -0.5000 
     27 CA         -3.1275  -17.4640  -43.7677 C.3       9 UNK         0.1400 
     28 CB         -3.4040  -17.2553  -42.2710 C.3       9 UNK        -0.1800 
     29 N          -1.8521  -16.8326  -44.1117 N.am      9 UNK        -0.5000 
     30 C          -1.3978  -16.6644  -45.3607 C.2       8 UNK         0.5000 
     31 O          -2.0364  -16.9850  -46.3621 O.2       8 UNK        -0.5000 
     32 CA          0.0244  -16.0907  -45.5098 C.3       8 UNK         0.1400 
     33 CB          0.0038  -14.5594  -45.4364 C.3       8 UNK        -0.1800 
     34 N           0.9625  -16.6078  -44.5118 N.am      8 UNK        -0.5000 
     35 C           1.2974  -17.8986  -44.3740 C.2       7 UNK         0.5000 
     36 O           0.8824  -18.7947  -45.1054 O.2       7 UNK        -0.5000 
     37 CA          2.1932  -18.2574  -43.1777 C.3       7 UNK         0.1400 
     38 CB          3.6676  -17.9479  -43.4744 C.3       7 UNK        -0.1800 
     39 N           1.7685  -17.5509  -41.9700 N.am      7 UNK        -0.5000 
     40 C           0.6747  -17.8648  -41.2605 C.2       6 UNK         0.5000 
     41 O          -0.0505  -18.8265  -41.5131 O.2       6 UNK        -0.5000 
     42 CA          0.3166  -16.9346  -40.0854 C.3       6 UNK         0.1400 
     43 CB          1.0083  -17.4047  -38.7971 C.3       6 UNK        -0.1800 
     44 N           0.6697  -15.5362  -40.3367 N.am      6 UNK        -0.5000 
     45 C           0.0793  -14.7550  -41.2525 C.2       5 UNK         0.5000 
     46 O          -0.8606  -15.1208  -41.9563 O.2       5 UNK        -0.5000 
     47 CA          0.6815  -13.3503  -41.4543 C.3       5 UNK         0.1400 
     48 CB          0.0489  -12.3437  -40.4827 C.3       5 UNK        -0.1800 
     49 N           2.1401  -13.3274  -41.3007 N.am      5 UNK        -0.5000 
     50 C           2.9911  -14.0075  -42.0796 C.2       4 UNK         0.5000 
     51 O           2.6330  -14.6923  -43.0407 O.2       4 UNK        -0.5000 
     52 CA          4.4675  -13.9764  -41.6664 C.3       4 UNK         0.1400 
     53 CB          4.6910  -14.8943  -40.4469 C.3       4 UNK        -0.1800 
     54 N           5.2958  -14.4195  -42.7837 N.am      4 UNK        -0.5000 
     55 C           6.6228  -14.2888  -42.8743 C.2       3 UNK         0.5000 
     56 O           7.3086  -13.7112  -42.0295 O.2       3 UNK        -0.5000 
     57 CA          7.3147  -14.9085  -44.1045 C.3       3 UNK         0.1400 
     58 CB          7.1181  -16.4361  -44.1722 C.3       3 UNK        -0.1800 
     59 N           6.9796  -14.2656  -45.3799 N.am      3 UNK        -0.5000 
     60 C           5.7956  -14.2106  -46.0027 C.2       2 UNK         0.5000 
     61 O           4.7512  -14.7052  -45.5705 O.2       2 UNK        -0.5000 
     62 CA          5.7889  -13.5030  -47.3629 C.3       2 UNK         0.1400 
     63 CB          6.1506  -14.4832  -48.4936 C.3       2 UNK        -0.1800 
     64 N           4.4607  -12.9498  -47.5854 N.am      2 UNK        -0.5000 
     65 C           4.1595  -11.9471  -48.4181 C.2       1 UNK         0.5000 
     66 O           4.9851  -11.3887  -49.1424 O.2       1 UNK        -0.5000 
     67 C          -3.3880  -20.7159  -48.9921 C.2       11 UNK         0.5000 
     68 O          -3.8925  -20.1266  -49.9506 O.2       11 UNK        -0.5000 
     69 N          -3.9605  -21.7638  -48.4011 N.am      12 UNK        -0.5000 
     70 CA         -5.1801  -22.4519  -48.7894 C.3       12 UNK         0.1400 
     71 CB         -6.4281  -21.6786  -48.3323 C.3       12 UNK        -0.1800 
     72 C          -5.1207  -23.8649  -48.2041 C.2       12 UNK         0.5000 
     73 O          -5.1777  -24.8317  -48.9609 O.2       12 UNK        -0.5000 
     74 N          -4.9295  -23.9554  -46.8802 N.am      13 UNK        -0.5000 
     75 CA         -4.7951  -25.2081  -46.1347 C.3       13 UNK         0.1400 
     76 CB         -4.8176  -24.9057  -44.6280 C.3       13 UNK        -0.1800 
     77 C          -3.5310  -26.0001  -46.5149 C.2       13 UNK         0.5000 
     78 O          -3.6291  -27.1810  -46.8499 O.2       13 UNK        -0.5000 
     79 N          -2.3718  -25.3267  -46.4993 N.am      14 UNK        -0.5000 
     80 CA         -1.0796  -25.9016  -46.8883 C.3       14 UNK         0.1400 
     81 CB          0.0529  -25.0432  -46.3039 C.3       14 UNK        -0.1800 
     82 C          -0.9322  -26.0243  -48.4165 C.2       14 UNK         0.5000 
     83 O          -0.1500  -26.8459  -48.8941 O.2       14 UNK        -0.5000 
     84 N          -1.7070  -25.2158  -49.1500 N.am      15 UNK        -0.5000 
     85 CA         -1.7900  -25.1998  -50.6087 C.3       15 UNK         0.1400 
     86 CB         -2.2154  -23.7892  -51.0413 C.3       15 UNK        -0.1800 
     87 C          -2.7597  -26.2566  -51.1781 C.2       15 UNK         0.5000 
     88 O          -2.9350  -26.3068  -52.3983 O.2       15 UNK        -0.5000 
     89 N          -3.4118  -27.0358  -50.2990 N.am      16 UNK        -0.5000 
     90 CA         -4.3947  -28.0905  -50.5849 C.3       16 UNK         0.1400 
     91 CB         -3.6975  -29.2949  -51.2502 C.3       16 UNK        -0.1800 
     92 C          -5.6175  -27.5987  -51.3921 C.2       16 UNK         0.5000 
     93 O          -6.2158  -28.3747  -52.1391 O.2       16 UNK        -0.5000 
     94 N          -5.9363  -26.3029  -51.2503 N.am      17 UNK        -0.5000 
     95 CA         -6.9229  -25.5255  -52.0053 C.3       17 UNK         0.1400 
     96 CB         -8.3528  -25.9501  -51.6148 C.3       17 UNK        -0.1800 
     97 C          -6.6909  -25.5339  -53.5355 C.2       17 UNK         0.5000 
     98 O          -7.6462  -25.3491  -54.2918 O.2       17 UNK        -0.5000 
     99 N          -5.4390  -25.7474  -53.9672 N.am      18 UNK        -0.5000 
    100 CA        -5.0665  -25.9209  -55.3708 C.3       18 UNK         0.1400 
    101 CB        -4.7239  -27.3991  -55.6191 C.3       18 UNK        -0.1800 
    102 C         -3.8919  -25.0192  -55.7742 C.2       18 UNK         0.5000 
    103 O         -3.9465  -24.4027  -56.8388 O.2       18 UNK        -0.5000 
    104 N         -2.8477  -24.9550  -54.9359 N.am      19 UNK        -0.5000 
    105 CA        -1.5995  -24.2483  -55.2458 C.3       19 UNK         0.1400 
    106 CB        -0.4521  -24.8815  -54.4421 C.3       19 UNK        -0.1800 
    107 C         -1.6627  -22.7244  -55.0142 C.2       19 UNK         0.5000 
    108 O         -0.7482  -22.0176  -55.4405 O.2       19 UNK        -0.5000 
    109 N         -2.7188  -22.2420  -54.3487 N.am      20 UNK        -0.5000 
    110 CA        -2.9448  -20.8320  -54.0477 C.3       20 UNK         0.1400 
    111 CB        -2.1272  -20.4004  -52.8134 C.3       20 UNK        -0.1800 
    112 C         -4.4505  -20.5943  -53.8858 C.2       20 UNK         0.5000 
    113 O         -5.0739  -20.0484  -54.7961 O.2       20 UNK        -0.5000 
    114 N         -5.0030  -21.0409  -52.7461 N.am      21 UNK        -0.5000 
    115 CA        -6.3995  -20.8665  -52.3202 C.3       21 UNK         0.1400 
    116 CB        -7.3703  -21.6020  -53.2676 C.3       21 UNK        -0.1800 
    117 C         -6.7622  -19.3813  -52.1068 C.2       21 UNK         0.5000 
    118 O         -7.8377  -18.9351  -52.5111 O.2       21 UNK        -0.5000 
    119 N         -5.8372  -18.6435  -51.4836 N.am      22 UNK        -0.5000 
    120 CA        -5.9224  -17.1909  -51.2609 C.3       22 UNK         0.1400 
    121 C         -6.6211  -16.7942  -49.9284 C.2       22 UNK         0.5000 
    122 N         -6.9784  -17.7302  -49.0578 N.am      22 UNK        -0.7600 
    123 O         -6.8586  -15.6142  -49.6857 O.2       22 UNK        -0.5000 
    124 C124       -4.5310  -16.5205  -51.3798 C.3       23 UNK        -0.0398 
    125 S125       -3.7508  -16.8128  -53.0056 S.3       23 UNK        -0.2404 
    126 C126       -2.5441  -15.4507  -53.0887 C.3       23 UNK        -0.0205 
    127 H127        0.5192  -11.6802  -45.0427 H         1 UNK         0.0600 
    128 H128        1.3690  -10.4004  -44.1792 H         1 UNK         0.0600 
    129 H129        2.0243  -12.0410  -44.1846 H         1 UNK         0.0600 
    130 H130        1.2581  -12.3122  -47.1303 H         1 UNK         0.3000 
    131 H131        2.6954  -10.4153  -48.6726 H         1 UNK         0.0600 
    132 H132        1.9423  -13.2840  -49.4386 H         1 UNK         0.0800 
    133 H133        2.4520  -12.0396  -50.5419 H         1 UNK         0.0800 
    134 H134       -1.7651  -12.6256  -48.9142 H         1 UNK         0.0800 
    135 H135       -0.3415  -13.1944  -48.0869 H         1 UNK         0.0800 
    136 H136       -2.2027  -13.4091  -51.3131 H         1 UNK         0.1150 
    137 H137       -0.8580  -17.3875  -52.1687 H         1 UNK         0.1150 
    138 H138        0.6572  -15.3051  -48.7429 H         1 UNK         0.1150 
    139 H139        0.8744  -18.3976  -50.8827 H         1 UNK         0.0800 
    140 H140        1.8595  -17.3760  -49.8662 H         1 UNK         0.0800 
    141 H141       -1.5266  -19.0502  -50.1537 H         1 UNK         0.0800 
    142 H142       -2.1575  -18.1379  -48.8062 H         1 UNK         0.0800 
    143 H143       -1.3160  -21.0748  -48.7356 H         1 UNK         0.0600 
    144 H144       -1.8845  -19.3224  -46.5492 H         1 UNK         0.3000 
    145 H145       -2.7554  -21.5781  -44.1395 H         1 UNK         0.0600 
    146 H146       -0.5486  -21.4061  -42.9374 H         1 UNK         0.0600 
    147 H147       -0.5970  -22.7003  -44.1239 H         1 UNK         0.0600 
    148 H148        0.2595  -21.2144  -44.4928 H         1 UNK         0.0600 
    149 H149       -1.1664  -19.1211  -44.1163 H         1 UNK         0.3000 
    150 H150       -3.9137  -16.9594  -44.3329 H         1 UNK         0.0600 
    151 H151       -4.3598  -17.6950  -41.9834 H         1 UNK         0.0600 
    152 H152       -3.4472  -16.1950  -42.0217 H         1 UNK         0.0600 
    153 H153       -2.6317  -17.7141  -41.6529 H         1 UNK         0.0600 
    154 H154       -1.3022  -16.4685  -43.3396 H         1 UNK         0.3000 
    155 H155        0.3936  -16.3797  -46.4950 H         1 UNK         0.0600 
    156 H156       -0.7503  -14.1466  -46.1052 H         1 UNK         0.0600 
    157 H157        0.9713  -14.1441  -45.7173 H         1 UNK         0.0600 
    158 H158       -0.2342  -14.2092  -44.4332 H         1 UNK         0.0600 
    159 H159        1.3983  -15.9264  -43.8971 H         1 UNK         0.3000 
    160 H160        2.1048  -19.3315  -42.9997 H         1 UNK         0.0600 
    161 H161        3.8197  -16.8967  -43.7153 H         1 UNK         0.0600 
    162 H162        4.0208  -18.5292  -44.3268 H         1 UNK         0.0600 
    163 H163        4.3048  -18.1941  -42.6249 H         1 UNK         0.0600 
    164 H164        2.2786  -16.7137  -41.7325 H         1 UNK         0.3000 
    165 H165       -0.7636  -16.9910  -39.9346 H         1 UNK         0.0600 
    166 H166        0.7036  -16.8002  -37.9426 H         1 UNK         0.0600 
    167 H167        0.7488  -18.4397  -38.5704 H         1 UNK         0.0600 
    168 H168        2.0946  -17.3488  -38.8787 H         1 UNK         0.0600 
    169 H169        1.4308  -15.1536  -39.7961 H         1 UNK         0.3000 
    170 H170        0.4455  -13.0324  -42.4711 H         1 UNK         0.0600 
    171 H171       -1.0366  -12.3279  -40.5900 H         1 UNK         0.0600 
    172 H172        0.2728  -12.5892  -39.4439 H         1 UNK         0.0600 
    173 H173        0.4076  -11.3323  -40.6745 H         1 UNK         0.0600 
    174 H174        2.5029  -12.7901  -40.5263 H         1 UNK         0.3000 
    175 H175        4.7326  -12.9481  -41.4128 H         1 UNK         0.0600 
    176 H176        4.0597  -14.6020  -39.6071 H         1 UNK         0.0600 
    177 H177        4.4647  -15.9351  -40.6826 H         1 UNK         0.0600 
    178 H178        5.7220  -14.8507  -40.0962 H         1 UNK         0.0600 
    179 H179        4.7841  -14.8059  -43.5745 H         1 UNK         0.3000 
    180 H180        8.3838  -14.7380  -43.9665 H         1 UNK         0.0600 
    181 H181        6.0919  -16.7101  -44.4103 H         1 UNK         0.0600 
    182 H182        7.3693  -16.9059  -43.2205 H         1 UNK         0.0600 
    183 H183        7.7618  -16.8786  -44.9323 H         1 UNK         0.0600 
    184 H184        7.7595  -13.8039  -45.8272 H         1 UNK         0.3000 
    185 H185        6.5155  -12.6880  -47.3360 H         1 UNK         0.0600 
    186 H186        7.1343  -14.9248  -48.3298 H         1 UNK         0.0600 
    187 H187        5.4304  -15.2997  -48.5603 H         1 UNK         0.0600 
    188 H188        6.1788  -13.9822  -49.4612 H         1 UNK         0.0600 
    189 H189        3.7455  -13.3393  -46.9839 H         1 UNK         0.3000 
    190 H190       -3.4274  -22.1944  -47.6480 H         1 UNK         0.3000 
    191 H191       -5.2016  -22.5476  -49.8753 H         1 UNK         0.0600 
    192 H192       -6.4283  -21.5078  -47.2553 H         1 UNK         0.0600 
    193 H193       -7.3388  -22.2245  -48.5819 H         1 UNK         0.0600 
    194 H194       -6.4878  -20.7073  -48.8210 H         1 UNK         0.0600 
    195 H195       -4.8981  -23.1073  -46.3343 H         1 UNK         0.3000 
    196 H196       -5.6602  -25.8322  -46.3689 H         1 UNK         0.0600 
    197 H197       -4.7206  -25.8219  -44.0441 H         1 UNK         0.0600 
    198 H198       -5.7558  -24.4337  -44.3356 H         1 UNK         0.0600 
    199 H199       -4.0032  -24.2415  -44.3353 H         1 UNK         0.0600 
    200 H200       -2.3704  -24.3368  -46.2690 H         1 UNK         0.3000 
    201 H201       -1.0000  -26.9048  -46.4640 H         1 UNK         0.0600 
    202 H202       -0.0315  -24.9636  -45.2201 H         1 UNK         0.0600 
    203 H203        0.0509  -24.0340  -46.7168 H         1 UNK         0.0600 
    204 H204        1.0267  -25.4830  -46.5223 H         1 UNK         0.0600 
    205 H205       -2.3201  -24.5862  -48.6553 H         1 UNK         0.3000 
    206 H206       -0.8017  -25.4062  -51.0238 H         1 UNK         0.0600 
    207 H207       -1.5239  -23.0355  -50.6647 H         1 UNK         0.0600 
    208 H208       -2.2320  -23.6999  -52.1246 H         1 UNK         0.0600 
    209 H209       -3.2136  -23.5438  -50.6843 H         1 UNK         0.0600 
    210 H210       -3.2385  -26.8709  -49.3169 H         1 UNK         0.3000 
    211 H211       -4.7805  -28.4182  -49.6186 H         1 UNK         0.0600 
    212 H212       -3.3410  -29.0512  -52.2517 H         1 UNK         0.0600 
    213 H213       -4.3777  -30.1424  -51.3416 H         1 UNK         0.0600 
    214 H214       -2.8429  -29.6294  -50.6622 H         1 UNK         0.0600 
    215 H215       -5.4345  -25.7810  -50.5348 H         1 UNK         0.3000 
    216 H216       -6.7907  -24.4902  -51.6885 H         1 UNK         0.0600 
    217 H217       -9.0954  -25.2836  -52.0549 H         1 UNK         0.0600 
    218 H218       -8.4910  -25.9175  -50.5341 H         1 UNK         0.0600 
    219 H219       -8.5792  -26.9620  -51.9520 H         1 UNK         0.0600 
    220 H220       -4.7072  -25.9063  -53.2830 H         1 UNK         0.3000 
    221 H221       -5.9007  -25.6572  -56.0242 H         1 UNK         0.0600 
    222 H222       -3.9052  -27.7357  -54.9814 H         1 UNK         0.0600 
    223 H223       -5.5839  -28.0387  -55.4195 H         1 UNK         0.0600 
    224 H224       -4.4269  -27.5655  -56.6554 H         1 UNK         0.0600 
    225 H225       -2.8593  -25.4980  -54.0761 H         1 UNK         0.3000 
    226 H226       -1.3732  -24.3961  -56.3040 H         1 UNK         0.0600 
    227 H227       -0.3751  -25.9506  -54.6407 H         1 UNK         0.0600 
    228 H228        0.5057  -24.4334  -54.7095 H         1 UNK         0.0600 
    229 H229       -0.5835  -24.7502  -53.3699 H         1 UNK         0.0600 
    230 H230       -3.4562  -22.8811  -54.0888 H         1 UNK         0.3000 
    231 H231       -2.6201  -20.2273  -54.8975 H         1 UNK         0.0600 
    232 H232       -1.0592  -20.4017  -53.0303 H         1 UNK         0.0600 
    233 H233       -2.2900  -21.0601  -51.9632 H         1 UNK         0.0600 
    234 H234       -2.3913  -19.3906  -52.5006 H         1 UNK         0.0600 
    235 H235       -4.3809  -21.4073  -52.0401 H         1 UNK         0.3000 
    236 H236       -6.4879  -21.3386  -51.3430 H         1 UNK         0.0600 
    237 H237       -8.3763  -21.6315  -52.8477 H         1 UNK         0.0600 
    238 H238       -7.4391  -21.1151  -54.2407 H         1 UNK         0.0600 
    239 H239       -7.0565  -22.6305  -53.4339 H         1 UNK         0.0600 
    240 H240       -5.0039  -19.1027  -51.1257 H         1 UNK         0.3000 
    241 H241       -6.5454  -16.7630  -52.0487 H         1 UNK         0.0600 
    242 H242       -7.4381  -17.4638  -48.2016 H         1 UNK         0.3800 
    243 H243       -6.7856  -18.6988  -49.2488 H         1 UNK         0.3800 
    244 H244       -4.6134  -15.4424  -51.2301 H         1 UNK         0.0800 
    245 H245       -3.8614  -16.8912  -50.6015 H         1 UNK         0.0800 
    246 H246       -1.9373  -15.5694  -53.9871 H         1 UNK         0.0800 
    247 H247       -3.0845  -14.5099  -53.2039 H         1 UNK         0.0800 
@<TRIPOS>BOND
     1    1    2 1    
     2    1  127 1    
     3    1  128 1    
     4    1  129 1    
     5    2    3 2    
     6    2    4 am   BACKBONE|DICT|INTERRES
     7    4    5 1    
     8    4  130 1    
     9    5    6 1    
    10    5   65 1    
    11    5  131 1    
    12    6    7 1    
    13    6  132 1    
    14    6  133 1    
    15    7    8 1    
    16    8    9 1    
    17    8  134 1    
    18    8  135 1    
    19    9   10 ar   
    20    9   14 ar   
    21   10   11 ar   
    22   10  136 1    
    23   11   12 ar   
    24   11  126 1    
    25   12   13 ar   
    26   12  137 1    
    27   13   14 ar   
    28   13   15 1    
    29   14  138 1    
    30   15   16 1    
    31   15  139 1    
    32   15  140 1    
    33   16   17 1    
    34   17   18 1    
    35   17  141 1    
    36   17  142 1    
    37   18   19 1    
    38   18   67 1    
    39   18  143 1    
    40   19   20 am   BACKBONE|DICT|INTERRES
    41   19  144 1    
    42   20   21 2    
    43   20   22 1    
    44   22   23 1    
    45   22   24 1    
    46   22  145 1    
    47   23  146 1    
    48   23  147 1    
    49   23  148 1    
    50   24   25 am   BACKBONE|DICT|INTERRES
    51   24  149 1    
    52   25   26 2    
    53   25   27 1    
    54   27   28 1    
    55   27   29 1    
    56   27  150 1    
    57   28  151 1    
    58   28  152 1    
    59   28  153 1    
    60   29   30 am   BACKBONE|DICT|INTERRES
    61   29  154 1    
    62   30   31 2    
    63   30   32 1    
    64   32   33 1    
    65   32   34 1    
    66   32  155 1    
    67   33  156 1    
    68   33  157 1    
    69   33  158 1    
    70   34   35 am   BACKBONE|DICT|INTERRES
    71   34  159 1    
    72   35   36 2    
    73   35   37 1    
    74   37   38 1    
    75   37   39 1    
    76   37  160 1    
    77   38  161 1    
    78   38  162 1    
    79   38  163 1    
    80   39   40 am   BACKBONE|DICT|INTERRES
    81   39  164 1    
    82   40   41 2    
    83   40   42 1    
    84   42   43 1    
    85   42   44 1    
    86   42  165 1    
    87   43  166 1    
    88   43  167 1    
    89   43  168 1    
    90   44   45 am   BACKBONE|DICT|INTERRES
    91   44  169 1    
    92   45   46 2    
    93   45   47 1    
    94   47   48 1    
    95   47   49 1    
    96   47  170 1    
    97   48  171 1    
    98   48  172 1    
    99   48  173 1    
   100   49   50 am   BACKBONE|DICT|INTERRES
   101   49  174 1    
   102   50   51 2    
   103   50   52 1    
   104   52   53 1    
   105   52   54 1    
   106   52  175 1    
   107   53  176 1    
   108   53  177 1    
   109   53  178 1    
   110   54   55 am   BACKBONE|DICT|INTERRES
   111   54  179 1    
   112   55   56 2    
   113   55   57 1    
   114   57   58 1    
   115   57   59 1    
   116   57  180 1    
   117   58  181 1    
   118   58  182 1    
   119   58  183 1    
   120   59   60 am   BACKBONE|DICT|INTERRES
   121   59  184 1    
   122   60   61 2    
   123   60   62 1    
   124   62   63 1    
   125   62   64 1    
   126   62  185 1    
   127   63  186 1    
   128   63  187 1    
   129   63  188 1    
   130   64   65 am   BACKBONE|DICT|INTERRES
   131   64  189 1    
   132   65   66 2    
   133   67   68 2    
   134   67   69 am   BACKBONE|DICT|INTERRES
   135   69   70 1    
   136   69  190 1    
   137   70   71 1    
   138   70   72 1    
   139   70  191 1    
   140   71  192 1    
   141   71  193 1    
   142   71  194 1    
   143   72   73 2    
   144   72   74 am   BACKBONE|DICT|INTERRES
   145   74   75 1    
   146   74  195 1    
   147   75   76 1    
   148   75   77 1    
   149   75  196 1    
   150   76  197 1    
   151   76  198 1    
   152   76  199 1    
   153   77   78 2    
   154   77   79 am   BACKBONE|DICT|INTERRES
   155   79   80 1    
   156   79  200 1    
   157   80   81 1    
   158   80   82 1    
   159   80  201 1    
   160   81  202 1    
   161   81  203 1    
   162   81  204 1    
   163   82   83 2    
   164   82   84 am   BACKBONE|DICT|INTERRES
   165   84   85 1    
   166   84  205 1    
   167   85   86 1    
   168   85   87 1    
   169   85  206 1    
   170   86  207 1    
   171   86  208 1    
   172   86  209 1    
   173   87   88 2    
   174   87   89 am   BACKBONE|DICT|INTERRES
   175   89   90 1    
   176   89  210 1    
   177   90   91 1    
   178   90   92 1    
   179   90  211 1    
   180   91  212 1    
   181   91  213 1    
   182   91  214 1    
   183   92   93 2    
   184   92   94 am   BACKBONE|DICT|INTERRES
   185   94   95 1    
   186   94  215 1    
   187   95   96 1    
   188   95   97 1    
   189   95  216 1    
   190   96  217 1    
   191   96  218 1    
   192   96  219 1    
   193   97   98 2    
   194   97   99 am   BACKBONE|DICT|INTERRES
   195   99  100 1    
   196   99  220 1    
   197  100  101 1    
   198  100  102 1    
   199  100  221 1    
   200  101  222 1    
   201  101  223 1    
   202  101  224 1    
   203  102  103 2    
   204  102  104 am   BACKBONE|DICT|INTERRES
   205  104  105 1    
   206  104  225 1    
   207  105  106 1    
   208  105  107 1    
   209  105  226 1    
   210  106  227 1    
   211  106  228 1    
   212  106  229 1    
   213  107  108 2    
   214  107  109 am   BACKBONE|DICT|INTERRES
   215  109  110 1    
   216  109  230 1    
   217  110  111 1    
   218  110  112 1    
   219  110  231 1    
   220  111  232 1    
   221  111  233 1    
   222  111  234 1    
   223  112  113 2    
   224  112  114 am   BACKBONE|DICT|INTERRES
   225  114  115 1    
   226  114  235 1    
   227  115  116 1    
   228  115  117 1    
   229  115  236 1    
   230  116  237 1    
   231  116  238 1    
   232  116  239 1    
   233  117  118 2    
   234  117  119 am   BACKBONE|DICT|INTERRES
   235  119  120 1    
   236  119  240 1    
   237  120  121 1    
   238  120  124 1    
   239  120  241 1    
   240  121  122 am   BACKBONE|DICT|INTERRES
   241  121  123 2    
   242  122  242 1    
   243  122  243 1    
   244  124  125 1    
   245  124  244 1    
   246  124  245 1    
   247  125  126 1    
   248  126  246 1    
   249  126  247 1    
@<TRIPOS>SUBSTRUCTURE
     1 UNK         1 GROUP             0       ****    0 ROOT    
