@<TRIPOS>MOLECULE
3R540
247   249    1
SMALL
USER_CHARGES


@<TRIPOS>ATOM
      1 CA          3.7534  -10.1120  -49.0245 C.3       0 UNK        -0.1800 
      2 C           3.3563  -11.5472  -48.7086 C.2       0 UNK         0.5000 
      3 O           3.9976  -12.1900  -47.8777 O.2       0 UNK        -0.5000 
      4 N           2.3105  -12.0517  -49.3769 N.am      1 UNK        -0.5000 
      5 CA          1.7466  -13.3900  -49.1671 C.3       1 UNK         0.1400 
      6 C6          0.8261  -13.7927  -50.3480 C.3       23 UNK        -0.0398 
      7 S7          0.4276  -15.5721  -50.4135 S.3       23 UNK        -0.2404 
      8 C8          1.8329  -16.2018  -51.3826 C.3       23 UNK        -0.0205 
      9 C9          1.6544  -17.6677  -51.7475 C.ar      23 UNK        -0.0193 
     10 C10         1.4047  -18.0417  -53.0714 C.ar      23 UNK        -0.1150 
     11 C11         1.2615  -19.3900  -53.4185 C.ar      23 UNK        -0.0193 
     12 C12         1.3802  -20.3662  -52.4243 C.ar      23 UNK        -0.1150 
     13 C13         1.6259  -20.0062  -51.0961 C.ar      23 UNK        -0.0193 
     14 C14         1.7652  -18.6552  -50.7652 C.ar      23 UNK        -0.1150 
     15 C15         1.7799  -21.0723  -50.0228 C.3       23 UNK        -0.0205 
     16 S16         0.2032  -21.9021  -49.6438 S.3       23 UNK        -0.2404 
     17 C17         0.5250  -22.4465  -47.9299 C.3       23 UNK        -0.0398 
     18 CA         -0.2300  -21.6535  -46.8239 C.3       11 UNK         0.1400 
     19 N           0.0531  -20.2147  -46.8206 N.am      11 UNK        -0.5000 
     20 C          -0.5266  -19.2242  -47.5206 C.2       10 UNK         0.5000 
     21 O          -1.4261  -19.3939  -48.3410 O.2       10 UNK        -0.5000 
     22 CA         -0.0594  -17.7915  -47.1984 C.3       10 UNK         0.1400 
     23 CB         -1.2609  -16.8486  -46.9995 C.3       10 UNK        -0.1800 
     24 N           0.7641  -17.7836  -45.9876 N.am      10 UNK        -0.5000 
     25 C           2.1018  -17.7431  -45.9722 C.2       9 UNK         0.5000 
     26 O           2.8029  -17.6131  -46.9757 O.2       9 UNK        -0.5000 
     27 CA          2.7676  -17.9515  -44.6007 C.3       9 UNK         0.1400 
     28 CB          2.7418  -16.6504  -43.7850 C.3       9 UNK        -0.1800 
     29 N           2.1629  -19.0345  -43.8150 N.am      9 UNK        -0.5000 
     30 C           2.2120  -20.3360  -44.1387 C.2       8 UNK         0.5000 
     31 O           2.6725  -20.7516  -45.2009 O.2       8 UNK        -0.5000 
     32 CA          1.6367  -21.3470  -43.1321 C.3       8 UNK         0.1400 
     33 CB          2.6377  -21.5971  -41.9939 C.3       8 UNK        -0.1800 
     34 N           0.3764  -20.8787  -42.5638 N.am      8 UNK        -0.5000 
     35 C          -0.8234  -21.4393  -42.7686 C.2       7 UNK         0.5000 
     36 O          -1.0211  -22.4409  -43.4614 O.2       7 UNK        -0.5000 
     37 CA         -2.0294  -20.7288  -42.1210 C.3       7 UNK         0.1400 
     38 CB         -2.2254  -21.2194  -40.6789 C.3       7 UNK        -0.1800 
     39 N          -1.9231  -19.2688  -42.1057 N.am      7 UNK        -0.5000 
     40 C          -1.6595  -18.4818  -43.1577 C.2       6 UNK         0.5000 
     41 O          -1.5446  -18.8943  -44.3120 O.2       6 UNK        -0.5000 
     42 CA         -1.4181  -16.9884  -42.8645 C.3       6 UNK         0.1400 
     43 CB         -2.7262  -16.2088  -43.0626 C.3       6 UNK        -0.1800 
     44 N          -0.8584  -16.6859  -41.5366 N.am      6 UNK        -0.5000 
     45 C           0.2255  -17.2459  -40.9726 C.2       5 UNK         0.5000 
     46 O           0.8654  -18.1584  -41.5001 O.2       5 UNK        -0.5000 
     47 CA          0.6706  -16.6990  -39.6011 C.3       5 UNK         0.1400 
     48 CB          2.1334  -17.0587  -39.2822 C.3       5 UNK        -0.1800 
     49 N           0.5246  -15.2456  -39.5372 N.am      5 UNK        -0.5000 
     50 C          -0.4712  -14.5799  -38.9378 C.2       4 UNK         0.5000 
     51 O          -1.4012  -15.1273  -38.3455 O.2       4 UNK        -0.5000 
     52 CA         -0.4346  -13.0401  -39.0444 C.3       4 UNK         0.1400 
     53 CB          0.2191  -12.4312  -37.7946 C.3       4 UNK        -0.1800 
     54 N           0.2690  -12.5554  -40.2383 N.am      4 UNK        -0.5000 
     55 C          -0.1541  -12.7550  -41.4929 C.2       3 UNK         0.5000 
     56 O          -1.2120  -13.3275  -41.7687 O.2       3 UNK        -0.5000 
     57 CA          0.7722  -12.2772  -42.6219 C.3       3 UNK         0.1400 
     58 CB          2.1113  -13.0416  -42.5998 C.3       3 UNK        -0.1800 
     59 N           0.0839  -12.5033  -43.8877 N.am      3 UNK        -0.5000 
     60 C           0.3976  -11.9758  -45.0726 C.2       2 UNK         0.5000 
     61 O           1.3369  -11.1978  -45.2565 O.2       2 UNK        -0.5000 
     62 CA         -0.5321  -12.3533  -46.2401 C.3       2 UNK         0.1400 
     63 CB         -1.6449  -11.3069  -46.4054 C.3       2 UNK        -0.1800 
     64 N           0.1997  -12.4713  -47.4992 N.am      2 UNK        -0.5000 
     65 C           1.0263  -13.4816  -47.8042 C.2       1 UNK         0.5000 
     66 O           1.2451  -14.4344  -47.0569 O.2       1 UNK        -0.5000 
     67 C          -1.7242  -22.0181  -46.6910 C.2       11 UNK         0.5000 
     68 O          -2.1226  -23.0845  -47.1560 O.2       11 UNK        -0.5000 
     69 N          -2.5247  -21.1573  -46.0425 N.am      12 UNK        -0.5000 
     70 CA         -3.9872  -21.2397  -45.9999 C.3       12 UNK         0.1400 
     71 CB         -4.5476  -19.9780  -45.3265 C.3       12 UNK        -0.1800 
     72 C          -4.5431  -22.5133  -45.3346 C.2       12 UNK         0.5000 
     73 O          -5.6418  -22.9412  -45.6887 O.2       12 UNK        -0.5000 
     74 N          -3.7725  -23.1020  -44.4119 N.am      13 UNK        -0.5000 
     75 CA         -4.0574  -24.3981  -43.7983 C.3       13 UNK         0.1400 
     76 CB         -3.9129  -24.2780  -42.2740 C.3       13 UNK        -0.1800 
     77 C          -3.1042  -25.4783  -44.3352 C.2       13 UNK         0.5000 
     78 O          -3.5158  -26.6303  -44.4741 O.2       13 UNK        -0.5000 
     79 N          -1.8486  -25.0954  -44.6124 N.am      14 UNK        -0.5000 
     80 CA         -0.7741  -25.9935  -45.0349 C.3       14 UNK         0.1400 
     81 CB          0.5619  -25.2378  -44.9674 C.3       14 UNK        -0.1800 
     82 C          -0.9721  -26.6309  -46.4252 C.2       14 UNK         0.5000 
     83 O          -0.5140  -27.7564  -46.6292 O.2       14 UNK        -0.5000 
     84 N          -1.6328  -25.9226  -47.3514 N.am      15 UNK        -0.5000 
     85 CA         -1.8749  -26.3951  -48.7194 C.3       15 UNK         0.1400 
     86 CB         -0.6338  -26.1312  -49.5932 C.3       15 UNK        -0.1800 
     87 C          -3.1215  -25.7750  -49.3720 C.2       15 UNK         0.5000 
     88 O          -3.7247  -26.4170  -50.2320 O.2       15 UNK        -0.5000 
     89 N          -3.4646  -24.5376  -48.9855 N.am      16 UNK        -0.5000 
     90 CA         -4.5155  -23.6768  -49.5399 C.3       16 UNK         0.1400 
     91 CB         -5.9148  -24.2884  -49.3268 C.3       16 UNK        -0.1800 
     92 C          -4.2549  -23.2560  -51.0025 C.2       16 UNK         0.5000 
     93 O          -5.1929  -22.8913  -51.7123 O.2       16 UNK        -0.5000 
     94 N          -2.9841  -23.2892  -51.4309 N.am      17 UNK        -0.5000 
     95 CA         -2.5651  -22.9911  -52.8002 C.3       17 UNK         0.1400 
     96 CB         -1.0962  -23.3893  -52.9962 C.3       17 UNK        -0.1800 
     97 C          -2.8048  -21.5261  -53.1988 C.2       17 UNK         0.5000 
     98 O          -3.2471  -21.2789  -54.3190 O.2       17 UNK        -0.5000 
     99 N          -2.5728  -20.5874  -52.2697 N.am      18 UNK        -0.5000 
    100 CA        -2.8373  -19.1608  -52.4765 C.3       18 UNK         0.1400 
    101 CB        -2.2271  -18.3469  -51.3291 C.3       18 UNK        -0.1800 
    102 C         -4.3403  -18.8530  -52.6163 C.2       18 UNK         0.5000 
    103 O         -4.7142  -18.0064  -53.4279 O.2       18 UNK        -0.5000 
    104 N         -5.1802  -19.5784  -51.8619 N.am      19 UNK        -0.5000 
    105 CA        -6.6426  -19.5025  -51.9365 C.3       19 UNK         0.1400 
    106 CB        -7.2571  -20.2082  -50.7180 C.3       19 UNK        -0.1800 
    107 C         -7.1948  -20.0855  -53.2525 C.2       19 UNK         0.5000 
    108 O         -8.2015  -19.5942  -53.7625 O.2       19 UNK        -0.5000 
    109 N         -6.4918  -21.0832  -53.8047 N.am      20 UNK        -0.5000 
    110 CA        -6.7249  -21.6668  -55.1275 C.3       20 UNK         0.1400 
    111 CB        -6.1776  -23.1043  -55.1300 C.3       20 UNK        -0.1800 
    112 C         -6.1151  -20.8345  -56.2802 C.2       20 UNK         0.5000 
    113 O         -6.1445  -21.2864  -57.4262 O.2       20 UNK        -0.5000 
    114 N         -5.5620  -19.6515  -55.9676 N.am      21 UNK        -0.5000 
    115 CA        -4.9246  -18.6873  -56.8716 C.3       21 UNK         0.1400 
    116 CB        -5.9432  -18.1234  -57.8846 C.3       21 UNK        -0.1800 
    117 C         -3.6384  -19.2163  -57.5413 C.2       21 UNK         0.5000 
    118 O         -3.2675  -18.7419  -58.6165 O.2       21 UNK        -0.5000 
    119 N         -2.9726  -20.1737  -56.8829 N.am      22 UNK        -0.5000 
    120 CA        -1.6909  -20.7874  -57.2672 C.3       22 UNK         0.1400 
    121 C         -1.7393  -21.6425  -58.5704 C.2       22 UNK         0.5000 
    122 N         -2.9093  -22.0499  -59.0488 N.am      22 UNK        -0.7600 
    123 O         -0.7033  -21.9732  -59.1413 O.2       22 UNK        -0.5000 
    124 C124       -0.5067  -19.7796  -57.2387 C.3       23 UNK        -0.0398 
    125 S125       -0.3677  -18.9145  -55.6339 S.3       23 UNK        -0.2404 
    126 C126        1.0249  -19.8028  -54.8674 C.3       23 UNK        -0.0205 
    127 H127        3.1138   -9.6723  -49.7903 H         1 UNK         0.0600 
    128 H128        4.7830  -10.0767  -49.3805 H         1 UNK         0.0600 
    129 H129        3.6803   -9.4977  -48.1270 H         1 UNK         0.0600 
    130 H130        1.8387  -11.4728  -50.0571 H         1 UNK         0.3000 
    131 H131        2.5829  -14.0922  -49.1413 H         1 UNK         0.0600 
    132 H132       -0.1105  -13.2333  -50.3174 H         1 UNK         0.0800 
    133 H133        1.2953  -13.5192  -51.2941 H         1 UNK         0.0800 
    134 H134        1.9506  -15.6006  -52.2854 H         1 UNK         0.0800 
    135 H135        2.7519  -16.0815  -50.8072 H         1 UNK         0.0800 
    136 H136        1.3270  -17.2831  -53.8375 H         1 UNK         0.1150 
    137 H137        1.2941  -21.4113  -52.6827 H         1 UNK         0.1150 
    138 H138        1.9679  -18.3673  -49.7431 H         1 UNK         0.1150 
    139 H139        2.5093  -21.8163  -50.3456 H         1 UNK         0.0800 
    140 H140        2.1819  -20.6201  -49.1145 H         1 UNK         0.0800 
    141 H141        1.5960  -22.3875  -47.7326 H         1 UNK         0.0800 
    142 H142        0.2982  -23.5113  -47.8692 H         1 UNK         0.0800 
    143 H143        0.1902  -22.0015  -45.8809 H         1 UNK         0.0600 
    144 H144        0.7978  -19.9398  -46.1960 H         1 UNK         0.3000 
    145 H145        0.5171  -17.4303  -48.0509 H         1 UNK         0.0600 
    146 H146       -0.9448  -15.8639  -46.6588 H         1 UNK         0.0600 
    147 H147       -1.7985  -16.7081  -47.9380 H         1 UNK         0.0600 
    148 H148       -1.9729  -17.2395  -46.2733 H         1 UNK         0.0600 
    149 H149        0.2676  -17.9678  -45.1263 H         1 UNK         0.3000 
    150 H150        3.8123  -18.2159  -44.7778 H         1 UNK         0.0600 
    151 H151        3.2266  -15.8388  -44.3292 H         1 UNK         0.0600 
    152 H152        3.2655  -16.7666  -42.8360 H         1 UNK         0.0600 
    153 H153        1.7218  -16.3340  -43.5689 H         1 UNK         0.0600 
    154 H154        1.7532  -18.7618  -42.9238 H         1 UNK         0.3000 
    155 H155        1.4880  -22.2906  -43.6612 H         1 UNK         0.0600 
    156 H156        2.8227  -20.6926  -41.4125 H         1 UNK         0.0600 
    157 H157        3.5964  -21.9415  -42.3837 H         1 UNK         0.0600 
    158 H158        2.2701  -22.3632  -41.3111 H         1 UNK         0.0600 
    159 H159        0.4206  -20.0230  -42.0200 H         1 UNK         0.3000 
    160 H160       -2.9172  -20.9921  -42.6957 H         1 UNK         0.0600 
    161 H161       -1.4049  -20.9037  -40.0331 H         1 UNK         0.0600 
    162 H162       -2.2747  -22.3067  -40.6297 H         1 UNK         0.0600 
    163 H163       -3.1531  -20.8347  -40.2550 H         1 UNK         0.0600 
    164 H164       -1.9939  -18.8270  -41.2012 H         1 UNK         0.3000 
    165 H165       -0.7000  -16.6302  -43.6035 H         1 UNK         0.0600 
    166 H166       -2.5568  -15.1337  -43.0413 H         1 UNK         0.0600 
    167 H167       -3.1795  -16.4391  -44.0280 H         1 UNK         0.0600 
    168 H168       -3.4582  -16.4496  -42.2908 H         1 UNK         0.0600 
    169 H169       -1.3055  -15.9303  -41.0360 H         1 UNK         0.3000 
    170 H170        0.0387  -17.1755  -38.8492 H         1 UNK         0.0600 
    171 H171        2.2757  -18.1397  -39.2504 H         1 UNK         0.0600 
    172 H172        2.8188  -16.6582  -40.0303 H         1 UNK         0.0600 
    173 H173        2.4321  -16.6667  -38.3098 H         1 UNK         0.0600 
    174 H174        1.2284  -14.7065  -40.0193 H         1 UNK         0.3000 
    175 H175       -1.4679  -12.6901  -39.0947 H         1 UNK         0.0600 
    176 H176        1.2637  -12.7305  -37.6998 H         1 UNK         0.0600 
    177 H177        0.1819  -11.3420  -37.8204 H         1 UNK         0.0600 
    178 H178       -0.2974  -12.7508  -36.8884 H         1 UNK         0.0600 
    179 H179        1.1410  -12.0702  -40.0820 H         1 UNK         0.3000 
    180 H180        0.9492  -11.2073  -42.4957 H         1 UNK         0.0600 
    181 H181        1.9544  -14.1183  -42.6537 H         1 UNK         0.0600 
    182 H182        2.6709  -12.8363  -41.6869 H         1 UNK         0.0600 
    183 H183        2.7514  -12.7566  -43.4348 H         1 UNK         0.0600 
    184 H184       -0.7439  -13.0791  -43.7875 H         1 UNK         0.3000 
    185 H185       -0.9964  -13.3179  -46.0229 H         1 UNK         0.0600 
    186 H186       -2.2317  -11.2127  -45.4907 H         1 UNK         0.0600 
    187 H187       -1.2395  -10.3213  -46.6379 H         1 UNK         0.0600 
    188 H188       -2.3328  -11.5849  -47.2042 H         1 UNK         0.0600 
    189 H189        0.1288  -11.6918  -48.1355 H         1 UNK         0.3000 
    190 H190       -2.1113  -20.3195  -45.6452 H         1 UNK         0.3000 
    191 H191       -4.3341  -21.2432  -47.0347 H         1 UNK         0.0600 
    192 H192       -4.2059  -19.0756  -45.8345 H         1 UNK         0.0600 
    193 H193       -5.6379  -19.9730  -45.3535 H         1 UNK         0.0600 
    194 H194       -4.2466  -19.9068  -44.2821 H         1 UNK         0.0600 
    195 H195       -2.8659  -22.6965  -44.2121 H         1 UNK         0.3000 
    196 H196       -5.0796  -24.7134  -44.0176 H         1 UNK         0.0600 
    197 H197       -2.8816  -24.0765  -41.9848 H         1 UNK         0.0600 
    198 H198       -4.2135  -25.2039  -41.7821 H         1 UNK         0.0600 
    199 H199       -4.5392  -23.4789  -41.8770 H         1 UNK         0.0600 
    200 H200       -1.5766  -24.1407  -44.4108 H         1 UNK         0.3000 
    201 H201       -0.7301  -26.8108  -44.3120 H         1 UNK         0.0600 
    202 H202        0.7567  -24.8706  -43.9595 H         1 UNK         0.0600 
    203 H203        0.5754  -24.3836  -45.6419 H         1 UNK         0.0600 
    204 H204        1.3939  -25.8871  -45.2430 H         1 UNK         0.0600 
    205 H205       -1.9738  -24.9983  -47.1081 H         1 UNK         0.3000 
    206 H206       -2.0531  -27.4724  -48.6907 H         1 UNK         0.0600 
    207 H207        0.2437  -26.6493  -49.2064 H         1 UNK         0.0600 
    208 H208       -0.7913  -26.4822  -50.6139 H         1 UNK         0.0600 
    209 H209       -0.3988  -25.0680  -49.6459 H         1 UNK         0.0600 
    210 H210       -2.8894  -24.0695  -48.2858 H         1 UNK         0.3000 
    211 H211       -4.4759  -22.7543  -48.9602 H         1 UNK         0.0600 
    212 H212       -6.0675  -25.1786  -49.9372 H         1 UNK         0.0600 
    213 H213       -6.6974  -23.5761  -49.5900 H         1 UNK         0.0600 
    214 H214       -6.0678  -24.5638  -48.2832 H         1 UNK         0.0600 
    215 H215       -2.2645  -23.5737  -50.7833 H         1 UNK         0.3000 
    216 H216       -3.1666  -23.6100  -53.4693 H         1 UNK         0.0600 
    217 H217       -0.7601  -23.1623  -54.0089 H         1 UNK         0.0600 
    218 H218       -0.9538  -24.4583  -52.8372 H         1 UNK         0.0600 
    219 H219       -0.4421  -22.8602  -52.3065 H         1 UNK         0.0600 
    220 H220       -2.1967  -20.8611  -51.3729 H         1 UNK         0.3000 
    221 H221       -2.3451  -18.8598  -53.4029 H         1 UNK         0.0600 
    222 H222       -2.7519  -18.5236  -50.3904 H         1 UNK         0.0600 
    223 H223       -1.1763  -18.5940  -51.1795 H         1 UNK         0.0600 
    224 H224       -2.2823  -17.2779  -51.5377 H         1 UNK         0.0600 
    225 H225       -4.7925  -20.2797  -51.2489 H         1 UNK         0.3000 
    226 H226       -6.9285  -18.4493  -51.8963 H         1 UNK         0.0600 
    227 H227       -6.8968  -19.7733  -49.7855 H         1 UNK         0.0600 
    228 H228       -8.3436  -20.1129  -50.7221 H         1 UNK         0.0600 
    229 H229       -7.0244  -21.2727  -50.7045 H         1 UNK         0.0600 
    230 H230       -5.7077  -21.4594  -53.2851 H         1 UNK         0.3000 
    231 H231       -7.8013  -21.7166  -55.3027 H         1 UNK         0.0600 
    232 H232       -6.6059  -23.6915  -54.3174 H         1 UNK         0.0600 
    233 H233       -5.0936  -23.1224  -55.0194 H         1 UNK         0.0600 
    234 H234       -6.4200  -23.6161  -56.0620 H         1 UNK         0.0600 
    235 H235       -5.5501  -19.3851  -54.9916 H         1 UNK         0.3000 
    236 H236       -4.6044  -17.8580  -56.2395 H         1 UNK         0.0600 
    237 H237       -5.5181  -17.2893  -58.4440 H         1 UNK         0.0600 
    238 H238       -6.2545  -18.8760  -58.6093 H         1 UNK         0.0600 
    239 H239       -6.8356  -17.7518  -57.3809 H         1 UNK         0.0600 
    240 H240       -3.3368  -20.4966  -55.9894 H         1 UNK         0.3000 
    241 H241       -1.4907  -21.5204  -56.4852 H         1 UNK         0.0600 
    242 H242       -3.7685  -21.7863  -58.5887 H         1 UNK         0.3800 
    243 H243       -2.9379  -22.6113  -59.8853 H         1 UNK         0.3800 
    244 H244       -0.6255  -19.0311  -58.0231 H         1 UNK         0.0800 
    245 H245        0.4366  -20.2858  -57.4494 H         1 UNK         0.0800 
    246 H246        0.8299  -20.8747  -54.9296 H         1 UNK         0.0800 
    247 H247        1.9329  -19.6141  -55.4414 H         1 UNK         0.0800 
@<TRIPOS>BOND
     1    1    2 1    
     2    1  127 1    
     3    1  128 1    
     4    1  129 1    
     5    2    3 2    
     6    2    4 am   BACKBONE|DICT|INTERRES
     7    4    5 1    
     8    4  130 1    
     9    5    6 1    
    10    5   65 1    
    11    5  131 1    
    12    6    7 1    
    13    6  132 1    
    14    6  133 1    
    15    7    8 1    
    16    8    9 1    
    17    8  134 1    
    18    8  135 1    
    19    9   10 ar   
    20    9   14 ar   
    21   10   11 ar   
    22   10  136 1    
    23   11   12 ar   
    24   11  126 1    
    25   12   13 ar   
    26   12  137 1    
    27   13   14 ar   
    28   13   15 1    
    29   14  138 1    
    30   15   16 1    
    31   15  139 1    
    32   15  140 1    
    33   16   17 1    
    34   17   18 1    
    35   17  141 1    
    36   17  142 1    
    37   18   19 1    
    38   18   67 1    
    39   18  143 1    
    40   19   20 am   BACKBONE|DICT|INTERRES
    41   19  144 1    
    42   20   21 2    
    43   20   22 1    
    44   22   23 1    
    45   22   24 1    
    46   22  145 1    
    47   23  146 1    
    48   23  147 1    
    49   23  148 1    
    50   24   25 am   BACKBONE|DICT|INTERRES
    51   24  149 1    
    52   25   26 2    
    53   25   27 1    
    54   27   28 1    
    55   27   29 1    
    56   27  150 1    
    57   28  151 1    
    58   28  152 1    
    59   28  153 1    
    60   29   30 am   BACKBONE|DICT|INTERRES
    61   29  154 1    
    62   30   31 2    
    63   30   32 1    
    64   32   33 1    
    65   32   34 1    
    66   32  155 1    
    67   33  156 1    
    68   33  157 1    
    69   33  158 1    
    70   34   35 am   BACKBONE|DICT|INTERRES
    71   34  159 1    
    72   35   36 2    
    73   35   37 1    
    74   37   38 1    
    75   37   39 1    
    76   37  160 1    
    77   38  161 1    
    78   38  162 1    
    79   38  163 1    
    80   39   40 am   BACKBONE|DICT|INTERRES
    81   39  164 1    
    82   40   41 2    
    83   40   42 1    
    84   42   43 1    
    85   42   44 1    
    86   42  165 1    
    87   43  166 1    
    88   43  167 1    
    89   43  168 1    
    90   44   45 am   BACKBONE|DICT|INTERRES
    91   44  169 1    
    92   45   46 2    
    93   45   47 1    
    94   47   48 1    
    95   47   49 1    
    96   47  170 1    
    97   48  171 1    
    98   48  172 1    
    99   48  173 1    
   100   49   50 am   BACKBONE|DICT|INTERRES
   101   49  174 1    
   102   50   51 2    
   103   50   52 1    
   104   52   53 1    
   105   52   54 1    
   106   52  175 1    
   107   53  176 1    
   108   53  177 1    
   109   53  178 1    
   110   54   55 am   BACKBONE|DICT|INTERRES
   111   54  179 1    
   112   55   56 2    
   113   55   57 1    
   114   57   58 1    
   115   57   59 1    
   116   57  180 1    
   117   58  181 1    
   118   58  182 1    
   119   58  183 1    
   120   59   60 am   BACKBONE|DICT|INTERRES
   121   59  184 1    
   122   60   61 2    
   123   60   62 1    
   124   62   63 1    
   125   62   64 1    
   126   62  185 1    
   127   63  186 1    
   128   63  187 1    
   129   63  188 1    
   130   64   65 am   BACKBONE|DICT|INTERRES
   131   64  189 1    
   132   65   66 2    
   133   67   68 2    
   134   67   69 am   BACKBONE|DICT|INTERRES
   135   69   70 1    
   136   69  190 1    
   137   70   71 1    
   138   70   72 1    
   139   70  191 1    
   140   71  192 1    
   141   71  193 1    
   142   71  194 1    
   143   72   73 2    
   144   72   74 am   BACKBONE|DICT|INTERRES
   145   74   75 1    
   146   74  195 1    
   147   75   76 1    
   148   75   77 1    
   149   75  196 1    
   150   76  197 1    
   151   76  198 1    
   152   76  199 1    
   153   77   78 2    
   154   77   79 am   BACKBONE|DICT|INTERRES
   155   79   80 1    
   156   79  200 1    
   157   80   81 1    
   158   80   82 1    
   159   80  201 1    
   160   81  202 1    
   161   81  203 1    
   162   81  204 1    
   163   82   83 2    
   164   82   84 am   BACKBONE|DICT|INTERRES
   165   84   85 1    
   166   84  205 1    
   167   85   86 1    
   168   85   87 1    
   169   85  206 1    
   170   86  207 1    
   171   86  208 1    
   172   86  209 1    
   173   87   88 2    
   174   87   89 am   BACKBONE|DICT|INTERRES
   175   89   90 1    
   176   89  210 1    
   177   90   91 1    
   178   90   92 1    
   179   90  211 1    
   180   91  212 1    
   181   91  213 1    
   182   91  214 1    
   183   92   93 2    
   184   92   94 am   BACKBONE|DICT|INTERRES
   185   94   95 1    
   186   94  215 1    
   187   95   96 1    
   188   95   97 1    
   189   95  216 1    
   190   96  217 1    
   191   96  218 1    
   192   96  219 1    
   193   97   98 2    
   194   97   99 am   BACKBONE|DICT|INTERRES
   195   99  100 1    
   196   99  220 1    
   197  100  101 1    
   198  100  102 1    
   199  100  221 1    
   200  101  222 1    
   201  101  223 1    
   202  101  224 1    
   203  102  103 2    
   204  102  104 am   BACKBONE|DICT|INTERRES
   205  104  105 1    
   206  104  225 1    
   207  105  106 1    
   208  105  107 1    
   209  105  226 1    
   210  106  227 1    
   211  106  228 1    
   212  106  229 1    
   213  107  108 2    
   214  107  109 am   BACKBONE|DICT|INTERRES
   215  109  110 1    
   216  109  230 1    
   217  110  111 1    
   218  110  112 1    
   219  110  231 1    
   220  111  232 1    
   221  111  233 1    
   222  111  234 1    
   223  112  113 2    
   224  112  114 am   BACKBONE|DICT|INTERRES
   225  114  115 1    
   226  114  235 1    
   227  115  116 1    
   228  115  117 1    
   229  115  236 1    
   230  116  237 1    
   231  116  238 1    
   232  116  239 1    
   233  117  118 2    
   234  117  119 am   BACKBONE|DICT|INTERRES
   235  119  120 1    
   236  119  240 1    
   237  120  121 1    
   238  120  124 1    
   239  120  241 1    
   240  121  122 am   BACKBONE|DICT|INTERRES
   241  121  123 2    
   242  122  242 1    
   243  122  243 1    
   244  124  125 1    
   245  124  244 1    
   246  124  245 1    
   247  125  126 1    
   248  126  246 1    
   249  126  247 1    
@<TRIPOS>SUBSTRUCTURE
     1 UNK         1 GROUP             0       ****    0 ROOT    
