@<TRIPOS>MOLECULE
3R540
247   249    1
SMALL
USER_CHARGES


@<TRIPOS>ATOM
      1 CA          4.1321   -7.1789  -47.6838 C.3       0 UNK        -0.1800 
      2 C           3.7021   -8.6391  -47.6991 C.2       0 UNK         0.5000 
      3 O           2.5596   -8.9418  -47.3561 O.2       0 UNK        -0.5000 
      4 N           4.6136   -9.5382  -48.0966 N.am      1 UNK        -0.5000 
      5 CA          4.4249  -10.9934  -48.1672 C.3       1 UNK         0.1400 
      6 C6          3.3598  -11.4171  -49.2156 C.3       23 UNK        -0.0398 
      7 S7          3.6660  -13.0896  -49.8818 S.3       23 UNK        -0.2404 
      8 C8          2.1292  -13.9351  -49.4013 C.3       23 UNK        -0.0205 
      9 C9          2.1659  -15.4089  -49.7680 C.ar      23 UNK        -0.0193 
     10 C10         2.0414  -15.7996  -51.1021 C.ar      23 UNK        -0.1150 
     11 C11         2.0420  -17.1526  -51.4483 C.ar      23 UNK        -0.0193 
     12 C12         2.1790  -18.1178  -50.4465 C.ar      23 UNK        -0.1150 
     13 C13         2.3007  -17.7452  -49.0998 C.ar      23 UNK        -0.0193 
     14 C14         2.2984  -16.3844  -48.7764 C.ar      23 UNK        -0.1150 
     15 C15         2.4024  -18.7538  -47.9515 C.3       23 UNK        -0.0205 
     16 S16         2.6947  -20.4958  -48.4140 S.3       23 UNK        -0.2404 
     17 C17         1.0649  -21.0311  -49.0420 C.3       23 UNK        -0.0398 
     18 CA          0.2998  -21.8860  -48.0056 C.3       11 UNK         0.1400 
     19 N          -0.2787  -21.0733  -46.9331 N.am      11 UNK        -0.5000 
     20 C          -0.7885  -21.5670  -45.7970 C.2       10 UNK         0.5000 
     21 O          -0.8092  -22.7650  -45.5159 O.2       10 UNK        -0.5000 
     22 CA         -1.4257  -20.5468  -44.8400 C.3       10 UNK         0.1400 
     23 CB         -0.3411  -19.8036  -44.0500 C.3       10 UNK        -0.1800 
     24 N          -2.2679  -19.5848  -45.5536 N.am      10 UNK        -0.5000 
     25 C          -3.4337  -19.9099  -46.1332 C.2       9 UNK         0.5000 
     26 O          -3.9150  -21.0408  -46.1050 O.2       9 UNK        -0.5000 
     27 CA         -4.1691  -18.8142  -46.9235 C.3       9 UNK         0.1400 
     28 CB         -5.1484  -18.0539  -46.0209 C.3       9 UNK        -0.1800 
     29 N          -3.2654  -17.8712  -47.5829 N.am      9 UNK        -0.5000 
     30 C          -2.3905  -18.2071  -48.5425 C.2       8 UNK         0.5000 
     31 O          -2.2978  -19.3436  -49.0061 O.2       8 UNK        -0.5000 
     32 CA         -1.4304  -17.1145  -49.0473 C.3       8 UNK         0.1400 
     33 CB         -1.9346  -16.5286  -50.3742 C.3       8 UNK        -0.1800 
     34 N          -1.1836  -16.0244  -48.0972 N.am      8 UNK        -0.5000 
     35 C          -0.6706  -16.1620  -46.8657 C.2       7 UNK         0.5000 
     36 O          -0.4043  -17.2547  -46.3601 O.2       7 UNK        -0.5000 
     37 CA         -0.4196  -14.8769  -46.0465 C.3       7 UNK         0.1400 
     38 CB         -0.9128  -13.5786  -46.7239 C.3       7 UNK        -0.1800 
     39 N          -0.9641  -14.9871  -44.6906 N.am      7 UNK        -0.5000 
     40 C          -2.2364  -15.2501  -44.3492 C.2       6 UNK         0.5000 
     41 O          -3.1459  -15.3767  -45.1702 O.2       6 UNK        -0.5000 
     42 CA         -2.5547  -15.4242  -42.8484 C.3       6 UNK         0.1400 
     43 CB         -3.1917  -16.7974  -42.5775 C.3       6 UNK        -0.1800 
     44 N          -1.3687  -15.2904  -42.0001 N.am      6 UNK        -0.5000 
     45 C          -0.9610  -14.1531  -41.4218 C.2       5 UNK         0.5000 
     46 O          -1.5686  -13.0851  -41.5014 O.2       5 UNK        -0.5000 
     47 CA          0.3673  -14.2175  -40.6409 C.3       5 UNK         0.1400 
     48 CB          0.1043  -14.5188  -39.1575 C.3       5 UNK        -0.1800 
     49 N           1.3168  -15.2040  -41.1712 N.am      5 UNK        -0.5000 
     50 C           1.8819  -15.1347  -42.3828 C.2       4 UNK         0.5000 
     51 O           1.6325  -14.2488  -43.2051 O.2       4 UNK        -0.5000 
     52 CA          2.8526  -16.2595  -42.7602 C.3       4 UNK         0.1400 
     53 CB          2.0915  -17.4685  -43.3262 C.3       4 UNK        -0.1800 
     54 N           3.7601  -15.7315  -43.7667 N.am      4 UNK        -0.5000 
     55 C           4.9848  -16.1826  -44.0546 C.2       3 UNK         0.5000 
     56 O           5.4903  -17.1786  -43.5360 O.2       3 UNK        -0.5000 
     57 CA          5.7862  -15.3676  -45.0877 C.3       3 UNK         0.1400 
     58 CB          5.6301  -15.9740  -46.4910 C.3       3 UNK        -0.1800 
     59 N           5.3716  -13.9638  -45.1313 N.am      3 UNK        -0.5000 
     60 C           5.6543  -13.0396  -44.2043 C.2       2 UNK         0.5000 
     61 O           6.3726  -13.2647  -43.2288 O.2       2 UNK        -0.5000 
     62 CA          5.0296  -11.6371  -44.4034 C.3       2 UNK         0.1400 
     63 CB          5.7079  -10.5592  -43.5385 C.3       2 UNK        -0.1800 
     64 N           5.0362  -11.1869  -45.7994 N.am      2 UNK        -0.5000 
     65 C           4.2128  -11.6144  -46.7663 C.2       1 UNK         0.5000 
     66 O           3.3461  -12.4687  -46.5744 O.2       1 UNK        -0.5000 
     67 C          -0.7712  -22.7622  -48.6833 C.2       11 UNK         0.5000 
     68 O          -0.5218  -23.9444  -48.9176 O.2       11 UNK        -0.5000 
     69 N          -1.9569  -22.1932  -48.9425 N.am      12 UNK        -0.5000 
     70 CA         -3.0966  -22.9140  -49.5066 C.3       12 UNK         0.1400 
     71 CB         -4.1995  -21.9224  -49.8923 C.3       12 UNK        -0.1800 
     72 C          -3.6476  -23.9974  -48.5637 C.2       12 UNK         0.5000 
     73 O          -4.0459  -25.0595  -49.0430 O.2       12 UNK        -0.5000 
     74 N          -3.6611  -23.7268  -47.2511 N.am      13 UNK        -0.5000 
     75 CA         -4.0357  -24.6926  -46.2174 C.3       13 UNK         0.1400 
     76 CB         -4.2327  -23.9796  -44.8722 C.3       13 UNK        -0.1800 
     77 C          -3.0106  -25.8321  -46.0891 C.2       13 UNK         0.5000 
     78 O          -3.4124  -26.9912  -45.9955 O.2       13 UNK        -0.5000 
     79 N          -1.7123  -25.4980  -46.1417 N.am      14 UNK        -0.5000 
     80 CA         -0.6047  -26.4599  -46.1439 C.3       14 UNK         0.1400 
     81 CB          0.7301  -25.7107  -46.0172 C.3       14 UNK        -0.1800 
     82 C          -0.6046  -27.3731  -47.3861 C.2       14 UNK         0.5000 
     83 O          -0.2928  -28.5587  -47.2716 O.2       14 UNK        -0.5000 
     84 N          -1.0016  -26.8157  -48.5380 N.am      15 UNK        -0.5000 
     85 CA         -1.2223  -27.5341  -49.7952 C.3       15 UNK         0.1400 
     86 CB         -1.2258  -26.5152  -50.9465 C.3       15 UNK        -0.1800 
     87 C          -2.5226  -28.3679  -49.8147 C.2       15 UNK         0.5000 
     88 O          -2.7247  -29.1326  -50.7585 O.2       15 UNK        -0.5000 
     89 N          -3.3836  -28.1932  -48.7995 N.am      16 UNK        -0.5000 
     90 CA         -4.7068  -28.8030  -48.6197 C.3       16 UNK         0.1400 
     91 CB         -4.6008  -30.3366  -48.4870 C.3       16 UNK        -0.1800 
     92 C          -5.7430  -28.3588  -49.6752 C.2       16 UNK         0.5000 
     93 O          -6.7315  -29.0600  -49.8983 O.2       16 UNK        -0.5000 
     94 N          -5.5113  -27.1936  -50.2919 N.am      17 UNK        -0.5000 
     95 CA         -6.4095  -26.5610  -51.2541 C.3       17 UNK         0.1400 
     96 CB         -5.5728  -25.7857  -52.2852 C.3       17 UNK        -0.1800 
     97 C          -7.3956  -25.6184  -50.5466 C.2       17 UNK         0.5000 
     98 O          -8.5747  -25.5963  -50.8981 O.2       17 UNK        -0.5000 
     99 N          -6.8799  -24.8502  -49.5726 N.am      18 UNK        -0.5000 
    100 CA        -7.5728  -23.8608  -48.7328 C.3       18 UNK         0.1400 
    101 CB        -8.5781  -24.5627  -47.7981 C.3       18 UNK        -0.1800 
    102 C         -8.2123  -22.6812  -49.5060 C.2       18 UNK         0.5000 
    103 O         -9.0386  -21.9606  -48.9455 O.2       18 UNK        -0.5000 
    104 N         -7.8139  -22.4903  -50.7716 N.am      19 UNK        -0.5000 
    105 CA        -8.3577  -21.4849  -51.6885 C.3       19 UNK         0.1400 
    106 CB        -8.0112  -21.9045  -53.1263 C.3       19 UNK        -0.1800 
    107 C         -7.8555  -20.0525  -51.4209 C.2       19 UNK         0.5000 
    108 O         -8.4840  -19.1016  -51.8863 O.2       19 UNK        -0.5000 
    109 N         -6.7267  -19.9313  -50.7050 N.am      20 UNK        -0.5000 
    110 CA        -5.9948  -18.6945  -50.4025 C.3       20 UNK         0.1400 
    111 CB        -6.8027  -17.7902  -49.4497 C.3       20 UNK        -0.1800 
    112 C         -5.4961  -17.9658  -51.6671 C.2       20 UNK         0.5000 
    113 O         -5.5460  -16.7371  -51.7427 O.2       20 UNK        -0.5000 
    114 N         -5.0155  -18.7534  -52.6342 N.am      21 UNK        -0.5000 
    115 CA        -4.4251  -18.3041  -53.8871 C.3       21 UNK         0.1400 
    116 CB        -5.4441  -18.4930  -55.0224 C.3       21 UNK        -0.1800 
    117 C         -3.1559  -19.1270  -54.1415 C.2       21 UNK         0.5000 
    118 O         -3.0780  -20.2819  -53.7133 O.2       21 UNK        -0.5000 
    119 N         -2.1922  -18.5153  -54.8342 N.am      22 UNK        -0.5000 
    120 CA        -0.8643  -19.0886  -55.1168 C.3       22 UNK         0.1400 
    121 C         -0.8063  -19.9748  -56.3960 C.2       22 UNK         0.5000 
    122 N         -1.8783  -20.1064  -57.1678 N.am      22 UNK        -0.7600 
    123 O          0.2300  -20.5645  -56.6896 O.2       22 UNK        -0.5000 
    124 C124        0.2257  -17.9859  -55.1458 C.3       23 UNK        -0.0398 
    125 S125        0.2854  -17.0469  -53.5805 S.3       23 UNK        -0.2404 
    126 C126        1.8908  -17.5709  -52.9033 C.3       23 UNK        -0.0205 
    127 H127        5.1629   -7.0552  -48.0167 H         1 UNK         0.0600 
    128 H128        4.0501   -6.7747  -46.6748 H         1 UNK         0.0600 
    129 H129        3.4901   -6.5920  -48.3406 H         1 UNK         0.0600 
    130 H130        5.5307   -9.2106  -48.3683 H         1 UNK         0.3000 
    131 H131        5.3883  -11.3754  -48.5091 H         1 UNK         0.0600 
    132 H132        2.3496  -11.3357  -48.8104 H         1 UNK         0.0800 
    133 H133        3.3895  -10.7355  -50.0666 H         1 UNK         0.0800 
    134 H134        1.9678  -13.8169  -48.3296 H         1 UNK         0.0800 
    135 H135        1.2824  -13.4586  -49.8974 H         1 UNK         0.0800 
    136 H136        1.9339  -15.0489  -51.8726 H         1 UNK         0.1150 
    137 H137        2.1810  -19.1582  -50.7317 H         1 UNK         0.1150 
    138 H138        2.3824  -16.0836  -47.7418 H         1 UNK         0.1150 
    139 H139        3.2214  -18.4491  -47.2980 H         1 UNK         0.0800 
    140 H140        1.4981  -18.6998  -47.3469 H         1 UNK         0.0800 
    141 H141        1.2598  -21.6060  -49.9496 H         1 UNK         0.0800 
    142 H142        0.4679  -20.1720  -49.3520 H         1 UNK         0.0800 
    143 H143        1.0109  -22.5761  -47.5457 H         1 UNK         0.0600 
    144 H144       -0.3323  -20.0781  -47.0909 H         1 UNK         0.3000 
    145 H145       -2.0514  -21.0924  -44.1304 H         1 UNK         0.0600 
    146 H146       -0.7749  -19.0910  -43.3499 H         1 UNK         0.0600 
    147 H147        0.2655  -20.5005  -43.4704 H         1 UNK         0.0600 
    148 H148        0.3314  -19.2596  -44.7129 H         1 UNK         0.0600 
    149 H149       -1.8936  -18.6512  -45.6794 H         1 UNK         0.3000 
    150 H150       -4.7532  -19.3182  -47.6925 H         1 UNK         0.0600 
    151 H151       -5.8818  -18.7321  -45.5831 H         1 UNK         0.0600 
    152 H152       -5.6975  -17.2950  -46.5780 H         1 UNK         0.0600 
    153 H153       -4.6317  -17.5584  -45.2014 H         1 UNK         0.0600 
    154 H154       -3.2538  -16.9255  -47.2242 H         1 UNK         0.3000 
    155 H155       -0.4753  -17.6034  -49.2386 H         1 UNK         0.0600 
    156 H156       -2.8777  -15.9954  -50.2483 H         1 UNK         0.0600 
    157 H157       -2.0978  -17.3152  -51.1129 H         1 UNK         0.0600 
    158 H158       -1.2076  -15.8366  -50.8001 H         1 UNK         0.0600 
    159 H159       -1.3994  -15.0937  -48.4223 H         1 UNK         0.3000 
    160 H160        0.6631  -14.7993  -45.9353 H         1 UNK         0.0600 
    161 H161       -1.9909  -13.5839  -46.8887 H         1 UNK         0.0600 
    162 H162       -0.4267  -13.4203  -47.6868 H         1 UNK         0.0600 
    163 H163       -0.6793  -12.7103  -46.1076 H         1 UNK         0.0600 
    164 H164       -0.2843  -14.8754  -43.9492 H         1 UNK         0.3000 
    165 H165       -3.2851  -14.6581  -42.5807 H         1 UNK         0.0600 
    166 H166       -3.3422  -16.9614  -41.5103 H         1 UNK         0.0600 
    167 H167       -4.1708  -16.8708  -43.0501 H         1 UNK         0.0600 
    168 H168       -2.5780  -17.6126  -42.9604 H         1 UNK         0.0600 
    169 H169       -0.8063  -16.1192  -41.8748 H         1 UNK         0.3000 
    170 H170        0.8347  -13.2329  -40.7109 H         1 UNK         0.0600 
    171 H171       -0.5801  -13.7873  -38.7256 H         1 UNK         0.0600 
    172 H172       -0.3398  -15.5054  -39.0192 H         1 UNK         0.0600 
    173 H173        1.0263  -14.4802  -38.5771 H         1 UNK         0.0600 
    174 H174        1.5641  -15.9652  -40.5548 H         1 UNK         0.3000 
    175 H175        3.4198  -16.5527  -41.8743 H         1 UNK         0.0600 
    176 H176        1.5087  -17.1953  -44.2071 H         1 UNK         0.0600 
    177 H177        2.7725  -18.2700  -43.6127 H         1 UNK         0.0600 
    178 H178        1.4034  -17.8778  -42.5861 H         1 UNK         0.0600 
    179 H179        3.4289  -14.8820  -44.2072 H         1 UNK         0.3000 
    180 H180        6.8403  -15.4130  -44.8065 H         1 UNK         0.0600 
    181 H181        6.2430  -15.4442  -47.2205 H         1 UNK         0.0600 
    182 H182        4.5958  -15.9348  -46.8326 H         1 UNK         0.0600 
    183 H183        5.9408  -17.0196  -46.5032 H         1 UNK         0.0600 
    184 H184        4.7356  -13.6939  -45.8742 H         1 UNK         0.3000 
    185 H185        3.9905  -11.7132  -44.0755 H         1 UNK         0.0600 
    186 H186        5.6502  -10.8100  -42.4785 H         1 UNK         0.0600 
    187 H187        6.7621  -10.4445  -43.7936 H         1 UNK         0.0600 
    188 H188        5.2242   -9.5903  -43.6647 H         1 UNK         0.0600 
    189 H189        5.7347  -10.4985  -46.0395 H         1 UNK         0.3000 
    190 H190       -2.0812  -21.1975  -48.7758 H         1 UNK         0.3000 
    191 H191       -2.7580  -23.4106  -50.4182 H         1 UNK         0.0600 
    192 H192       -3.8214  -21.1675  -50.5824 H         1 UNK         0.0600 
    193 H193       -5.0180  -22.4391  -50.3920 H         1 UNK         0.0600 
    194 H194       -4.6028  -21.4128  -49.0167 H         1 UNK         0.0600 
    195 H195       -3.3960  -22.8017  -46.9293 H         1 UNK         0.3000 
    196 H196       -4.9914  -25.1383  -46.5024 H         1 UNK         0.0600 
    197 H197       -4.4988  -24.6894  -44.0879 H         1 UNK         0.0600 
    198 H198       -5.0370  -23.2463  -44.9312 H         1 UNK         0.0600 
    199 H199       -3.3285  -23.4603  -44.5536 H         1 UNK         0.0600 
    200 H200       -1.4587  -24.5146  -46.1650 H         1 UNK         0.3000 
    201 H201       -0.7191  -27.0986  -45.2657 H         1 UNK         0.0600 
    202 H202        0.7642  -25.1183  -45.1028 H         1 UNK         0.0600 
    203 H203        0.8961  -25.0373  -46.8580 H         1 UNK         0.0600 
    204 H204        1.5679  -26.4082  -45.9846 H         1 UNK         0.0600 
    205 H205       -1.1527  -25.8120  -48.5600 H         1 UNK         0.3000 
    206 H206       -0.3899  -28.2232  -49.9507 H         1 UNK         0.0600 
    207 H207       -0.2950  -25.9484  -50.9750 H         1 UNK         0.0600 
    208 H208       -1.3323  -27.0120  -51.9116 H         1 UNK         0.0600 
    209 H209       -2.0474  -25.8050  -50.8513 H         1 UNK         0.0600 
    210 H210       -3.1180  -27.5447  -48.0688 H         1 UNK         0.3000 
    211 H211       -5.0796  -28.4223  -47.6682 H         1 UNK         0.0600 
    212 H212       -4.3172  -30.8080  -49.4281 H         1 UNK         0.0600 
    213 H213       -5.5538  -30.7694  -48.1810 H         1 UNK         0.0600 
    214 H214       -3.8633  -30.6163  -47.7346 H         1 UNK         0.0600 
    215 H215       -4.7073  -26.6504  -49.9945 H         1 UNK         0.3000 
    216 H216       -6.9840  -27.3232  -51.7850 H         1 UNK         0.0600 
    217 H217       -4.9050  -26.4546  -52.8285 H         1 UNK         0.0600 
    218 H218       -4.9601  -25.0143  -51.8167 H         1 UNK         0.0600 
    219 H219       -6.2129  -25.2974  -53.0213 H         1 UNK         0.0600 
    220 H220       -5.8917  -24.9715  -49.3691 H         1 UNK         0.3000 
    221 H221       -6.8024  -23.4141  -48.1026 H         1 UNK         0.0600 
    222 H222       -9.4150  -24.9890  -48.3519 H         1 UNK         0.0600 
    223 H223       -8.1000  -25.3679  -47.2402 H         1 UNK         0.0600 
    224 H224       -8.9905  -23.8657  -47.0677 H         1 UNK         0.0600 
    225 H225       -7.1587  -23.1491  -51.1635 H         1 UNK         0.3000 
    226 H226       -9.4451  -21.4759  -51.5871 H         1 UNK         0.0600 
    227 H227       -8.4187  -22.8887  -53.3590 H         1 UNK         0.0600 
    228 H228       -8.4275  -21.2030  -53.8506 H         1 UNK         0.0600 
    229 H229       -6.9329  -21.9401  -53.2876 H         1 UNK         0.0600 
    230 H230       -6.3074  -20.7847  -50.3700 H         1 UNK         0.3000 
    231 H231       -5.0898  -18.9990  -49.8800 H         1 UNK         0.0600 
    232 H232       -6.2017  -16.9449  -49.1121 H         1 UNK         0.0600 
    233 H233       -7.1208  -18.3373  -48.5624 H         1 UNK         0.0600 
    234 H234       -7.6934  -17.3865  -49.9316 H         1 UNK         0.0600 
    235 H235       -4.9453  -19.7492  -52.4749 H         1 UNK         0.3000 
    236 H236       -4.1470  -17.2499  -53.8198 H         1 UNK         0.0600 
    237 H237       -6.3503  -17.9163  -54.8356 H         1 UNK         0.0600 
    238 H238       -5.0359  -18.1580  -55.9765 H         1 UNK         0.0600 
    239 H239       -5.7324  -19.5392  -55.1344 H         1 UNK         0.0600 
    240 H240       -2.3391  -17.5704  -55.1582 H         1 UNK         0.3000 
    241 H241       -0.6080  -19.7615  -54.2958 H         1 UNK         0.0600 
    242 H242       -1.8300  -20.6869  -57.9906 H         1 UNK         0.3800 
    243 H243       -2.7380  -19.6362  -56.9352 H         1 UNK         0.3800 
    244 H244        1.2088  -18.4164  -55.3440 H         1 UNK         0.0800 
    245 H245        0.0347  -17.2841  -55.9592 H         1 UNK         0.0800 
    246 H246        1.9857  -18.6536  -53.0011 H         1 UNK         0.0800 
    247 H247        2.6957  -17.1303  -53.4932 H         1 UNK         0.0800 
@<TRIPOS>BOND
     1    1    2 1    
     2    1  127 1    
     3    1  128 1    
     4    1  129 1    
     5    2    3 2    
     6    2    4 am   BACKBONE|DICT|INTERRES
     7    4    5 1    
     8    4  130 1    
     9    5    6 1    
    10    5   65 1    
    11    5  131 1    
    12    6    7 1    
    13    6  132 1    
    14    6  133 1    
    15    7    8 1    
    16    8    9 1    
    17    8  134 1    
    18    8  135 1    
    19    9   10 ar   
    20    9   14 ar   
    21   10   11 ar   
    22   10  136 1    
    23   11   12 ar   
    24   11  126 1    
    25   12   13 ar   
    26   12  137 1    
    27   13   14 ar   
    28   13   15 1    
    29   14  138 1    
    30   15   16 1    
    31   15  139 1    
    32   15  140 1    
    33   16   17 1    
    34   17   18 1    
    35   17  141 1    
    36   17  142 1    
    37   18   19 1    
    38   18   67 1    
    39   18  143 1    
    40   19   20 am   BACKBONE|DICT|INTERRES
    41   19  144 1    
    42   20   21 2    
    43   20   22 1    
    44   22   23 1    
    45   22   24 1    
    46   22  145 1    
    47   23  146 1    
    48   23  147 1    
    49   23  148 1    
    50   24   25 am   BACKBONE|DICT|INTERRES
    51   24  149 1    
    52   25   26 2    
    53   25   27 1    
    54   27   28 1    
    55   27   29 1    
    56   27  150 1    
    57   28  151 1    
    58   28  152 1    
    59   28  153 1    
    60   29   30 am   BACKBONE|DICT|INTERRES
    61   29  154 1    
    62   30   31 2    
    63   30   32 1    
    64   32   33 1    
    65   32   34 1    
    66   32  155 1    
    67   33  156 1    
    68   33  157 1    
    69   33  158 1    
    70   34   35 am   BACKBONE|DICT|INTERRES
    71   34  159 1    
    72   35   36 2    
    73   35   37 1    
    74   37   38 1    
    75   37   39 1    
    76   37  160 1    
    77   38  161 1    
    78   38  162 1    
    79   38  163 1    
    80   39   40 am   BACKBONE|DICT|INTERRES
    81   39  164 1    
    82   40   41 2    
    83   40   42 1    
    84   42   43 1    
    85   42   44 1    
    86   42  165 1    
    87   43  166 1    
    88   43  167 1    
    89   43  168 1    
    90   44   45 am   BACKBONE|DICT|INTERRES
    91   44  169 1    
    92   45   46 2    
    93   45   47 1    
    94   47   48 1    
    95   47   49 1    
    96   47  170 1    
    97   48  171 1    
    98   48  172 1    
    99   48  173 1    
   100   49   50 am   BACKBONE|DICT|INTERRES
   101   49  174 1    
   102   50   51 2    
   103   50   52 1    
   104   52   53 1    
   105   52   54 1    
   106   52  175 1    
   107   53  176 1    
   108   53  177 1    
   109   53  178 1    
   110   54   55 am   BACKBONE|DICT|INTERRES
   111   54  179 1    
   112   55   56 2    
   113   55   57 1    
   114   57   58 1    
   115   57   59 1    
   116   57  180 1    
   117   58  181 1    
   118   58  182 1    
   119   58  183 1    
   120   59   60 am   BACKBONE|DICT|INTERRES
   121   59  184 1    
   122   60   61 2    
   123   60   62 1    
   124   62   63 1    
   125   62   64 1    
   126   62  185 1    
   127   63  186 1    
   128   63  187 1    
   129   63  188 1    
   130   64   65 am   BACKBONE|DICT|INTERRES
   131   64  189 1    
   132   65   66 2    
   133   67   68 2    
   134   67   69 am   BACKBONE|DICT|INTERRES
   135   69   70 1    
   136   69  190 1    
   137   70   71 1    
   138   70   72 1    
   139   70  191 1    
   140   71  192 1    
   141   71  193 1    
   142   71  194 1    
   143   72   73 2    
   144   72   74 am   BACKBONE|DICT|INTERRES
   145   74   75 1    
   146   74  195 1    
   147   75   76 1    
   148   75   77 1    
   149   75  196 1    
   150   76  197 1    
   151   76  198 1    
   152   76  199 1    
   153   77   78 2    
   154   77   79 am   BACKBONE|DICT|INTERRES
   155   79   80 1    
   156   79  200 1    
   157   80   81 1    
   158   80   82 1    
   159   80  201 1    
   160   81  202 1    
   161   81  203 1    
   162   81  204 1    
   163   82   83 2    
   164   82   84 am   BACKBONE|DICT|INTERRES
   165   84   85 1    
   166   84  205 1    
   167   85   86 1    
   168   85   87 1    
   169   85  206 1    
   170   86  207 1    
   171   86  208 1    
   172   86  209 1    
   173   87   88 2    
   174   87   89 am   BACKBONE|DICT|INTERRES
   175   89   90 1    
   176   89  210 1    
   177   90   91 1    
   178   90   92 1    
   179   90  211 1    
   180   91  212 1    
   181   91  213 1    
   182   91  214 1    
   183   92   93 2    
   184   92   94 am   BACKBONE|DICT|INTERRES
   185   94   95 1    
   186   94  215 1    
   187   95   96 1    
   188   95   97 1    
   189   95  216 1    
   190   96  217 1    
   191   96  218 1    
   192   96  219 1    
   193   97   98 2    
   194   97   99 am   BACKBONE|DICT|INTERRES
   195   99  100 1    
   196   99  220 1    
   197  100  101 1    
   198  100  102 1    
   199  100  221 1    
   200  101  222 1    
   201  101  223 1    
   202  101  224 1    
   203  102  103 2    
   204  102  104 am   BACKBONE|DICT|INTERRES
   205  104  105 1    
   206  104  225 1    
   207  105  106 1    
   208  105  107 1    
   209  105  226 1    
   210  106  227 1    
   211  106  228 1    
   212  106  229 1    
   213  107  108 2    
   214  107  109 am   BACKBONE|DICT|INTERRES
   215  109  110 1    
   216  109  230 1    
   217  110  111 1    
   218  110  112 1    
   219  110  231 1    
   220  111  232 1    
   221  111  233 1    
   222  111  234 1    
   223  112  113 2    
   224  112  114 am   BACKBONE|DICT|INTERRES
   225  114  115 1    
   226  114  235 1    
   227  115  116 1    
   228  115  117 1    
   229  115  236 1    
   230  116  237 1    
   231  116  238 1    
   232  116  239 1    
   233  117  118 2    
   234  117  119 am   BACKBONE|DICT|INTERRES
   235  119  120 1    
   236  119  240 1    
   237  120  121 1    
   238  120  124 1    
   239  120  241 1    
   240  121  122 am   BACKBONE|DICT|INTERRES
   241  121  123 2    
   242  122  242 1    
   243  122  243 1    
   244  124  125 1    
   245  124  244 1    
   246  124  245 1    
   247  125  126 1    
   248  126  246 1    
   249  126  247 1    
@<TRIPOS>SUBSTRUCTURE
     1 UNK         1 GROUP             0       ****    0 ROOT    
