@<TRIPOS>MOLECULE
3R540
247   249    1
SMALL
USER_CHARGES


@<TRIPOS>ATOM
      1 CA          1.6501  -10.1320  -46.1428 C.3       0 UNK        -0.1800 
      2 C           1.7154  -11.1485  -47.2741 C.2       0 UNK         0.5000 
      3 O           2.2753  -10.8552  -48.3310 O.2       0 UNK        -0.5000 
      4 N           1.1368  -12.3355  -47.0588 N.am      1 UNK        -0.5000 
      5 CA          1.1370  -13.4557  -48.0046 C.3       1 UNK         0.1400 
      6 C6          0.1408  -14.5615  -47.5895 C.3       23 UNK        -0.0398 
      7 S7         -1.5879  -13.9868  -47.4563 S.3       23 UNK        -0.2404 
      8 C8         -2.0961  -13.7495  -49.1936 C.3       23 UNK        -0.0205 
      9 C9         -1.6539  -14.8738  -50.1207 C.ar      23 UNK        -0.0193 
     10 C10        -0.8790  -14.5814  -51.2477 C.ar      23 UNK        -0.1150 
     11 C11        -0.4468  -15.6022  -52.0980 C.ar      23 UNK        -0.0193 
     12 C12        -0.7891  -16.9243  -51.8063 C.ar      23 UNK        -0.1150 
     13 C13        -1.5753  -17.2284  -50.6944 C.ar      23 UNK        -0.0193 
     14 C14        -2.0078  -16.2006  -49.8528 C.ar      23 UNK        -0.1150 
     15 C15        -1.9683  -18.6695  -50.4336 C.3       23 UNK        -0.0205 
     16 S16        -0.6223  -19.5890  -49.6355 S.3       23 UNK        -0.2404 
     17 C17        -0.9736  -19.2974  -47.8714 C.3       23 UNK        -0.0398 
     18 CA         -0.7112  -20.5675  -47.0289 C.3       11 UNK         0.1400 
     19 N          -0.5263  -20.2494  -45.6140 N.am      11 UNK        -0.5000 
     20 C          -0.1221  -21.1206  -44.6799 C.2       10 UNK         0.5000 
     21 O           0.1776  -22.2905  -44.9134 O.2       10 UNK        -0.5000 
     22 CA         -0.1046  -20.6077  -43.2322 C.3       10 UNK         0.1400 
     23 CB          1.1657  -19.7871  -42.9599 C.3       10 UNK        -0.1800 
     24 N          -1.2993  -19.8160  -42.9303 N.am      10 UNK        -0.5000 
     25 C          -2.5344  -20.3328  -42.8384 C.2       9 UNK         0.5000 
     26 O          -2.7806  -21.5339  -42.9435 O.2       9 UNK        -0.5000 
     27 CA         -3.6958  -19.3419  -42.6435 C.3       9 UNK         0.1400 
     28 CB         -3.8908  -19.0104  -41.1579 C.3       9 UNK        -0.1800 
     29 N          -3.5093  -18.1043  -43.3993 N.am      9 UNK        -0.5000 
     30 C          -3.5607  -18.0254  -44.7367 C.2       8 UNK         0.5000 
     31 O          -3.7924  -18.9836  -45.4719 O.2       8 UNK        -0.5000 
     32 CA         -3.2359  -16.6592  -45.3633 C.3       8 UNK         0.1400 
     33 CB         -4.4954  -15.7861  -45.4531 C.3       8 UNK        -0.1800 
     34 N          -2.1885  -15.9351  -44.6426 N.am      8 UNK        -0.5000 
     35 C          -0.9357  -16.3778  -44.4789 C.2       7 UNK         0.5000 
     36 O          -0.5404  -17.4647  -44.9022 O.2       7 UNK        -0.5000 
     37 CA          0.0502  -15.4679  -43.7289 C.3       7 UNK         0.1400 
     38 CB         -0.4250  -14.0077  -43.5551 C.3       7 UNK        -0.1800 
     39 N           0.4444  -16.0476  -42.4470 N.am      7 UNK        -0.5000 
     40 C          -0.3245  -16.2940  -41.3767 C.2       6 UNK         0.5000 
     41 O          -1.5455  -16.1299  -41.3683 O.2       6 UNK        -0.5000 
     42 CA          0.3759  -16.8138  -40.0990 C.3       6 UNK         0.1400 
     43 CB         -0.3001  -18.0871  -39.5630 C.3       6 UNK        -0.1800 
     44 N           1.8087  -17.0739  -40.2738 N.am      6 UNK        -0.5000 
     45 C           2.7768  -16.1465  -40.2619 C.2       5 UNK         0.5000 
     46 O           2.5726  -14.9497  -40.0541 O.2       5 UNK        -0.5000 
     47 CA          4.2152  -16.6215  -40.5682 C.3       5 UNK         0.1400 
     48 CB          4.4026  -18.1538  -40.4803 C.3       5 UNK        -0.1800 
     49 N           4.6947  -16.1276  -41.8661 N.am      5 UNK        -0.5000 
     50 C           4.1141  -16.3171  -43.0608 C.2       4 UNK         0.5000 
     51 O           3.0453  -16.9141  -43.2020 O.2       4 UNK        -0.5000 
     52 CA          4.8189  -15.7180  -44.3006 C.3       4 UNK         0.1400 
     53 CB          6.3588  -15.6952  -44.1829 C.3       4 UNK        -0.1800 
     54 N           4.4032  -16.3729  -45.5473 N.am      4 UNK        -0.5000 
     55 C           4.5442  -17.6713  -45.8660 C.2       3 UNK         0.5000 
     56 O           5.1608  -18.4874  -45.1791 O.2       3 UNK        -0.5000 
     57 CA          3.8742  -18.1572  -47.1682 C.3       3 UNK         0.1400 
     58 CB          2.5503  -18.8676  -46.8460 C.3       3 UNK        -0.1800 
     59 N           3.6114  -17.0897  -48.1352 N.am      3 UNK        -0.5000 
     60 C           4.5525  -16.4316  -48.8261 C.2       2 UNK         0.5000 
     61 O           5.7531  -16.6993  -48.7680 O.2       2 UNK        -0.5000 
     62 CA          4.0802  -15.2690  -49.7248 C.3       2 UNK         0.1400 
     63 CB          3.9679  -15.7361  -51.1846 C.3       2 UNK        -0.1800 
     64 N           2.8055  -14.6559  -49.3322 N.am      2 UNK        -0.5000 
     65 C           2.5452  -14.0669  -48.1566 C.2       1 UNK         0.5000 
     66 O           3.3326  -14.0504  -47.2064 O.2       1 UNK        -0.5000 
     67 C          -1.7951  -21.6469  -47.2383 C.2       11 UNK         0.5000 
     68 O          -1.5474  -22.6243  -47.9454 O.2       11 UNK        -0.5000 
     69 N          -2.9497  -21.4838  -46.5758 N.am      12 UNK        -0.5000 
     70 CA         -4.0513  -22.4462  -46.5827 C.3       12 UNK         0.1400 
     71 CB         -5.2632  -21.8538  -45.8494 C.3       12 UNK        -0.1800 
     72 C          -3.6645  -23.8080  -45.9806 C.2       12 UNK         0.5000 
     73 O          -4.0513  -24.8364  -46.5307 O.2       12 UNK        -0.5000 
     74 N          -2.8860  -23.8048  -44.8897 N.am      13 UNK        -0.5000 
     75 CA         -2.3541  -25.0195  -44.2697 C.3       13 UNK         0.1400 
     76 CB         -1.7264  -24.6749  -42.9106 C.3       13 UNK        -0.1800 
     77 C          -1.3415  -25.7558  -45.1682 C.2       13 UNK         0.5000 
     78 O          -1.3581  -26.9863  -45.2166 O.2       13 UNK        -0.5000 
     79 N          -0.4838  -24.9936  -45.8588 N.am      14 UNK        -0.5000 
     80 CA          0.5554  -25.5099  -46.7447 C.3       14 UNK         0.1400 
     81 CB          1.6021  -24.4123  -46.9978 C.3       14 UNK        -0.1800 
     82 C           0.0032  -26.0537  -48.0742 C.2       14 UNK         0.5000 
     83 O           0.3127  -27.1898  -48.4363 O.2       14 UNK        -0.5000 
     84 N          -0.7662  -25.2265  -48.7935 N.am      15 UNK        -0.5000 
     85 CA         -1.1734  -25.4873  -50.1766 C.3       15 UNK         0.1400 
     86 CB         -1.0389  -24.1862  -50.9830 C.3       15 UNK        -0.1800 
     87 C          -2.5864  -26.0810  -50.3150 C.2       15 UNK         0.5000 
     88 O          -2.9298  -26.5336  -51.4081 O.2       15 UNK        -0.5000 
     89 N          -3.3834  -26.0848  -49.2357 N.am      16 UNK        -0.5000 
     90 CA         -4.7621  -26.5864  -49.1823 C.3       16 UNK         0.1400 
     91 CB         -4.7804  -28.1277  -49.3060 C.3       16 UNK        -0.1800 
     92 C          -5.6722  -25.8520  -50.1910 C.2       16 UNK         0.5000 
     93 O          -5.6740  -24.6200  -50.2185 O.2       16 UNK        -0.5000 
     94 N          -6.4091  -26.6031  -51.0195 N.am      17 UNK        -0.5000 
     95 CA         -7.2977  -26.0815  -52.0610 C.3       17 UNK         0.1400 
     96 CB         -8.1423  -27.2391  -52.6155 C.3       17 UNK        -0.1800 
     97 C          -6.5655  -25.3520  -53.2068 C.2       17 UNK         0.5000 
     98 O          -7.1924  -24.5572  -53.9079 O.2       17 UNK        -0.5000 
     99 N          -5.2621  -25.6174  -53.3770 N.am      18 UNK        -0.5000 
    100 CA        -4.4163  -25.0007  -54.4000 C.3       18 UNK         0.1400 
    101 CB        -3.2831  -25.9731  -54.7685 C.3       18 UNK        -0.1800 
    102 C         -3.8534  -23.6265  -53.9820 C.2       18 UNK         0.5000 
    103 O         -3.1582  -23.0073  -54.7881 O.2       18 UNK        -0.5000 
    104 N         -4.1387  -23.1737  -52.7494 N.am      19 UNK        -0.5000 
    105 CA        -3.7112  -21.8823  -52.2060 C.3       19 UNK         0.1400 
    106 CB        -4.1383  -21.7848  -50.7295 C.3       19 UNK        -0.1800 
    107 C         -4.2527  -20.6940  -53.0242 C.2       19 UNK         0.5000 
    108 O         -3.4691  -19.9035  -53.5509 O.2       19 UNK        -0.5000 
    109 N         -5.5889  -20.6002  -53.1124 N.am      20 UNK        -0.5000 
    110 CA        -6.3795  -19.6524  -53.9156 C.3       20 UNK         0.1400 
    111 CB        -6.1928  -19.9628  -55.4151 C.3       20 UNK        -0.1800 
    112 C         -6.1493  -18.1501  -53.6203 C.2       20 UNK         0.5000 
    113 O         -6.6419  -17.3082  -54.3734 O.2       20 UNK        -0.5000 
    114 N         -5.3922  -17.8303  -52.5593 N.am      21 UNK        -0.5000 
    115 CA        -4.9540  -16.4919  -52.1376 C.3       21 UNK         0.1400 
    116 CB        -6.1454  -15.6973  -51.5652 C.3       21 UNK        -0.1800 
    117 C         -4.1832  -15.7057  -53.2272 C.2       21 UNK         0.5000 
    118 O         -4.2146  -14.4739  -53.2257 O.2       21 UNK        -0.5000 
    119 N         -3.5459  -16.4300  -54.1609 N.am      22 UNK        -0.5000 
    120 CA        -2.9723  -15.9110  -55.4178 C.3       22 UNK         0.1400 
    121 C         -4.0158  -15.2677  -56.3903 C.2       22 UNK         0.5000 
    122 N         -5.3107  -15.5329  -56.2572 N.am      22 UNK        -0.7600 
    123 O         -3.6511  -14.5441  -57.3134 O.2       22 UNK        -0.5000 
    124 C124       -1.7062  -15.0268  -55.1999 C.3       23 UNK        -0.0398 
    125 S125       -0.2226  -16.0299  -54.8499 S.3       23 UNK        -0.2404 
    126 C126        0.4107  -15.2801  -53.3139 C.3       23 UNK        -0.0205 
    127 H127        1.1373   -9.2302  -46.4774 H         1 UNK         0.0600 
    128 H128        2.6566   -9.8566  -45.8278 H         1 UNK         0.0600 
    129 H129        1.1179  -10.5238  -45.2755 H         1 UNK         0.0600 
    130 H130        0.6930  -12.5131  -46.1708 H         1 UNK         0.3000 
    131 H131        0.8340  -13.0663  -48.9788 H         1 UNK         0.0600 
    132 H132        0.1819  -15.4082  -48.2755 H         1 UNK         0.0800 
    133 H133        0.4278  -14.9691  -46.6215 H         1 UNK         0.0800 
    134 H134       -3.1828  -13.6656  -49.2341 H         1 UNK         0.0800 
    135 H135       -1.7041  -12.7909  -49.5368 H         1 UNK         0.0800 
    136 H136       -0.6094  -13.5568  -51.4627 H         1 UNK         0.1150 
    137 H137       -0.4526  -17.7211  -52.4549 H         1 UNK         0.1150 
    138 H138       -2.6129  -16.4297  -48.9870 H         1 UNK         0.1150 
    139 H139       -2.8834  -18.7229  -49.8430 H         1 UNK         0.0800 
    140 H140       -2.1894  -19.1513  -51.3849 H         1 UNK         0.0800 
    141 H141       -0.3265  -18.4825  -47.5460 H         1 UNK         0.0800 
    142 H142       -1.9939  -18.9390  -47.7280 H         1 UNK         0.0800 
    143 H143        0.2349  -21.0003  -47.3618 H         1 UNK         0.0600 
    144 H144       -0.7036  -19.2884  -45.3326 H         1 UNK         0.3000 
    145 H145       -0.0930  -21.4766  -42.5707 H         1 UNK         0.0600 
    146 H146        2.0603  -20.3615  -43.2037 H         1 UNK         0.0600 
    147 H147        1.1982  -18.8746  -43.5543 H         1 UNK         0.0600 
    148 H148        1.2419  -19.5084  -41.9109 H         1 UNK         0.0600 
    149 H149       -1.1906  -18.8128  -42.9118 H         1 UNK         0.3000 
    150 H150       -4.6062  -19.8261  -43.0031 H         1 UNK         0.0600 
    151 H151       -4.0204  -19.9181  -40.5669 H         1 UNK         0.0600 
    152 H152       -4.7768  -18.3939  -41.0055 H         1 UNK         0.0600 
    153 H153       -3.0358  -18.4715  -40.7521 H         1 UNK         0.0600 
    154 H154       -3.2711  -17.2749  -42.8717 H         1 UNK         0.3000 
    155 H155       -2.8741  -16.8398  -46.3777 H         1 UNK         0.0600 
    156 H156       -4.2906  -14.8515  -45.9758 H         1 UNK         0.0600 
    157 H157       -4.8872  -15.5405  -44.4654 H         1 UNK         0.0600 
    158 H158       -5.2861  -16.2977  -46.0035 H         1 UNK         0.0600 
    159 H159       -2.4388  -15.0363  -44.2575 H         1 UNK         0.3000 
    160 H160        0.9564  -15.4441  -44.3354 H         1 UNK         0.0600 
    161 H161       -1.3064  -13.9286  -42.9183 H         1 UNK         0.0600 
    162 H162       -0.6689  -13.5538  -44.5159 H         1 UNK         0.0600 
    163 H163        0.3588  -13.3986  -43.1045 H         1 UNK         0.0600 
    164 H164        1.4212  -16.3255  -42.4042 H         1 UNK         0.3000 
    165 H165        0.2608  -16.0366  -39.3408 H         1 UNK         0.0600 
    166 H166       -0.3386  -18.8780  -40.3112 H         1 UNK         0.0600 
    167 H167        0.2235  -18.4757  -38.6894 H         1 UNK         0.0600 
    168 H168       -1.3239  -17.8790  -39.2517 H         1 UNK         0.0600 
    169 H169        2.0704  -18.0260  -40.4821 H         1 UNK         0.3000 
    170 H170        4.8524  -16.1692  -39.8068 H         1 UNK         0.0600 
    171 H171        4.0875  -18.5353  -39.5081 H         1 UNK         0.0600 
    172 H172        3.8408  -18.6869  -41.2483 H         1 UNK         0.0600 
    173 H173        5.4523  -18.4214  -40.6018 H         1 UNK         0.0600 
    174 H174        5.5494  -15.5904  -41.8344 H         1 UNK         0.3000 
    175 H175        4.4745  -14.6859  -44.3782 H         1 UNK         0.0600 
    176 H176        6.7650  -16.6836  -43.9654 H         1 UNK         0.0600 
    177 H177        6.8163  -15.3447  -45.1084 H         1 UNK         0.0600 
    178 H178        6.6882  -15.0208  -43.3922 H         1 UNK         0.0600 
    179 H179        3.8984  -15.7759  -46.1926 H         1 UNK         0.3000 
    180 H180        4.5462  -18.8811  -47.6340 H         1 UNK         0.0600 
    181 H181        1.8358  -18.1911  -46.3748 H         1 UNK         0.0600 
    182 H182        2.7079  -19.7009  -46.1598 H         1 UNK         0.0600 
    183 H183        2.0930  -19.2737  -47.7480 H         1 UNK         0.0600 
    184 H184        2.6492  -16.8167  -48.2605 H         1 UNK         0.3000 
    185 H185        4.8455  -14.4920  -49.6716 H         1 UNK         0.0600 
    186 H186        3.7369  -14.9040  -51.8500 H         1 UNK         0.0600 
    187 H187        4.9055  -16.1740  -51.5296 H         1 UNK         0.0600 
    188 H188        3.1893  -16.4906  -51.3058 H         1 UNK         0.0600 
    189 H189        2.0928  -14.6434  -50.0473 H         1 UNK         0.3000 
    190 H190       -3.1018  -20.6320  -46.0413 H         1 UNK         0.3000 
    191 H191       -4.3354  -22.6163  -47.6235 H         1 UNK         0.0600 
    192 H192       -6.1006  -22.5527  -45.8494 H         1 UNK         0.0600 
    193 H193       -5.6052  -20.9376  -46.3309 H         1 UNK         0.0600 
    194 H194       -5.0289  -21.6195  -44.8106 H         1 UNK         0.0600 
    195 H195       -2.6462  -22.9225  -44.4504 H         1 UNK         0.3000 
    196 H196       -3.1905  -25.6984  -44.0902 H         1 UNK         0.0600 
    197 H197       -1.3311  -25.5677  -42.4246 H         1 UNK         0.0600 
    198 H198       -2.4631  -24.2375  -42.2366 H         1 UNK         0.0600 
    199 H199       -0.9050  -23.9655  -43.0136 H         1 UNK         0.0600 
    200 H200       -0.5018  -23.9881  -45.7183 H         1 UNK         0.3000 
    201 H201        1.0585  -26.3337  -46.2339 H         1 UNK         0.0600 
    202 H202        2.0774  -24.1014  -46.0673 H         1 UNK         0.0600 
    203 H203        1.1587  -23.5273  -47.4556 H         1 UNK         0.0600 
    204 H204        2.3904  -24.7676  -47.6626 H         1 UNK         0.0600 
    205 H205       -0.9982  -24.3072  -48.4194 H         1 UNK         0.3000 
    206 H206       -0.4937  -26.2122  -50.6295 H         1 UNK         0.0600 
    207 H207       -0.0009  -23.8558  -51.0202 H         1 UNK         0.0600 
    208 H208       -1.3736  -24.3185  -52.0126 H         1 UNK         0.0600 
    209 H209       -1.6232  -23.3799  -50.5444 H         1 UNK         0.0600 
    210 H210       -3.0490  -25.6536  -48.3833 H         1 UNK         0.3000 
    211 H211       -5.1581  -26.3423  -48.1979 H         1 UNK         0.0600 
    212 H212       -4.4368  -28.4702  -50.2828 H         1 UNK         0.0600 
    213 H213       -5.7826  -28.5262  -49.1439 H         1 UNK         0.0600 
    214 H214       -4.1348  -28.5824  -48.5544 H         1 UNK         0.0600 
    215 H215       -6.3387  -27.6078  -50.9486 H         1 UNK         0.3000 
    216 H216       -7.9717  -25.3591  -51.5958 H         1 UNK         0.0600 
    217 H217       -8.8425  -26.8849  -53.3734 H         1 UNK         0.0600 
    218 H218       -8.7305  -27.7116  -51.8286 H         1 UNK         0.0600 
    219 H219       -7.5191  -28.0060  -53.0774 H         1 UNK         0.0600 
    220 H220       -4.7974  -26.2439  -52.7309 H         1 UNK         0.3000 
    221 H221       -5.0145  -24.8391  -55.2993 H         1 UNK         0.0600 
    222 H222       -2.5849  -26.1145  -53.9440 H         1 UNK         0.0600 
    223 H223       -3.6750  -26.9505  -55.0501 H         1 UNK         0.0600 
    224 H224       -2.7092  -25.5990  -55.6172 H         1 UNK         0.0600 
    225 H225       -4.7035  -23.7539  -52.1423 H         1 UNK         0.3000 
    226 H226       -2.6209  -21.8451  -52.2496 H         1 UNK         0.0600 
    227 H227       -3.7152  -22.5951  -50.1369 H         1 UNK         0.0600 
    228 H228       -3.8032  -20.8525  -50.2787 H         1 UNK         0.0600 
    229 H229       -5.2214  -21.8334  -50.6129 H         1 UNK         0.0600 
    230 H230       -6.1327  -21.3008  -52.6283 H         1 UNK         0.3000 
    231 H231       -7.4237  -19.8458  -53.6664 H         1 UNK         0.0600 
    232 H232       -6.8756  -19.3751  -56.0297 H         1 UNK         0.0600 
    233 H233       -6.3925  -21.0133  -55.6275 H         1 UNK         0.0600 
    234 H234       -5.1788  -19.7410  -55.7495 H         1 UNK         0.0600 
    235 H235       -5.0150  -18.5997  -52.0268 H         1 UNK         0.3000 
    236 H236       -4.2519  -16.6500  -51.3223 H         1 UNK         0.0600 
    237 H237       -6.6613  -16.2636  -50.7900 H         1 UNK         0.0600 
    238 H238       -5.8124  -14.7623  -51.1130 H         1 UNK         0.0600 
    239 H239       -6.8721  -15.4473  -52.3388 H         1 UNK         0.0600 
    240 H240       -3.5605  -17.4373  -54.0710 H         1 UNK         0.3000 
    241 H241       -2.6529  -16.7988  -55.9646 H         1 UNK         0.0600 
    242 H242       -5.6598  -16.1412  -55.5217 H         1 UNK         0.3800 
    243 H243       -5.9632  -15.1187  -56.9033 H         1 UNK         0.3800 
    244 H244       -1.4631  -14.4462  -56.0905 H         1 UNK         0.0800 
    245 H245       -1.8685  -14.2943  -54.4090 H         1 UNK         0.0800 
    246 H246        1.4182  -15.6566  -53.1343 H         1 UNK         0.0800 
    247 H247        0.5052  -14.2024  -53.4555 H         1 UNK         0.0800 
@<TRIPOS>BOND
     1    1    2 1    
     2    1  127 1    
     3    1  128 1    
     4    1  129 1    
     5    2    3 2    
     6    2    4 am   BACKBONE|DICT|INTERRES
     7    4    5 1    
     8    4  130 1    
     9    5    6 1    
    10    5   65 1    
    11    5  131 1    
    12    6    7 1    
    13    6  132 1    
    14    6  133 1    
    15    7    8 1    
    16    8    9 1    
    17    8  134 1    
    18    8  135 1    
    19    9   10 ar   
    20    9   14 ar   
    21   10   11 ar   
    22   10  136 1    
    23   11   12 ar   
    24   11  126 1    
    25   12   13 ar   
    26   12  137 1    
    27   13   14 ar   
    28   13   15 1    
    29   14  138 1    
    30   15   16 1    
    31   15  139 1    
    32   15  140 1    
    33   16   17 1    
    34   17   18 1    
    35   17  141 1    
    36   17  142 1    
    37   18   19 1    
    38   18   67 1    
    39   18  143 1    
    40   19   20 am   BACKBONE|DICT|INTERRES
    41   19  144 1    
    42   20   21 2    
    43   20   22 1    
    44   22   23 1    
    45   22   24 1    
    46   22  145 1    
    47   23  146 1    
    48   23  147 1    
    49   23  148 1    
    50   24   25 am   BACKBONE|DICT|INTERRES
    51   24  149 1    
    52   25   26 2    
    53   25   27 1    
    54   27   28 1    
    55   27   29 1    
    56   27  150 1    
    57   28  151 1    
    58   28  152 1    
    59   28  153 1    
    60   29   30 am   BACKBONE|DICT|INTERRES
    61   29  154 1    
    62   30   31 2    
    63   30   32 1    
    64   32   33 1    
    65   32   34 1    
    66   32  155 1    
    67   33  156 1    
    68   33  157 1    
    69   33  158 1    
    70   34   35 am   BACKBONE|DICT|INTERRES
    71   34  159 1    
    72   35   36 2    
    73   35   37 1    
    74   37   38 1    
    75   37   39 1    
    76   37  160 1    
    77   38  161 1    
    78   38  162 1    
    79   38  163 1    
    80   39   40 am   BACKBONE|DICT|INTERRES
    81   39  164 1    
    82   40   41 2    
    83   40   42 1    
    84   42   43 1    
    85   42   44 1    
    86   42  165 1    
    87   43  166 1    
    88   43  167 1    
    89   43  168 1    
    90   44   45 am   BACKBONE|DICT|INTERRES
    91   44  169 1    
    92   45   46 2    
    93   45   47 1    
    94   47   48 1    
    95   47   49 1    
    96   47  170 1    
    97   48  171 1    
    98   48  172 1    
    99   48  173 1    
   100   49   50 am   BACKBONE|DICT|INTERRES
   101   49  174 1    
   102   50   51 2    
   103   50   52 1    
   104   52   53 1    
   105   52   54 1    
   106   52  175 1    
   107   53  176 1    
   108   53  177 1    
   109   53  178 1    
   110   54   55 am   BACKBONE|DICT|INTERRES
   111   54  179 1    
   112   55   56 2    
   113   55   57 1    
   114   57   58 1    
   115   57   59 1    
   116   57  180 1    
   117   58  181 1    
   118   58  182 1    
   119   58  183 1    
   120   59   60 am   BACKBONE|DICT|INTERRES
   121   59  184 1    
   122   60   61 2    
   123   60   62 1    
   124   62   63 1    
   125   62   64 1    
   126   62  185 1    
   127   63  186 1    
   128   63  187 1    
   129   63  188 1    
   130   64   65 am   BACKBONE|DICT|INTERRES
   131   64  189 1    
   132   65   66 2    
   133   67   68 2    
   134   67   69 am   BACKBONE|DICT|INTERRES
   135   69   70 1    
   136   69  190 1    
   137   70   71 1    
   138   70   72 1    
   139   70  191 1    
   140   71  192 1    
   141   71  193 1    
   142   71  194 1    
   143   72   73 2    
   144   72   74 am   BACKBONE|DICT|INTERRES
   145   74   75 1    
   146   74  195 1    
   147   75   76 1    
   148   75   77 1    
   149   75  196 1    
   150   76  197 1    
   151   76  198 1    
   152   76  199 1    
   153   77   78 2    
   154   77   79 am   BACKBONE|DICT|INTERRES
   155   79   80 1    
   156   79  200 1    
   157   80   81 1    
   158   80   82 1    
   159   80  201 1    
   160   81  202 1    
   161   81  203 1    
   162   81  204 1    
   163   82   83 2    
   164   82   84 am   BACKBONE|DICT|INTERRES
   165   84   85 1    
   166   84  205 1    
   167   85   86 1    
   168   85   87 1    
   169   85  206 1    
   170   86  207 1    
   171   86  208 1    
   172   86  209 1    
   173   87   88 2    
   174   87   89 am   BACKBONE|DICT|INTERRES
   175   89   90 1    
   176   89  210 1    
   177   90   91 1    
   178   90   92 1    
   179   90  211 1    
   180   91  212 1    
   181   91  213 1    
   182   91  214 1    
   183   92   93 2    
   184   92   94 am   BACKBONE|DICT|INTERRES
   185   94   95 1    
   186   94  215 1    
   187   95   96 1    
   188   95   97 1    
   189   95  216 1    
   190   96  217 1    
   191   96  218 1    
   192   96  219 1    
   193   97   98 2    
   194   97   99 am   BACKBONE|DICT|INTERRES
   195   99  100 1    
   196   99  220 1    
   197  100  101 1    
   198  100  102 1    
   199  100  221 1    
   200  101  222 1    
   201  101  223 1    
   202  101  224 1    
   203  102  103 2    
   204  102  104 am   BACKBONE|DICT|INTERRES
   205  104  105 1    
   206  104  225 1    
   207  105  106 1    
   208  105  107 1    
   209  105  226 1    
   210  106  227 1    
   211  106  228 1    
   212  106  229 1    
   213  107  108 2    
   214  107  109 am   BACKBONE|DICT|INTERRES
   215  109  110 1    
   216  109  230 1    
   217  110  111 1    
   218  110  112 1    
   219  110  231 1    
   220  111  232 1    
   221  111  233 1    
   222  111  234 1    
   223  112  113 2    
   224  112  114 am   BACKBONE|DICT|INTERRES
   225  114  115 1    
   226  114  235 1    
   227  115  116 1    
   228  115  117 1    
   229  115  236 1    
   230  116  237 1    
   231  116  238 1    
   232  116  239 1    
   233  117  118 2    
   234  117  119 am   BACKBONE|DICT|INTERRES
   235  119  120 1    
   236  119  240 1    
   237  120  121 1    
   238  120  124 1    
   239  120  241 1    
   240  121  122 am   BACKBONE|DICT|INTERRES
   241  121  123 2    
   242  122  242 1    
   243  122  243 1    
   244  124  125 1    
   245  124  244 1    
   246  124  245 1    
   247  125  126 1    
   248  126  246 1    
   249  126  247 1    
@<TRIPOS>SUBSTRUCTURE
     1 UNK         1 GROUP             0       ****    0 ROOT    
