@<TRIPOS>MOLECULE
3R540
247   249    1
SMALL
USER_CHARGES


@<TRIPOS>ATOM
      1 CA         -1.1950  -13.3677  -43.3459 C.3       0 UNK        -0.1800 
      2 C          -1.1620  -13.3181  -44.8661 C.2       0 UNK         0.5000 
      3 O          -1.8904  -12.5280  -45.4668 O.2       0 UNK        -0.5000 
      4 N          -0.3108  -14.1428  -45.4879 N.am      1 UNK        -0.5000 
      5 CA          0.0214  -14.0689  -46.9106 C.3       1 UNK         0.1400 
      6 C6          0.7154  -15.3679  -47.3841 C.3       23 UNK        -0.0398 
      7 S7          0.8635  -15.4638  -49.2030 S.3       23 UNK        -0.2404 
      8 C8         -0.1690  -16.9034  -49.6123 C.3       23 UNK        -0.0205 
      9 C9         -1.6371  -16.6954  -49.2682 C.ar      23 UNK        -0.0193 
     10 C10        -2.4285  -15.8294  -50.0294 C.ar      23 UNK        -0.1150 
     11 C11        -3.7941  -15.6962  -49.7591 C.ar      23 UNK        -0.0193 
     12 C12        -4.3601  -16.4134  -48.7006 C.ar      23 UNK        -0.1150 
     13 C13        -3.5856  -17.3022  -47.9527 C.ar      23 UNK        -0.0193 
     14 C14        -2.2234  -17.4272  -48.2322 C.ar      23 UNK        -0.1150 
     15 C15        -4.2345  -18.1838  -46.8992 C.3       23 UNK        -0.0205 
     16 S16        -5.1391  -19.5417  -47.6989 S.3       23 UNK        -0.2404 
     17 C17        -5.0508  -20.8796  -46.4680 C.3       23 UNK        -0.0398 
     18 CA         -3.8015  -21.7675  -46.7019 C.3       11 UNK         0.1400 
     19 N          -2.6035  -21.2429  -46.0319 N.am      11 UNK        -0.5000 
     20 C          -1.3594  -21.4923  -46.4598 C.2       10 UNK         0.5000 
     21 O          -1.1180  -22.1478  -47.4724 O.2       10 UNK        -0.5000 
     22 CA         -0.1841  -20.9550  -45.6262 C.3       10 UNK         0.1400 
     23 CB          0.1348  -19.5012  -45.9973 C.3       10 UNK        -0.1800 
     24 N          -0.3736  -21.0547  -44.1807 N.am      10 UNK        -0.5000 
     25 C          -0.4892  -22.2017  -43.4982 C.2       9 UNK         0.5000 
     26 O          -0.5870  -23.3067  -44.0309 O.2       9 UNK        -0.5000 
     27 CA         -0.5097  -22.0932  -41.9666 C.3       9 UNK         0.1400 
     28 CB          0.8897  -21.7613  -41.4243 C.3       9 UNK        -0.1800 
     29 N          -1.4533  -21.0643  -41.5412 N.am      9 UNK        -0.5000 
     30 C          -2.7351  -21.2981  -41.2295 C.2       8 UNK         0.5000 
     31 O          -3.2292  -22.4230  -41.1623 O.2       8 UNK        -0.5000 
     32 CA         -3.6283  -20.0709  -40.9593 C.3       8 UNK         0.1400 
     33 CB         -3.7113  -19.7897  -39.4513 C.3       8 UNK        -0.1800 
     34 N          -3.1899  -18.8541  -41.6456 N.am      8 UNK        -0.5000 
     35 C          -3.1188  -18.7024  -42.9750 C.2       7 UNK         0.5000 
     36 O          -3.4086  -19.5810  -43.7862 O.2       7 UNK        -0.5000 
     37 CA         -2.5631  -17.3598  -43.4798 C.3       7 UNK         0.1400 
     38 CB         -3.6848  -16.3162  -43.5861 C.3       7 UNK        -0.1800 
     39 N          -1.4667  -16.8276  -42.6640 N.am      7 UNK        -0.5000 
     40 C          -0.3106  -17.4626  -42.4276 C.2       6 UNK         0.5000 
     41 O          -0.0766  -18.6201  -42.7827 O.2       6 UNK        -0.5000 
     42 CA          0.7593  -16.6880  -41.6391 C.3       6 UNK         0.1400 
     43 CB          0.8314  -17.2098  -40.1961 C.3       6 UNK        -0.1800 
     44 N           2.0795  -16.8088  -42.2587 N.am      6 UNK        -0.5000 
     45 C           2.3920  -16.4179  -43.5022 C.2       5 UNK         0.5000 
     46 O           1.6065  -15.8406  -44.2577 O.2       5 UNK        -0.5000 
     47 CA          3.8149  -16.7782  -43.9739 C.3       5 UNK         0.1400 
     48 CB          3.9119  -18.2819  -44.2831 C.3       5 UNK        -0.1800 
     49 N           4.2630  -16.0411  -45.1576 N.am      5 UNK        -0.5000 
     50 C           4.4965  -14.7244  -45.2284 C.2       4 UNK         0.5000 
     51 O           4.3233  -13.9470  -44.2866 O.2       4 UNK        -0.5000 
     52 CA          5.0956  -14.2017  -46.5493 C.3       4 UNK         0.1400 
     53 CB          4.7153  -15.0193  -47.8019 C.3       4 UNK        -0.1800 
     54 N           4.7428  -12.8000  -46.7567 N.am      4 UNK        -0.5000 
     55 C           5.5364  -11.8897  -47.3356 C.2       3 UNK         0.5000 
     56 O           6.6786  -12.1389  -47.7276 O.2       3 UNK        -0.5000 
     57 CA          4.9603  -10.4651  -47.5045 C.3       3 UNK         0.1400 
     58 CB          5.6997   -9.6392  -48.5787 C.3       3 UNK        -0.1800 
     59 N           3.5126  -10.4429  -47.7424 N.am      3 UNK        -0.5000 
     60 C           2.8443  -11.0085  -48.7587 C.2       2 UNK         0.5000 
     61 O           3.3722  -11.6199  -49.6897 O.2       2 UNK        -0.5000 
     62 CA          1.3088  -10.8884  -48.6956 C.3       2 UNK         0.1400 
     63 CB          0.7253  -10.4432  -50.0469 C.3       2 UNK        -0.1800 
     64 N           0.6580  -12.1343  -48.2856 N.am      2 UNK        -0.5000 
     65 C           0.8959  -12.8177  -47.1575 C.2       1 UNK         0.5000 
     66 O           1.7488  -12.4960  -46.3244 O.2       1 UNK        -0.5000 
     67 C          -4.0729  -23.2399  -46.3320 C.2       11 UNK         0.5000 
     68 O          -4.7266  -23.9349  -47.1098 O.2       11 UNK        -0.5000 
     69 N          -3.5706  -23.6970  -45.1776 N.am      12 UNK        -0.5000 
     70 CA         -3.7507  -25.0644  -44.6964 C.3       12 UNK         0.1400 
     71 CB         -3.6588  -25.0862  -43.1626 C.3       12 UNK        -0.1800 
     72 C          -2.7352  -26.0338  -45.3220 C.2       12 UNK         0.5000 
     73 O          -3.1355  -27.0517  -45.8878 O.2       12 UNK        -0.5000 
     74 N          -1.4422  -25.7148  -45.1868 N.am      13 UNK        -0.5000 
     75 CA         -0.3402  -26.6022  -45.5515 C.3       13 UNK         0.1400 
     76 CB          0.8393  -26.3592  -44.5959 C.3       13 UNK        -0.1800 
     77 C           0.1047  -26.4211  -47.0094 C.2       13 UNK         0.5000 
     78 O           0.3112  -27.4159  -47.7055 O.2       13 UNK        -0.5000 
     79 N           0.2663  -25.1626  -47.4388 N.am      14 UNK        -0.5000 
     80 CA          0.8364  -24.8142  -48.7435 C.3       14 UNK         0.1400 
     81 CB          1.7896  -23.6195  -48.5664 C.3       14 UNK        -0.1800 
     82 C          -0.2292  -24.5083  -49.8100 C.2       14 UNK         0.5000 
     83 O           0.1354  -24.2975  -50.9667 O.2       14 UNK        -0.5000 
     84 N          -1.5093  -24.4461  -49.4136 N.am      15 UNK        -0.5000 
     85 CA         -2.6707  -24.0855  -50.2367 C.3       15 UNK         0.1400 
     86 CB         -2.9798  -25.1980  -51.2595 C.3       15 UNK        -0.1800 
     87 C          -2.5246  -22.6968  -50.8949 C.2       15 UNK         0.5000 
     88 O          -2.8355  -22.5378  -52.0776 O.2       15 UNK        -0.5000 
     89 N          -2.0337  -21.7240  -50.1134 N.am      16 UNK        -0.5000 
     90 CA         -1.7010  -20.3506  -50.5100 C.3       16 UNK         0.1400 
     91 CB         -2.9485  -19.5812  -50.9917 C.3       16 UNK        -0.1800 
     92 C          -0.5259  -20.2921  -51.5074 C.2       16 UNK         0.5000 
     93 O          -0.5251  -19.4607  -52.4141 O.2       16 UNK        -0.5000 
     94 N           0.4523  -21.1887  -51.3085 N.am      17 UNK        -0.5000 
     95 CA          1.6096  -21.4465  -52.1720 C.3       17 UNK         0.1400 
     96 CB          2.5396  -20.2172  -52.2542 C.3       17 UNK        -0.1800 
     97 C           1.1705  -21.9894  -53.5468 C.2       17 UNK         0.5000 
     98 O           1.5503  -21.4465  -54.5860 O.2       17 UNK        -0.5000 
     99 N           0.3616  -23.0587  -53.5006 N.am      18 UNK        -0.5000 
    100 CA        -0.2466  -23.7742  -54.6251 C.3       18 UNK         0.1400 
    101 CB         0.8308  -24.5169  -55.4425 C.3       18 UNK        -0.1800 
    102 C         -1.1528  -22.8709  -55.4878 C.2       18 UNK         0.5000 
    103 O         -1.0521  -22.8810  -56.7164 O.2       18 UNK        -0.5000 
    104 N         -2.0273  -22.1089  -54.8202 N.am      19 UNK        -0.5000 
    105 CA        -2.9821  -21.1827  -55.4310 C.3       19 UNK         0.1400 
    106 CB        -2.5786  -19.7365  -55.0952 C.3       19 UNK        -0.1800 
    107 C         -4.4206  -21.5107  -54.9911 C.2       19 UNK         0.5000 
    108 O         -5.2550  -20.6088  -54.9063 O.2       19 UNK        -0.5000 
    109 N         -4.6813  -22.7966  -54.7051 N.am      20 UNK        -0.5000 
    110 CA        -5.9760  -23.3885  -54.3410 C.3       20 UNK         0.1400 
    111 CB        -6.9151  -23.3998  -55.5651 C.3       20 UNK        -0.1800 
    112 C         -6.6296  -22.7510  -53.0947 C.2       20 UNK         0.5000 
    113 O         -7.8552  -22.6477  -53.0272 O.2       20 UNK        -0.5000 
    114 N         -5.7894  -22.3293  -52.1382 N.am      21 UNK        -0.5000 
    115 CA        -6.1428  -21.6029  -50.9133 C.3       21 UNK         0.1400 
    116 CB        -7.0224  -22.4568  -49.9766 C.3       21 UNK        -0.1800 
    117 C         -6.7071  -20.1886  -51.1788 C.2       21 UNK         0.5000 
    118 O         -7.4921  -19.6789  -50.3777 O.2       21 UNK        -0.5000 
    119 N         -6.2463  -19.5605  -52.2701 N.am      22 UNK        -0.5000 
    120 CA        -6.4901  -18.1575  -52.6371 C.3       22 UNK         0.1400 
    121 C         -7.9435  -17.8637  -53.1186 C.2       22 UNK         0.5000 
    122 N         -8.3004  -16.5999  -53.3067 N.am      22 UNK        -0.7600 
    123 O         -8.7456  -18.7616  -53.3656 O.2       22 UNK        -0.5000 
    124 C124       -5.9850  -17.1799  -51.5331 C.3       23 UNK        -0.0398 
    125 S125       -5.1557  -15.6899  -52.1859 S.3       23 UNK        -0.2404 
    126 C126       -4.6768  -14.8301  -50.6466 C.3       23 UNK        -0.0205 
    127 H127       -1.0431  -12.3682  -42.9384 H         1 UNK         0.0600 
    128 H128       -0.4084  -14.0094  -42.9534 H         1 UNK         0.0600 
    129 H129       -2.1585  -13.7339  -42.9941 H         1 UNK         0.0600 
    130 H130        0.3090  -14.7371  -44.9395 H         1 UNK         0.3000 
    131 H131       -0.9143  -13.9624  -47.4647 H         1 UNK         0.0600 
    132 H132        0.1565  -16.2336  -47.0272 H         1 UNK         0.0800 
    133 H133        1.7052  -15.4624  -46.9376 H         1 UNK         0.0800 
    134 H134        0.2316  -17.7833  -49.1070 H         1 UNK         0.0800 
    135 H135       -0.0816  -17.1035  -50.6813 H         1 UNK         0.0800 
    136 H136       -1.9887  -15.2878  -50.8551 H         1 UNK         0.1150 
    137 H137       -5.4194  -16.3333  -48.5008 H         1 UNK         0.1150 
    138 H138       -1.6292  -18.1290  -47.6704 H         1 UNK         0.1150 
    139 H139       -3.4743  -18.5880  -46.2330 H         1 UNK         0.0800 
    140 H140       -4.9209  -17.6004  -46.2854 H         1 UNK         0.0800 
    141 H141       -5.9719  -21.4530  -46.5900 H         1 UNK         0.0800 
    142 H142       -5.0893  -20.4776  -45.4564 H         1 UNK         0.0800 
    143 H143       -3.6126  -21.7850  -47.7770 H         1 UNK         0.0600 
    144 H144       -2.7518  -20.6947  -45.1878 H         1 UNK         0.3000 
    145 H145        0.6887  -21.5606  -45.8791 H         1 UNK         0.0600 
    146 H146        1.0295  -19.1526  -45.4828 H         1 UNK         0.0600 
    147 H147        0.3148  -19.3978  -47.0679 H         1 UNK         0.0600 
    148 H148       -0.6792  -18.8321  -45.7229 H         1 UNK         0.0600 
    149 H149       -0.2959  -20.1834  -43.6599 H         1 UNK         0.3000 
    150 H150       -0.8027  -23.0648  -41.5629 H         1 UNK         0.0600 
    151 H151        1.6143  -22.5179  -41.7281 H         1 UNK         0.0600 
    152 H152        0.8900  -21.7300  -40.3347 H         1 UNK         0.0600 
    153 H153        1.2511  -20.7975  -41.7849 H         1 UNK         0.0600 
    154 H154       -1.1401  -20.1057  -41.6238 H         1 UNK         0.3000 
    155 H155       -4.6304  -20.3123  -41.3198 H         1 UNK         0.0600 
    156 H156       -2.7394  -19.5147  -39.0395 H         1 UNK         0.0600 
    157 H157       -4.0610  -20.6689  -38.9083 H         1 UNK         0.0600 
    158 H158       -4.4091  -18.9797  -39.2380 H         1 UNK         0.0600 
    159 H159       -2.9123  -18.0799  -41.0608 H         1 UNK         0.3000 
    160 H160       -2.1693  -17.5291  -44.4828 H         1 UNK         0.0600 
    161 H161       -4.0054  -15.9652  -42.6047 H         1 UNK         0.0600 
    162 H162       -4.5624  -16.7276  -44.0855 H         1 UNK         0.0600 
    163 H163       -3.3643  -15.4529  -44.1685 H         1 UNK         0.0600 
    164 H164       -1.5935  -15.8949  -42.3017 H         1 UNK         0.3000 
    165 H165        0.4966  -15.6302  -41.6105 H         1 UNK         0.0600 
    166 H166        1.5576  -16.6478  -39.6085 H         1 UNK         0.0600 
    167 H167       -0.1333  -17.1135  -39.6961 H         1 UNK         0.0600 
    168 H168        1.1145  -18.2630  -40.1619 H         1 UNK         0.0600 
    169 H169        2.7738  -17.3052  -41.7203 H         1 UNK         0.3000 
    170 H170        4.5030  -16.5453  -43.1587 H         1 UNK         0.0600 
    171 H171        3.5813  -18.8881  -43.4385 H         1 UNK         0.0600 
    172 H172        3.2974  -18.5545  -45.1412 H         1 UNK         0.0600 
    173 H173        4.9393  -18.5726  -44.5033 H         1 UNK         0.0600 
    174 H174        4.4201  -16.5955  -45.9856 H         1 UNK         0.3000 
    175 H175        6.1765  -14.2801  -46.4164 H         1 UNK         0.0600 
    176 H176        3.6471  -14.9703  -48.0037 H         1 UNK         0.0600 
    177 H177        5.2266  -14.6340  -48.6844 H         1 UNK         0.0600 
    178 H178        4.9981  -16.0681  -47.7121 H         1 UNK         0.0600 
    179 H179        3.8174  -12.5296  -46.4356 H         1 UNK         0.3000 
    180 H180        5.1165   -9.9673  -46.5465 H         1 UNK         0.0600 
    181 H181        5.6446  -10.1100  -49.5607 H         1 UNK         0.0600 
    182 H182        6.7554   -9.5269  -48.3293 H         1 UNK         0.0600 
    183 H183        5.2806   -8.6366  -48.6633 H         1 UNK         0.0600 
    184 H184        2.9679  -10.0122  -47.0080 H         1 UNK         0.3000 
    185 H185        1.0504  -10.1266  -47.9572 H         1 UNK         0.0600 
    186 H186        0.8844  -11.1938  -50.8223 H         1 UNK         0.0600 
    187 H187       -0.3467  -10.2593  -49.9732 H         1 UNK         0.0600 
    188 H188        1.1905   -9.5168  -50.3864 H         1 UNK         0.0600 
    189 H189       -0.0309  -12.4983  -48.9275 H         1 UNK         0.3000 
    190 H190       -2.9988  -23.0843  -44.6145 H         1 UNK         0.3000 
    191 H191       -4.7511  -25.4090  -44.9678 H         1 UNK         0.0600 
    192 H192       -2.6968  -24.7177  -42.8050 H         1 UNK         0.0600 
    193 H193       -3.7859  -26.0987  -42.7776 H         1 UNK         0.0600 
    194 H194       -4.4379  -24.4692  -42.7149 H         1 UNK         0.0600 
    195 H195       -1.1888  -24.8429  -44.7241 H         1 UNK         0.3000 
    196 H196       -0.6554  -27.6405  -45.4251 H         1 UNK         0.0600 
    197 H197        1.6702  -27.0284  -44.8227 H         1 UNK         0.0600 
    198 H198        0.5497  -26.5398  -43.5606 H         1 UNK         0.0600 
    199 H199        1.2134  -25.3369  -44.6634 H         1 UNK         0.0600 
    200 H200        0.0483  -24.3962  -46.8173 H         1 UNK         0.3000 
    201 H201        1.4303  -25.6479  -49.1239 H         1 UNK         0.0600 
    202 H202        2.5569  -23.8371  -47.8232 H         1 UNK         0.0600 
    203 H203        1.2672  -22.7176  -48.2506 H         1 UNK         0.0600 
    204 H204        2.3051  -23.3891  -49.4990 H         1 UNK         0.0600 
    205 H205       -1.6923  -24.5997  -48.4325 H         1 UNK         0.3000 
    206 H206       -3.5234  -24.0132  -49.5611 H         1 UNK         0.0600 
    207 H207       -3.9082  -24.9922  -51.7937 H         1 UNK         0.0600 
    208 H208       -3.0982  -26.1627  -50.7663 H         1 UNK         0.0600 
    209 H209       -2.1890  -25.2973  -52.0034 H         1 UNK         0.0600 
    210 H210       -1.7653  -21.9724  -49.1624 H         1 UNK         0.3000 
    211 H211       -1.3446  -19.8570  -49.6057 H         1 UNK         0.0600 
    212 H212       -2.7054  -18.5493  -51.2450 H         1 UNK         0.0600 
    213 H213       -3.7065  -19.5437  -50.2129 H         1 UNK         0.0600 
    214 H214       -3.3964  -20.0306  -51.8759 H         1 UNK         0.0600 
    215 H215        0.3234  -21.8509  -50.5578 H         1 UNK         0.3000 
    216 H216        2.1760  -22.2479  -51.6959 H         1 UNK         0.0600 
    217 H217        3.4566  -20.4619  -52.7911 H         1 UNK         0.0600 
    218 H218        2.8265  -19.8733  -51.2606 H         1 UNK         0.0600 
    219 H219        2.0725  -19.3819  -52.7763 H         1 UNK         0.0600 
    220 H220        0.1475  -23.4418  -52.5813 H         1 UNK         0.3000 
    221 H221       -0.9007  -24.5282  -54.1851 H         1 UNK         0.0600 
    222 H222        1.5076  -23.8257  -55.9457 H         1 UNK         0.0600 
    223 H223        1.4293  -25.1674  -54.8046 H         1 UNK         0.0600 
    224 H224        0.3756  -25.1453  -56.2089 H         1 UNK         0.0600 
    225 H225       -2.0831  -22.1906  -53.8074 H         1 UNK         0.3000 
    226 H226       -2.9709  -21.2870  -56.5174 H         1 UNK         0.0600 
    227 H227       -1.5437  -19.5402  -55.3761 H         1 UNK         0.0600 
    228 H228       -3.2026  -19.0194  -55.6297 H         1 UNK         0.0600 
    229 H229       -2.6793  -19.5281  -54.0312 H         1 UNK         0.0600 
    230 H230       -3.9091  -23.4445  -54.7672 H         1 UNK         0.3000 
    231 H231       -5.7722  -24.4262  -54.0731 H         1 UNK         0.0600 
    232 H232       -6.4394  -23.8749  -56.4230 H         1 UNK         0.0600 
    233 H233       -7.2056  -22.3905  -55.8590 H         1 UNK         0.0600 
    234 H234       -7.8294  -23.9561  -55.3550 H         1 UNK         0.0600 
    235 H235       -4.7939  -22.4417  -52.3066 H         1 UNK         0.3000 
    236 H236       -5.2025  -21.4407  -50.3871 H         1 UNK         0.0600 
    237 H237       -7.1374  -21.9739  -49.0055 H         1 UNK         0.0600 
    238 H238       -8.0219  -22.6111  -50.3830 H         1 UNK         0.0600 
    239 H239       -6.5743  -23.4343  -49.7975 H         1 UNK         0.0600 
    240 H240       -5.7067  -20.0893  -52.9453 H         1 UNK         0.3000 
    241 H241       -5.8708  -18.0201  -53.5242 H         1 UNK         0.0600 
    242 H242       -9.2317  -16.3932  -53.6333 H         1 UNK         0.3800 
    243 H243       -7.6521  -15.8459  -53.1351 H         1 UNK         0.3800 
    244 H244       -6.7884  -16.8929  -50.8523 H         1 UNK         0.0800 
    245 H245       -5.2486  -17.6918  -50.9150 H         1 UNK         0.0800 
    246 H246       -5.5765  -14.5256  -50.1096 H         1 UNK         0.0800 
    247 H247       -4.1481  -13.9109  -50.9026 H         1 UNK         0.0800 
@<TRIPOS>BOND
     1    1    2 1    
     2    1  127 1    
     3    1  128 1    
     4    1  129 1    
     5    2    3 2    
     6    2    4 am   BACKBONE|DICT|INTERRES
     7    4    5 1    
     8    4  130 1    
     9    5    6 1    
    10    5   65 1    
    11    5  131 1    
    12    6    7 1    
    13    6  132 1    
    14    6  133 1    
    15    7    8 1    
    16    8    9 1    
    17    8  134 1    
    18    8  135 1    
    19    9   10 ar   
    20    9   14 ar   
    21   10   11 ar   
    22   10  136 1    
    23   11   12 ar   
    24   11  126 1    
    25   12   13 ar   
    26   12  137 1    
    27   13   14 ar   
    28   13   15 1    
    29   14  138 1    
    30   15   16 1    
    31   15  139 1    
    32   15  140 1    
    33   16   17 1    
    34   17   18 1    
    35   17  141 1    
    36   17  142 1    
    37   18   19 1    
    38   18   67 1    
    39   18  143 1    
    40   19   20 am   BACKBONE|DICT|INTERRES
    41   19  144 1    
    42   20   21 2    
    43   20   22 1    
    44   22   23 1    
    45   22   24 1    
    46   22  145 1    
    47   23  146 1    
    48   23  147 1    
    49   23  148 1    
    50   24   25 am   BACKBONE|DICT|INTERRES
    51   24  149 1    
    52   25   26 2    
    53   25   27 1    
    54   27   28 1    
    55   27   29 1    
    56   27  150 1    
    57   28  151 1    
    58   28  152 1    
    59   28  153 1    
    60   29   30 am   BACKBONE|DICT|INTERRES
    61   29  154 1    
    62   30   31 2    
    63   30   32 1    
    64   32   33 1    
    65   32   34 1    
    66   32  155 1    
    67   33  156 1    
    68   33  157 1    
    69   33  158 1    
    70   34   35 am   BACKBONE|DICT|INTERRES
    71   34  159 1    
    72   35   36 2    
    73   35   37 1    
    74   37   38 1    
    75   37   39 1    
    76   37  160 1    
    77   38  161 1    
    78   38  162 1    
    79   38  163 1    
    80   39   40 am   BACKBONE|DICT|INTERRES
    81   39  164 1    
    82   40   41 2    
    83   40   42 1    
    84   42   43 1    
    85   42   44 1    
    86   42  165 1    
    87   43  166 1    
    88   43  167 1    
    89   43  168 1    
    90   44   45 am   BACKBONE|DICT|INTERRES
    91   44  169 1    
    92   45   46 2    
    93   45   47 1    
    94   47   48 1    
    95   47   49 1    
    96   47  170 1    
    97   48  171 1    
    98   48  172 1    
    99   48  173 1    
   100   49   50 am   BACKBONE|DICT|INTERRES
   101   49  174 1    
   102   50   51 2    
   103   50   52 1    
   104   52   53 1    
   105   52   54 1    
   106   52  175 1    
   107   53  176 1    
   108   53  177 1    
   109   53  178 1    
   110   54   55 am   BACKBONE|DICT|INTERRES
   111   54  179 1    
   112   55   56 2    
   113   55   57 1    
   114   57   58 1    
   115   57   59 1    
   116   57  180 1    
   117   58  181 1    
   118   58  182 1    
   119   58  183 1    
   120   59   60 am   BACKBONE|DICT|INTERRES
   121   59  184 1    
   122   60   61 2    
   123   60   62 1    
   124   62   63 1    
   125   62   64 1    
   126   62  185 1    
   127   63  186 1    
   128   63  187 1    
   129   63  188 1    
   130   64   65 am   BACKBONE|DICT|INTERRES
   131   64  189 1    
   132   65   66 2    
   133   67   68 2    
   134   67   69 am   BACKBONE|DICT|INTERRES
   135   69   70 1    
   136   69  190 1    
   137   70   71 1    
   138   70   72 1    
   139   70  191 1    
   140   71  192 1    
   141   71  193 1    
   142   71  194 1    
   143   72   73 2    
   144   72   74 am   BACKBONE|DICT|INTERRES
   145   74   75 1    
   146   74  195 1    
   147   75   76 1    
   148   75   77 1    
   149   75  196 1    
   150   76  197 1    
   151   76  198 1    
   152   76  199 1    
   153   77   78 2    
   154   77   79 am   BACKBONE|DICT|INTERRES
   155   79   80 1    
   156   79  200 1    
   157   80   81 1    
   158   80   82 1    
   159   80  201 1    
   160   81  202 1    
   161   81  203 1    
   162   81  204 1    
   163   82   83 2    
   164   82   84 am   BACKBONE|DICT|INTERRES
   165   84   85 1    
   166   84  205 1    
   167   85   86 1    
   168   85   87 1    
   169   85  206 1    
   170   86  207 1    
   171   86  208 1    
   172   86  209 1    
   173   87   88 2    
   174   87   89 am   BACKBONE|DICT|INTERRES
   175   89   90 1    
   176   89  210 1    
   177   90   91 1    
   178   90   92 1    
   179   90  211 1    
   180   91  212 1    
   181   91  213 1    
   182   91  214 1    
   183   92   93 2    
   184   92   94 am   BACKBONE|DICT|INTERRES
   185   94   95 1    
   186   94  215 1    
   187   95   96 1    
   188   95   97 1    
   189   95  216 1    
   190   96  217 1    
   191   96  218 1    
   192   96  219 1    
   193   97   98 2    
   194   97   99 am   BACKBONE|DICT|INTERRES
   195   99  100 1    
   196   99  220 1    
   197  100  101 1    
   198  100  102 1    
   199  100  221 1    
   200  101  222 1    
   201  101  223 1    
   202  101  224 1    
   203  102  103 2    
   204  102  104 am   BACKBONE|DICT|INTERRES
   205  104  105 1    
   206  104  225 1    
   207  105  106 1    
   208  105  107 1    
   209  105  226 1    
   210  106  227 1    
   211  106  228 1    
   212  106  229 1    
   213  107  108 2    
   214  107  109 am   BACKBONE|DICT|INTERRES
   215  109  110 1    
   216  109  230 1    
   217  110  111 1    
   218  110  112 1    
   219  110  231 1    
   220  111  232 1    
   221  111  233 1    
   222  111  234 1    
   223  112  113 2    
   224  112  114 am   BACKBONE|DICT|INTERRES
   225  114  115 1    
   226  114  235 1    
   227  115  116 1    
   228  115  117 1    
   229  115  236 1    
   230  116  237 1    
   231  116  238 1    
   232  116  239 1    
   233  117  118 2    
   234  117  119 am   BACKBONE|DICT|INTERRES
   235  119  120 1    
   236  119  240 1    
   237  120  121 1    
   238  120  124 1    
   239  120  241 1    
   240  121  122 am   BACKBONE|DICT|INTERRES
   241  121  123 2    
   242  122  242 1    
   243  122  243 1    
   244  124  125 1    
   245  124  244 1    
   246  124  245 1    
   247  125  126 1    
   248  126  246 1    
   249  126  247 1    
@<TRIPOS>SUBSTRUCTURE
     1 UNK         1 GROUP             0       ****    0 ROOT    
