@<TRIPOS>MOLECULE
3R540
247   249    1
SMALL
USER_CHARGES


@<TRIPOS>ATOM
      1 CA          3.0284  -20.7614  -49.8505 C.3       0 UNK        -0.1800 
      2 C           3.1128  -19.3716  -49.2333 C.2       0 UNK         0.5000 
      3 O           3.9193  -18.5549  -49.6786 O.2       0 UNK        -0.5000 
      4 N           2.2832  -19.1060  -48.2153 N.am      1 UNK        -0.5000 
      5 CA          2.2455  -17.8766  -47.4150 C.3       1 UNK         0.1400 
      6 C6          1.8829  -16.6255  -48.2649 C.3       23 UNK        -0.0398 
      7 S7          0.9268  -15.3974  -47.3167 S.3       23 UNK        -0.2404 
      8 C8          0.1665  -14.4067  -48.6387 C.3       23 UNK        -0.0205 
      9 C9         -0.9787  -15.1368  -49.3249 C.ar      23 UNK        -0.0193 
     10 C10        -0.8374  -15.6024  -50.6357 C.ar      23 UNK        -0.1150 
     11 C11        -1.8950  -16.2404  -51.2921 C.ar      23 UNK        -0.0193 
     12 C12        -3.1058  -16.4122  -50.6058 C.ar      23 UNK        -0.1150 
     13 C13        -3.2570  -15.9670  -49.2887 C.ar      23 UNK        -0.0193 
     14 C14        -2.1920  -15.3210  -48.6569 C.ar      23 UNK        -0.1150 
     15 C15        -4.5782  -16.1794  -48.5574 C.3       23 UNK        -0.0205 
     16 S16        -4.4419  -17.3205  -47.1380 S.3       23 UNK        -0.2404 
     17 C17        -3.6125  -18.7683  -47.8781 C.3       23 UNK        -0.0398 
     18 CA         -2.1529  -18.9008  -47.3541 C.3       11 UNK         0.1400 
     19 N          -2.1053  -19.2442  -45.9303 N.am      11 UNK        -0.5000 
     20 C          -2.4861  -20.4035  -45.3706 C.2       10 UNK         0.5000 
     21 O          -2.9405  -21.3547  -46.0078 O.2       10 UNK        -0.5000 
     22 CA         -2.3423  -20.5314  -43.8400 C.3       10 UNK         0.1400 
     23 CB         -1.1068  -21.3754  -43.4915 C.3       10 UNK        -0.1800 
     24 N          -2.2494  -19.2352  -43.1636 N.am      10 UNK        -0.5000 
     25 C          -3.2873  -18.4015  -42.9894 C.2       9 UNK         0.5000 
     26 O          -4.4484  -18.7021  -43.2687 O.2       9 UNK        -0.5000 
     27 CA         -2.9965  -16.9916  -42.4289 C.3       9 UNK         0.1400 
     28 CB         -3.3846  -16.9136  -40.9444 C.3       9 UNK        -0.1800 
     29 N          -1.6083  -16.5496  -42.5713 N.am      9 UNK        -0.5000 
     30 C          -0.9325  -16.4220  -43.7219 C.2       8 UNK         0.5000 
     31 O          -1.4214  -16.6289  -44.8310 O.2       8 UNK        -0.5000 
     32 CA          0.5594  -16.0644  -43.6066 C.3       8 UNK         0.1400 
     33 CB          0.7398  -14.5426  -43.6851 C.3       8 UNK        -0.1800 
     34 N           1.1854  -16.5641  -42.3793 N.am      8 UNK        -0.5000 
     35 C           1.2678  -17.8516  -42.0110 C.2       7 UNK         0.5000 
     36 O           0.8129  -18.7798  -42.6787 O.2       7 UNK        -0.5000 
     37 CA          1.9188  -18.1470  -40.6488 C.3       7 UNK         0.1400 
     38 CB          3.4469  -18.2441  -40.7609 C.3       7 UNK        -0.1800 
     39 N           1.5732  -17.1263  -39.6618 N.am      7 UNK        -0.5000 
     40 C           0.4707  -17.1536  -38.9020 C.2       6 UNK         0.5000 
     41 O          -0.3443  -18.0763  -38.9096 O.2       6 UNK        -0.5000 
     42 CA          0.2302  -15.9389  -37.9855 C.3       6 UNK         0.1400 
     43 CB          0.8796  -16.1643  -36.6118 C.3       6 UNK        -0.1800 
     44 N           0.7262  -14.6819  -38.5495 N.am      6 UNK        -0.5000 
     45 C           0.2114  -14.0798  -39.6302 C.2       5 UNK         0.5000 
     46 O          -0.7415  -14.5226  -40.2723 O.2       5 UNK        -0.5000 
     47 CA          0.9010  -12.7800  -40.0882 C.3       5 UNK         0.1400 
     48 CB          0.3181  -11.5730  -39.3379 C.3       5 UNK        -0.1800 
     49 N           2.3619  -12.7774  -39.9452 N.am      5 UNK        -0.5000 
     50 C           3.1973  -13.6646  -40.5013 C.2       4 UNK         0.5000 
     51 O           2.8288  -14.6757  -41.1010 O.2       4 UNK        -0.5000 
     52 CA          4.7012  -13.4011  -40.3429 C.3       4 UNK         0.1400 
     53 CB          5.3362  -14.4508  -39.4176 C.3       4 UNK        -0.1800 
     54 N           5.3564  -13.4527  -41.6485 N.am      4 UNK        -0.5000 
     55 C           5.3598  -12.4521  -42.5411 C.2       3 UNK         0.5000 
     56 O           4.8559  -11.3482  -42.3300 O.2       3 UNK        -0.5000 
     57 CA          6.0463  -12.7260  -43.8942 C.3       3 UNK         0.1400 
     58 CB          7.5356  -12.3534  -43.8262 C.3       3 UNK        -0.1800 
     59 N           5.9194  -14.1253  -44.3078 N.am      3 UNK        -0.5000 
     60 C           4.8261  -14.6381  -44.8852 C.2       2 UNK         0.5000 
     61 O           3.8510  -13.9666  -45.2315 O.2       2 UNK        -0.5000 
     62 CA          4.8151  -16.1606  -45.0804 C.3       2 UNK         0.1400 
     63 CB          4.6890  -16.8657  -43.7176 C.3       2 UNK        -0.1800 
     64 N           3.6939  -16.5244  -45.9431 N.am      2 UNK        -0.5000 
     65 C           3.5202  -17.7055  -46.5459 C.2       1 UNK         0.5000 
     66 O           4.3063  -18.6470  -46.4062 O.2       1 UNK        -0.5000 
     67 C          -1.2425  -19.8301  -48.1933 C.2       11 UNK         0.5000 
     68 O          -0.2575  -20.3629  -47.6705 O.2       11 UNK        -0.5000 
     69 N          -1.5376  -19.9852  -49.4902 N.am      12 UNK        -0.5000 
     70 CA         -0.8253  -20.8723  -50.4034 C.3       12 UNK         0.1400 
     71 CB         -1.1501  -20.4732  -51.8497 C.3       12 UNK        -0.1800 
     72 C          -1.1729  -22.3423  -50.1167 C.2       12 UNK         0.5000 
     73 O          -2.0686  -22.8979  -50.7555 O.2       12 UNK        -0.5000 
     74 N          -0.4771  -22.9420  -49.1428 N.am      13 UNK        -0.5000 
     75 CA         -0.6444  -24.3294  -48.6971 C.3       13 UNK         0.1400 
     76 CB          0.3377  -24.6113  -47.5514 C.3       13 UNK        -0.1800 
     77 C          -0.4793  -25.3662  -49.8260 C.2       13 UNK         0.5000 
     78 O          -1.2209  -26.3478  -49.8638 O.2       13 UNK        -0.5000 
     79 N           0.4372  -25.0859  -50.7638 N.am      14 UNK        -0.5000 
     80 CA          0.6719  -25.8652  -51.9835 C.3       14 UNK         0.1400 
     81 CB          1.9620  -25.3613  -52.6483 C.3       14 UNK        -0.1800 
     82 C          -0.5009  -25.8224  -52.9871 C.2       14 UNK         0.5000 
     83 O          -0.6119  -26.7187  -53.8236 O.2       14 UNK        -0.5000 
     84 N          -1.3614  -24.8025  -52.8725 N.am      15 UNK        -0.5000 
     85 CA         -2.5904  -24.6186  -53.6429 C.3       15 UNK         0.1400 
     86 CB         -2.6278  -23.1708  -54.1616 C.3       15 UNK        -0.1800 
     87 C          -3.8271  -24.9526  -52.7835 C.2       15 UNK         0.5000 
     88 O          -4.8965  -24.3829  -53.0098 O.2       15 UNK        -0.5000 
     89 N          -3.6518  -25.8481  -51.7981 N.am      16 UNK        -0.5000 
     90 CA         -4.6522  -26.3366  -50.8449 C.3       16 UNK         0.1400 
     91 CB         -5.7174  -27.1880  -51.5663 C.3       16 UNK        -0.1800 
     92 C          -5.2437  -25.2057  -49.9799 C.2       16 UNK         0.5000 
     93 O          -6.4626  -25.0830  -49.8631 O.2       16 UNK        -0.5000 
     94 N          -4.3496  -24.3797  -49.4170 N.am      17 UNK        -0.5000 
     95 CA         -4.6304  -23.1731  -48.6272 C.3       17 UNK         0.1400 
     96 CB         -5.3640  -23.5176  -47.3146 C.3       17 UNK        -0.1800 
     97 C          -5.3458  -22.0979  -49.4696 C.2       17 UNK         0.5000 
     98 O          -6.3183  -21.4909  -49.0200 O.2       17 UNK        -0.5000 
     99 N          -4.8414  -21.9126  -50.6981 N.am      18 UNK        -0.5000 
    100 CA        -5.3333  -21.0167  -51.7483 C.3       18 UNK         0.1400 
    101 CB        -5.2204  -19.5412  -51.3203 C.3       18 UNK        -0.1800 
    102 C         -6.7284  -21.3683  -52.3073 C.2       18 UNK         0.5000 
    103 O         -7.3311  -20.5343  -52.9850 O.2       18 UNK        -0.5000 
    104 N         -7.2028  -22.6035  -52.0881 N.am      19 UNK        -0.5000 
    105 CA        -8.4324  -23.1281  -52.6911 C.3       19 UNK         0.1400 
    106 CB        -8.8201  -24.4531  -52.0226 C.3       19 UNK        -0.1800 
    107 C         -8.3121  -23.2996  -54.2182 C.2       19 UNK         0.5000 
    108 O         -9.3002  -23.1120  -54.9280 O.2       19 UNK        -0.5000 
    109 N         -7.0938  -23.5857  -54.6998 N.am      20 UNK        -0.5000 
    110 CA        -6.7242  -23.6052  -56.1168 C.3       20 UNK         0.1400 
    111 CB        -5.7205  -24.7459  -56.3612 C.3       20 UNK        -0.1800 
    112 C         -6.1981  -22.2324  -56.5984 C.2       20 UNK         0.5000 
    113 O         -5.3748  -22.1781  -57.5140 O.2       20 UNK        -0.5000 
    114 N         -6.6710  -21.1446  -55.9681 N.am      21 UNK        -0.5000 
    115 CA        -6.4589  -19.7332  -56.3179 C.3       21 UNK         0.1400 
    116 CB        -7.2087  -19.3965  -57.6235 C.3       21 UNK        -0.1800 
    117 C         -4.9771  -19.3024  -56.3552 C.2       21 UNK         0.5000 
    118 O         -4.6019  -18.4559  -57.1685 O.2       21 UNK        -0.5000 
    119 N         -4.1638  -19.9085  -55.4803 N.am      22 UNK        -0.5000 
    120 CA        -2.7019  -19.7326  -55.3869 C.3       22 UNK         0.1400 
    121 C         -1.9079  -20.3206  -56.5956 C.2       22 UNK         0.5000 
    122 N         -2.5031  -21.1494  -57.4475 N.am      22 UNK        -0.7600 
    123 O         -0.7194  -20.0530  -56.7481 O.2       22 UNK        -0.5000 
    124 C124       -2.2691  -18.2795  -55.0280 C.3       23 UNK        -0.0398 
    125 S125       -3.0223  -17.6974  -53.4697 S.3       23 UNK        -0.2404 
    126 C126       -1.6747  -16.7024  -52.7372 C.3       23 UNK        -0.0205 
    127 H127        2.3761  -21.4202  -49.2771 H         1 UNK         0.0600 
    128 H128        4.0184  -21.2163  -49.8822 H         1 UNK         0.0600 
    129 H129        2.6501  -20.6990  -50.8708 H         1 UNK         0.0600 
    130 H130        1.6159  -19.8113  -47.9185 H         1 UNK         0.3000 
    131 H131        1.4334  -18.0508  -46.7067 H         1 UNK         0.0600 
    132 H132        1.2685  -16.9274  -49.1139 H         1 UNK         0.0800 
    133 H133        2.7706  -16.1557  -48.6922 H         1 UNK         0.0800 
    134 H134        0.9321  -14.1122  -49.3582 H         1 UNK         0.0800 
    135 H135       -0.2143  -13.4812  -48.2047 H         1 UNK         0.0800 
    136 H136        0.0996  -15.4559  -51.1547 H         1 UNK         0.1150 
    137 H137       -3.9458  -16.8872  -51.0884 H         1 UNK         0.1150 
    138 H138       -2.3040  -14.9705  -47.6400 H         1 UNK         0.1150 
    139 H139       -4.9463  -15.2167  -48.2005 H         1 UNK         0.0800 
    140 H140       -5.3394  -16.5618  -49.2394 H         1 UNK         0.0800 
    141 H141       -3.6549  -18.6546  -48.9574 H         1 UNK         0.0800 
    142 H142       -4.1964  -19.6618  -47.6537 H         1 UNK         0.0800 
    143 H143       -1.6798  -17.9209  -47.4335 H         1 UNK         0.0600 
    144 H144       -1.7753  -18.4966  -45.3290 H         1 UNK         0.3000 
    145 H145       -3.2254  -21.0541  -43.4668 H         1 UNK         0.0600 
    146 H146       -0.9821  -21.4720  -42.4128 H         1 UNK         0.0600 
    147 H147       -1.1961  -22.3821  -43.9016 H         1 UNK         0.0600 
    148 H148       -0.1945  -20.9387  -43.8992 H         1 UNK         0.0600 
    149 H149       -1.3176  -18.9245  -42.9123 H         1 UNK         0.3000 
    150 H150       -3.6203  -16.2895  -42.9856 H         1 UNK         0.0600 
    151 H151       -4.4265  -17.1998  -40.7950 H         1 UNK         0.0600 
    152 H152       -3.2681  -15.9007  -40.5581 H         1 UNK         0.0600 
    153 H153       -2.7701  -17.5773  -40.3350 H         1 UNK         0.0600 
    154 H154       -1.1253  -16.3086  -41.7151 H         1 UNK         0.3000 
    155 H155        1.0807  -16.5222  -44.4487 H         1 UNK         0.0600 
    156 H156        0.1816  -14.0364  -42.8991 H         1 UNK         0.0600 
    157 H157        0.3801  -14.1537  -44.6378 H         1 UNK         0.0600 
    158 H158        1.7871  -14.2587  -43.5914 H         1 UNK         0.0600 
    159 H159        1.6425  -15.8650  -41.7981 H         1 UNK         0.3000 
    160 H160        1.5503  -19.1193  -40.3143 H         1 UNK         0.0600 
    161 H161        3.8823  -18.6124  -39.8319 H         1 UNK         0.0600 
    162 H162        3.8992  -17.2762  -40.9740 H         1 UNK         0.0600 
    163 H163        3.7411  -18.9336  -41.5532 H         1 UNK         0.0600 
    164 H164        2.1589  -16.3027  -39.6385 H         1 UNK         0.3000 
    165 H165       -0.8483  -15.8430  -37.8422 H         1 UNK         0.0600 
    166 H166        0.6494  -15.3475  -35.9275 H         1 UNK         0.0600 
    167 H167        0.5133  -17.0838  -36.1530 H         1 UNK         0.0600 
    168 H168        1.9648  -16.2447  -36.6873 H         1 UNK         0.0600 
    169 H169        1.5127  -14.2502  -38.0869 H         1 UNK         0.3000 
    170 H170        0.6821  -12.6486  -41.1485 H         1 UNK         0.0600 
    171 H171       -0.7671  -11.5338  -39.4435 H         1 UNK         0.0600 
    172 H172        0.5429  -11.6144  -38.2714 H         1 UNK         0.0600 
    173 H173        0.7141  -10.6357  -39.7291 H         1 UNK         0.0600 
    174 H174        2.7555  -11.9851  -39.4582 H         1 UNK         0.3000 
    175 H175        4.8550  -12.4142  -39.9011 H         1 UNK         0.0600 
    176 H176        5.2294  -15.4606  -39.8157 H         1 UNK         0.0600 
    177 H177        6.3998  -14.2583  -39.2763 H         1 UNK         0.0600 
    178 H178        4.8698  -14.4358  -38.4317 H         1 UNK         0.0600 
    179 H179        5.7498  -14.3409  -41.9173 H         1 UNK         0.3000 
    180 H180        5.5734  -12.0872  -44.6436 H         1 UNK         0.0600 
    181 H181        8.0718  -12.9610  -43.0961 H         1 UNK         0.0600 
    182 H182        7.6634  -11.3084  -43.5408 H         1 UNK         0.0600 
    183 H183        8.0194  -12.4861  -44.7941 H         1 UNK         0.0600 
    184 H184        6.6898  -14.7365  -44.0784 H         1 UNK         0.3000 
    185 H185        5.7470  -16.4547  -45.5675 H         1 UNK         0.0600 
    186 H186        3.7988  -16.5262  -43.1908 H         1 UNK         0.0600 
    187 H187        5.5473  -16.6555  -43.0790 H         1 UNK         0.0600 
    188 H188        4.6266  -17.9487  -43.8203 H         1 UNK         0.0600 
    189 H189        3.0384  -15.7667  -46.1052 H         1 UNK         0.3000 
    190 H190       -2.3332  -19.5026  -49.8772 H         1 UNK         0.3000 
    191 H191        0.2470  -20.7413  -50.2619 H         1 UNK         0.0600 
    192 H192       -0.6822  -21.1550  -52.5610 H         1 UNK         0.0600 
    193 H193       -0.7739  -19.4758  -52.0684 H         1 UNK         0.0600 
    194 H194       -2.2228  -20.4765  -52.0409 H         1 UNK         0.0600 
    195 H195        0.1557  -22.3707  -48.5979 H         1 UNK         0.3000 
    196 H196       -1.6568  -24.4288  -48.3025 H         1 UNK         0.0600 
    197 H197        0.2249  -25.6312  -47.1812 H         1 UNK         0.0600 
    198 H198        0.1631  -23.9403  -46.7098 H         1 UNK         0.0600 
    199 H199        1.3740  -24.4890  -47.8691 H         1 UNK         0.0600 
    200 H200        0.9965  -24.2538  -50.6479 H         1 UNK         0.3000 
    201 H201        0.8176  -26.9083  -51.6951 H         1 UNK         0.0600 
    202 H202        1.8801  -24.3144  -52.9433 H         1 UNK         0.0600 
    203 H203        2.1911  -25.9381  -53.5455 H         1 UNK         0.0600 
    204 H204        2.8156  -25.4563  -51.9769 H         1 UNK         0.0600 
    205 H205       -1.2331  -24.1409  -52.1159 H         1 UNK         0.3000 
    206 H206       -2.6060  -25.2894  -54.5038 H         1 UNK         0.0600 
    207 H207       -1.7311  -22.9362  -54.7351 H         1 UNK         0.0600 
    208 H208       -3.4820  -22.9974  -54.8150 H         1 UNK         0.0600 
    209 H209       -2.6976  -22.4599  -53.3406 H         1 UNK         0.0600 
    210 H210       -2.7192  -26.2155  -51.6631 H         1 UNK         0.3000 
    211 H211       -4.1240  -26.9952  -50.1538 H         1 UNK         0.0600 
    212 H212       -5.2606  -28.0435  -52.0635 H         1 UNK         0.0600 
    213 H213       -6.2539  -26.6162  -52.3222 H         1 UNK         0.0600 
    214 H214       -6.4537  -27.5786  -50.8630 H         1 UNK         0.0600 
    215 H215       -3.3786  -24.5232  -49.6566 H         1 UNK         0.3000 
    216 H216       -3.6635  -22.7489  -48.3536 H         1 UNK         0.0600 
    217 H217       -5.4521  -22.6359  -46.6788 H         1 UNK         0.0600 
    218 H218       -4.8198  -24.2718  -46.7465 H         1 UNK         0.0600 
    219 H219       -6.3723  -23.8915  -47.4936 H         1 UNK         0.0600 
    220 H220       -4.0264  -22.4653  -50.9450 H         1 UNK         0.3000 
    221 H221       -4.6534  -21.1559  -52.5888 H         1 UNK         0.0600 
    222 H222       -5.8435  -19.3118  -50.4560 H         1 UNK         0.0600 
    223 H223       -4.1901  -19.2937  -51.0754 H         1 UNK         0.0600 
    224 H224       -5.5228  -18.8700  -52.1247 H         1 UNK         0.0600 
    225 H225       -6.6427  -23.2548  -51.5537 H         1 UNK         0.3000 
    226 H226       -9.2324  -22.4095  -52.5013 H         1 UNK         0.0600 
    227 H227       -9.7579  -24.8355  -52.4273 H         1 UNK         0.0600 
    228 H228       -8.0600  -25.2170  -52.1786 H         1 UNK         0.0600 
    229 H229       -8.9557  -24.3282  -50.9482 H         1 UNK         0.0600 
    230 H230       -6.3391  -23.7546  -54.0374 H         1 UNK         0.3000 
    231 H231       -7.6096  -23.8227  -56.7172 H         1 UNK         0.0600 
    232 H232       -6.1207  -25.7005  -56.0193 H         1 UNK         0.0600 
    233 H233       -4.7783  -24.5769  -55.8440 H         1 UNK         0.0600 
    234 H234       -5.4969  -24.8520  -57.4234 H         1 UNK         0.0600 
    235 H235       -7.2995  -21.2944  -55.1894 H         1 UNK         0.3000 
    236 H236       -6.9169  -19.1513  -55.5168 H         1 UNK         0.0600 
    237 H237       -8.2584  -19.6834  -57.5604 H         1 UNK         0.0600 
    238 H238       -7.1798  -18.3259  -57.8298 H         1 UNK         0.0600 
    239 H239       -6.7721  -19.9082  -58.4819 H         1 UNK         0.0600 
    240 H240       -4.5674  -20.6032  -54.8728 H         1 UNK         0.3000 
    241 H241       -2.3966  -20.3565  -54.5488 H         1 UNK         0.0600 
    242 H242       -3.4851  -21.3865  -57.3599 H         1 UNK         0.3800 
    243 H243       -1.9712  -21.5278  -58.2147 H         1 UNK         0.3800 
    244 H244       -1.1844  -18.2278  -54.9244 H         1 UNK         0.0800 
    245 H245       -2.5277  -17.5834  -55.8263 H         1 UNK         0.0800 
    246 H246       -0.7475  -17.2743  -52.7799 H         1 UNK         0.0800 
    247 H247       -1.5221  -15.8220  -53.3628 H         1 UNK         0.0800 
@<TRIPOS>BOND
     1    1    2 1    
     2    1  127 1    
     3    1  128 1    
     4    1  129 1    
     5    2    3 2    
     6    2    4 am   BACKBONE|DICT|INTERRES
     7    4    5 1    
     8    4  130 1    
     9    5    6 1    
    10    5   65 1    
    11    5  131 1    
    12    6    7 1    
    13    6  132 1    
    14    6  133 1    
    15    7    8 1    
    16    8    9 1    
    17    8  134 1    
    18    8  135 1    
    19    9   10 ar   
    20    9   14 ar   
    21   10   11 ar   
    22   10  136 1    
    23   11   12 ar   
    24   11  126 1    
    25   12   13 ar   
    26   12  137 1    
    27   13   14 ar   
    28   13   15 1    
    29   14  138 1    
    30   15   16 1    
    31   15  139 1    
    32   15  140 1    
    33   16   17 1    
    34   17   18 1    
    35   17  141 1    
    36   17  142 1    
    37   18   19 1    
    38   18   67 1    
    39   18  143 1    
    40   19   20 am   BACKBONE|DICT|INTERRES
    41   19  144 1    
    42   20   21 2    
    43   20   22 1    
    44   22   23 1    
    45   22   24 1    
    46   22  145 1    
    47   23  146 1    
    48   23  147 1    
    49   23  148 1    
    50   24   25 am   BACKBONE|DICT|INTERRES
    51   24  149 1    
    52   25   26 2    
    53   25   27 1    
    54   27   28 1    
    55   27   29 1    
    56   27  150 1    
    57   28  151 1    
    58   28  152 1    
    59   28  153 1    
    60   29   30 am   BACKBONE|DICT|INTERRES
    61   29  154 1    
    62   30   31 2    
    63   30   32 1    
    64   32   33 1    
    65   32   34 1    
    66   32  155 1    
    67   33  156 1    
    68   33  157 1    
    69   33  158 1    
    70   34   35 am   BACKBONE|DICT|INTERRES
    71   34  159 1    
    72   35   36 2    
    73   35   37 1    
    74   37   38 1    
    75   37   39 1    
    76   37  160 1    
    77   38  161 1    
    78   38  162 1    
    79   38  163 1    
    80   39   40 am   BACKBONE|DICT|INTERRES
    81   39  164 1    
    82   40   41 2    
    83   40   42 1    
    84   42   43 1    
    85   42   44 1    
    86   42  165 1    
    87   43  166 1    
    88   43  167 1    
    89   43  168 1    
    90   44   45 am   BACKBONE|DICT|INTERRES
    91   44  169 1    
    92   45   46 2    
    93   45   47 1    
    94   47   48 1    
    95   47   49 1    
    96   47  170 1    
    97   48  171 1    
    98   48  172 1    
    99   48  173 1    
   100   49   50 am   BACKBONE|DICT|INTERRES
   101   49  174 1    
   102   50   51 2    
   103   50   52 1    
   104   52   53 1    
   105   52   54 1    
   106   52  175 1    
   107   53  176 1    
   108   53  177 1    
   109   53  178 1    
   110   54   55 am   BACKBONE|DICT|INTERRES
   111   54  179 1    
   112   55   56 2    
   113   55   57 1    
   114   57   58 1    
   115   57   59 1    
   116   57  180 1    
   117   58  181 1    
   118   58  182 1    
   119   58  183 1    
   120   59   60 am   BACKBONE|DICT|INTERRES
   121   59  184 1    
   122   60   61 2    
   123   60   62 1    
   124   62   63 1    
   125   62   64 1    
   126   62  185 1    
   127   63  186 1    
   128   63  187 1    
   129   63  188 1    
   130   64   65 am   BACKBONE|DICT|INTERRES
   131   64  189 1    
   132   65   66 2    
   133   67   68 2    
   134   67   69 am   BACKBONE|DICT|INTERRES
   135   69   70 1    
   136   69  190 1    
   137   70   71 1    
   138   70   72 1    
   139   70  191 1    
   140   71  192 1    
   141   71  193 1    
   142   71  194 1    
   143   72   73 2    
   144   72   74 am   BACKBONE|DICT|INTERRES
   145   74   75 1    
   146   74  195 1    
   147   75   76 1    
   148   75   77 1    
   149   75  196 1    
   150   76  197 1    
   151   76  198 1    
   152   76  199 1    
   153   77   78 2    
   154   77   79 am   BACKBONE|DICT|INTERRES
   155   79   80 1    
   156   79  200 1    
   157   80   81 1    
   158   80   82 1    
   159   80  201 1    
   160   81  202 1    
   161   81  203 1    
   162   81  204 1    
   163   82   83 2    
   164   82   84 am   BACKBONE|DICT|INTERRES
   165   84   85 1    
   166   84  205 1    
   167   85   86 1    
   168   85   87 1    
   169   85  206 1    
   170   86  207 1    
   171   86  208 1    
   172   86  209 1    
   173   87   88 2    
   174   87   89 am   BACKBONE|DICT|INTERRES
   175   89   90 1    
   176   89  210 1    
   177   90   91 1    
   178   90   92 1    
   179   90  211 1    
   180   91  212 1    
   181   91  213 1    
   182   91  214 1    
   183   92   93 2    
   184   92   94 am   BACKBONE|DICT|INTERRES
   185   94   95 1    
   186   94  215 1    
   187   95   96 1    
   188   95   97 1    
   189   95  216 1    
   190   96  217 1    
   191   96  218 1    
   192   96  219 1    
   193   97   98 2    
   194   97   99 am   BACKBONE|DICT|INTERRES
   195   99  100 1    
   196   99  220 1    
   197  100  101 1    
   198  100  102 1    
   199  100  221 1    
   200  101  222 1    
   201  101  223 1    
   202  101  224 1    
   203  102  103 2    
   204  102  104 am   BACKBONE|DICT|INTERRES
   205  104  105 1    
   206  104  225 1    
   207  105  106 1    
   208  105  107 1    
   209  105  226 1    
   210  106  227 1    
   211  106  228 1    
   212  106  229 1    
   213  107  108 2    
   214  107  109 am   BACKBONE|DICT|INTERRES
   215  109  110 1    
   216  109  230 1    
   217  110  111 1    
   218  110  112 1    
   219  110  231 1    
   220  111  232 1    
   221  111  233 1    
   222  111  234 1    
   223  112  113 2    
   224  112  114 am   BACKBONE|DICT|INTERRES
   225  114  115 1    
   226  114  235 1    
   227  115  116 1    
   228  115  117 1    
   229  115  236 1    
   230  116  237 1    
   231  116  238 1    
   232  116  239 1    
   233  117  118 2    
   234  117  119 am   BACKBONE|DICT|INTERRES
   235  119  120 1    
   236  119  240 1    
   237  120  121 1    
   238  120  124 1    
   239  120  241 1    
   240  121  122 am   BACKBONE|DICT|INTERRES
   241  121  123 2    
   242  122  242 1    
   243  122  243 1    
   244  124  125 1    
   245  124  244 1    
   246  124  245 1    
   247  125  126 1    
   248  126  246 1    
   249  126  247 1    
@<TRIPOS>SUBSTRUCTURE
     1 UNK         1 GROUP             0       ****    0 ROOT    
