@<TRIPOS>MOLECULE
3R540
247   249    1
SMALL
USER_CHARGES


@<TRIPOS>ATOM
      1 CA         -2.0862  -19.1851  -47.1465 C.3       0 UNK        -0.1800 
      2 C          -2.7700  -18.0461  -47.8835 C.2       0 UNK         0.5000 
      3 O          -3.8951  -18.2042  -48.3530 O.2       0 UNK        -0.5000 
      4 N          -2.0855  -16.9038  -47.9923 N.am      1 UNK        -0.5000 
      5 CA         -2.5132  -15.7446  -48.7892 C.3       1 UNK         0.1400 
      6 C6         -1.3691  -15.2081  -49.6859 C.3       23 UNK        -0.0398 
      7 S7         -0.6934  -16.5039  -50.7799 S.3       23 UNK        -0.2404 
      8 C8          0.8760  -16.8732  -49.9384 C.3       23 UNK        -0.0205 
      9 C9          1.4885  -18.1782  -50.4243 C.ar      23 UNK        -0.0193 
     10 C10         1.9362  -18.2979  -51.7417 C.ar      23 UNK        -0.1150 
     11 C11         2.5237  -19.4846  -52.1852 C.ar      23 UNK        -0.0193 
     12 C12         2.6800  -20.5499  -51.2941 C.ar      23 UNK        -0.1150 
     13 C13         2.2368  -20.4510  -49.9712 C.ar      23 UNK        -0.0193 
     14 C14         1.6295  -19.2602  -49.5500 C.ar      23 UNK        -0.1150 
     15 C15         2.3995  -21.6594  -49.0471 C.3       23 UNK        -0.0205 
     16 S16         2.8293  -21.2547  -47.3182 S.3       23 UNK        -0.2404 
     17 C17         1.1714  -21.0746  -46.5813 C.3       23 UNK        -0.0398 
     18 CA          0.7438  -22.3088  -45.7528 C.3       11 UNK         0.1400 
     19 N           1.6252  -22.5676  -44.6114 N.am      11 UNK        -0.5000 
     20 C           1.7233  -23.7504  -43.9856 C.2       10 UNK         0.5000 
     21 O           1.0734  -24.7445  -44.3121 O.2       10 UNK        -0.5000 
     22 CA          2.6797  -23.8412  -42.7788 C.3       10 UNK         0.1400 
     23 CB          4.0327  -24.4238  -43.2141 C.3       10 UNK        -0.1800 
     24 N           2.9108  -22.5591  -42.1119 N.am      10 UNK        -0.5000 
     25 C           1.9745  -21.8286  -41.4901 C.2       9 UNK         0.5000 
     26 O           0.8052  -22.1883  -41.3600 O.2       9 UNK        -0.5000 
     27 CA          2.4066  -20.4391  -40.9793 C.3       9 UNK         0.1400 
     28 CB          2.8053  -20.5106  -39.4980 C.3       9 UNK        -0.1800 
     29 N           3.5052  -19.8383  -41.7471 N.am      9 UNK        -0.5000 
     30 C           3.4496  -19.5509  -43.0537 C.2       8 UNK         0.5000 
     31 O           2.4769  -19.8022  -43.7685 O.2       8 UNK        -0.5000 
     32 CA          4.6984  -18.9315  -43.6853 C.3       8 UNK         0.1400 
     33 CB          5.6508  -20.0407  -44.1720 C.3       8 UNK        -0.1800 
     34 N           4.2505  -18.1102  -44.8015 N.am      8 UNK        -0.5000 
     35 C           4.9834  -17.2365  -45.4961 C.2       7 UNK         0.5000 
     36 O           6.1724  -17.0011  -45.2768 O.2       7 UNK        -0.5000 
     37 CA          4.2462  -16.4859  -46.6172 C.3       7 UNK         0.1400 
     38 CB          4.0013  -17.4081  -47.8186 C.3       7 UNK        -0.1800 
     39 N           2.9733  -15.9177  -46.1662 N.am      7 UNK        -0.5000 
     40 C           2.8709  -14.8475  -45.3686 C.2       6 UNK         0.5000 
     41 O           3.8410  -14.2543  -44.8954 O.2       6 UNK        -0.5000 
     42 CA          1.4559  -14.3279  -45.0597 C.3       6 UNK         0.1400 
     43 CB          0.8160  -13.6755  -46.3015 C.3       6 UNK        -0.1800 
     44 N           0.5666  -15.3177  -44.4441 N.am      6 UNK        -0.5000 
     45 C          -0.0028  -16.4027  -44.9811 C.2       5 UNK         0.5000 
     46 O           0.1973  -16.7768  -46.1389 O.2       5 UNK        -0.5000 
     47 CA         -1.0173  -17.1753  -44.1097 C.3       5 UNK         0.1400 
     48 CB         -0.4398  -18.5019  -43.5944 C.3       5 UNK        -0.1800 
     49 N          -1.6360  -16.4081  -43.0178 N.am      5 UNK        -0.5000 
     50 C          -1.0850  -15.9371  -41.8877 C.2       4 UNK         0.5000 
     51 O           0.1099  -16.0622  -41.6206 O.2       4 UNK        -0.5000 
     52 CA         -1.9956  -15.1458  -40.9211 C.3       4 UNK         0.1400 
     53 CB         -1.3231  -13.8352  -40.4763 C.3       4 UNK        -0.1800 
     54 N          -3.2902  -14.8151  -41.5197 N.am      4 UNK        -0.5000 
     55 C          -4.4167  -15.5314  -41.4029 C.2       3 UNK         0.5000 
     56 O          -4.5250  -16.5316  -40.6939 O.2       3 UNK        -0.5000 
     57 CA         -5.6110  -15.0702  -42.2673 C.3       3 UNK         0.1400 
     58 CB         -6.5263  -14.1321  -41.4661 C.3       3 UNK        -0.1800 
     59 N          -5.1994  -14.3996  -43.5086 N.am      3 UNK        -0.5000 
     60 C          -4.5065  -14.9921  -44.4900 C.2       2 UNK         0.5000 
     61 O          -4.2014  -16.1883  -44.4782 O.2       2 UNK        -0.5000 
     62 CA         -4.0019  -14.0916  -45.6263 C.3       2 UNK         0.1400 
     63 CB         -2.9590  -13.0841  -45.1027 C.3       2 UNK        -0.1800 
     64 N          -3.3979  -14.9498  -46.6377 N.am      2 UNK        -0.5000 
     65 C          -3.1238  -14.6337  -47.9068 C.2       1 UNK         0.5000 
     66 O          -3.3416  -13.5209  -48.3879 O.2       1 UNK        -0.5000 
     67 C          -0.7398  -22.1951  -45.3474 C.2       11 UNK         0.5000 
     68 O          -1.5898  -22.2434  -46.2339 O.2       11 UNK        -0.5000 
     69 N          -1.0529  -22.0831  -44.0452 N.am      12 UNK        -0.5000 
     70 CA         -2.4230  -22.0011  -43.5211 C.3       12 UNK         0.1400 
     71 CB         -2.3790  -21.8259  -41.9963 C.3       12 UNK        -0.1800 
     72 C          -3.3074  -23.2096  -43.8931 C.2       12 UNK         0.5000 
     73 O          -4.5177  -23.0525  -44.0489 O.2       12 UNK        -0.5000 
     74 N          -2.6823  -24.3802  -44.0811 N.am      13 UNK        -0.5000 
     75 CA         -3.3205  -25.6048  -44.5669 C.3       13 UNK         0.1400 
     76 CB         -2.3644  -26.7827  -44.3234 C.3       13 UNK        -0.1800 
     77 C          -3.7303  -25.5438  -46.0549 C.2       13 UNK         0.5000 
     78 O          -4.5728  -26.3370  -46.4761 O.2       13 UNK        -0.5000 
     79 N          -3.1340  -24.6199  -46.8202 N.am      14 UNK        -0.5000 
     80 CA         -3.3845  -24.3981  -48.2442 C.3       14 UNK         0.1400 
     81 CB         -2.0306  -24.3400  -48.9737 C.3       14 UNK        -0.1800 
     82 C          -4.1983  -23.1143  -48.4973 C.2       14 UNK         0.5000 
     83 O          -4.3974  -22.7505  -49.6568 O.2       14 UNK        -0.5000 
     84 N          -4.6483  -22.4321  -47.4355 N.am      15 UNK        -0.5000 
     85 CA         -5.4608  -21.2221  -47.5321 C.3       15 UNK         0.1400 
     86 CB         -5.4700  -20.5138  -46.1688 C.3       15 UNK        -0.1800 
     87 C          -6.9056  -21.5560  -47.9662 C.2       15 UNK         0.5000 
     88 O          -7.4354  -22.5771  -47.5264 O.2       15 UNK        -0.5000 
     89 N          -7.5824  -20.7287  -48.7757 N.am      16 UNK        -0.5000 
     90 CA         -7.0936  -19.5314  -49.4717 C.3       16 UNK         0.1400 
     91 CB         -8.2744  -18.5618  -49.6392 C.3       16 UNK        -0.1800 
     92 C          -6.4752  -19.8564  -50.8500 C.2       16 UNK         0.5000 
     93 O          -5.9742  -18.9494  -51.5153 O.2       16 UNK        -0.5000 
     94 N          -6.5451  -21.1310  -51.2659 N.am      17 UNK        -0.5000 
     95 CA         -6.1563  -21.6511  -52.5811 C.3       17 UNK         0.1400 
     96 CB         -6.4050  -23.1661  -52.6174 C.3       17 UNK        -0.1800 
     97 C          -4.7128  -21.3348  -53.0113 C.2       17 UNK         0.5000 
     98 O          -4.4717  -21.1651  -54.2064 O.2       17 UNK        -0.5000 
     99 N          -3.7941  -21.2094  -52.0438 N.am      18 UNK        -0.5000 
    100 CA        -2.4011  -20.7938  -52.2334 C.3       18 UNK         0.1400 
    101 CB        -1.7204  -20.6675  -50.8621 C.3       18 UNK        -0.1800 
    102 C         -2.2407  -19.4835  -53.0322 C.2       18 UNK         0.5000 
    103 O         -1.3414  -19.3948  -53.8654 O.2       18 UNK        -0.5000 
    104 N         -3.1518  -18.5229  -52.8141 N.am      19 UNK        -0.5000 
    105 CA        -3.1747  -17.2326  -53.5065 C.3       19 UNK         0.1400 
    106 CB        -4.0982  -16.2724  -52.7418 C.3       19 UNK        -0.1800 
    107 C         -3.6070  -17.3258  -54.9832 C.2       19 UNK         0.5000 
    108 O         -3.3116  -16.4110  -55.7533 O.2       19 UNK        -0.5000 
    109 N         -4.3086  -18.4051  -55.3530 N.am      20 UNK        -0.5000 
    110 CA        -4.6959  -18.7035  -56.7304 C.3       20 UNK         0.1400 
    111 CB        -6.0800  -19.3721  -56.7358 C.3       20 UNK        -0.1800 
    112 C         -3.6526  -19.6046  -57.4121 C.2       20 UNK         0.5000 
    113 O         -3.3817  -19.4280  -58.6005 O.2       20 UNK        -0.5000 
    114 N         -3.0932  -20.5559  -56.6519 N.am      21 UNK        -0.5000 
    115 CA        -2.1138  -21.5375  -57.1138 C.3       21 UNK         0.1400 
    116 CB        -1.9528  -22.6245  -56.0398 C.3       21 UNK        -0.1800 
    117 C         -0.7437  -20.9323  -57.4697 C.2       21 UNK         0.5000 
    118 O         -0.0990  -21.4155  -58.4022 O.2       21 UNK        -0.5000 
    119 N         -0.3156  -19.9052  -56.7292 N.am      22 UNK        -0.5000 
    120 CA         1.0032  -19.2720  -56.8586 C.3       22 UNK         0.1400 
    121 C          1.0116  -17.8091  -56.3320 C.2       22 UNK         0.5000 
    122 N          2.1270  -17.1012  -56.4599 N.am      22 UNK        -0.7600 
    123 O          0.0169  -17.2875  -55.8353 O.2       22 UNK        -0.5000 
    124 C124        2.1452  -20.1584  -56.2765 C.3       23 UNK        -0.0398 
    125 S125        1.8549  -20.7066  -54.5578 S.3       23 UNK        -0.2404 
    126 C126        2.9774  -19.6188  -53.6293 C.3       23 UNK        -0.0205 
    127 H127       -1.0108  -19.0258  -47.0800 H         1 UNK         0.0600 
    128 H128       -2.2562  -20.1234  -47.6742 H         1 UNK         0.0600 
    129 H129       -2.4800  -19.2822  -46.1365 H         1 UNK         0.0600 
    130 H130       -1.1794  -16.8223  -47.5406 H         1 UNK         0.3000 
    131 H131       -3.3197  -16.0492  -49.4574 H         1 UNK         0.0600 
    132 H132       -1.7333  -14.4025  -50.3257 H         1 UNK         0.0800 
    133 H133       -0.5691  -14.7771  -49.0834 H         1 UNK         0.0800 
    134 H134        1.5776  -16.0565  -50.1125 H         1 UNK         0.0800 
    135 H135        0.7103  -16.9138  -48.8612 H         1 UNK         0.0800 
    136 H136        1.8135  -17.4681  -52.4238 H         1 UNK         0.1150 
    137 H137        3.1330  -21.4672  -51.6434 H         1 UNK         0.1150 
    138 H138        1.2766  -19.1574  -48.5362 H         1 UNK         0.1150 
    139 H139        1.4877  -22.2574  -49.0761 H         1 UNK         0.0800 
    140 H140        3.1926  -22.3039  -49.4290 H         1 UNK         0.0800 
    141 H141        0.4528  -20.9011  -47.3832 H         1 UNK         0.0800 
    142 H142        1.1678  -20.1710  -45.9738 H         1 UNK         0.0800 
    143 H143        0.8034  -23.1741  -46.4169 H         1 UNK         0.0600 
    144 H144        2.1549  -21.7720  -44.2720 H         1 UNK         0.3000 
    145 H145        2.2284  -24.5205  -42.0528 H         1 UNK         0.0600 
    146 H146        4.6937  -24.5697  -42.3595 H         1 UNK         0.0600 
    147 H147        3.9041  -25.3954  -43.6931 H         1 UNK         0.0600 
    148 H148        4.5407  -23.7715  -43.9258 H         1 UNK         0.0600 
    149 H149        3.8435  -22.1795  -42.1739 H         1 UNK         0.3000 
    150 H150        1.5412  -19.7789  -41.0690 H         1 UNK         0.0600 
    151 H151        3.6873  -21.1344  -39.3481 H         1 UNK         0.0600 
    152 H152        1.9987  -20.9319  -38.8962 H         1 UNK         0.0600 
    153 H153        3.0217  -19.5194  -39.0991 H         1 UNK         0.0600 
    154 H154        4.3446  -19.6175  -41.2306 H         1 UNK         0.3000 
    155 H155        5.1994  -18.2977  -42.9511 H         1 UNK         0.0600 
    156 H156        5.1787  -20.6691  -44.9289 H         1 UNK         0.0600 
    157 H157        5.9528  -20.6885  -43.3483 H         1 UNK         0.0600 
    158 H158        6.5619  -19.6270  -44.6037 H         1 UNK         0.0600 
    159 H159        3.2746  -18.2437  -45.0354 H         1 UNK         0.3000 
    160 H160        4.8894  -15.6683  -46.9500 H         1 UNK         0.0600 
    161 H161        3.3266  -18.2240  -47.5621 H         1 UNK         0.0600 
    162 H162        4.9331  -17.8530  -48.1698 H         1 UNK         0.0600 
    163 H163        3.5693  -16.8596  -48.6548 H         1 UNK         0.0600 
    164 H164        2.1154  -16.3645  -46.4720 H         1 UNK         0.3000 
    165 H165        1.5700  -13.5423  -44.3110 H         1 UNK         0.0600 
    166 H166        1.4410  -12.8647  -46.6774 H         1 UNK         0.0600 
    167 H167       -0.1590  -13.2503  -46.0691 H         1 UNK         0.0600 
    168 H168        0.6865  -14.3858  -47.1170 H         1 UNK         0.0600 
    169 H169        0.3993  -15.1837  -43.4536 H         1 UNK         0.3000 
    170 H170       -1.8409  -17.4255  -44.7772 H         1 UNK         0.0600 
    171 H171       -1.1899  -19.0678  -43.0441 H         1 UNK         0.0600 
    172 H172       -0.1080  -19.1270  -44.4208 H         1 UNK         0.0600 
    173 H173        0.4136  -18.3457  -42.9353 H         1 UNK         0.0600 
    174 H174       -2.6251  -16.2362  -43.1565 H         1 UNK         0.3000 
    175 H175       -2.1446  -15.7683  -40.0366 H         1 UNK         0.0600 
    176 H176       -1.9604  -13.2801  -39.7876 H         1 UNK         0.0600 
    177 H177       -0.3835  -14.0291  -39.9574 H         1 UNK         0.0600 
    178 H178       -1.1026  -13.1871  -41.3255 H         1 UNK         0.0600 
    179 H179       -3.3080  -14.0030  -42.1187 H         1 UNK         0.3000 
    180 H180       -6.1838  -15.9597  -42.5383 H         1 UNK         0.0600 
    181 H181       -6.0130  -13.2120  -41.1838 H         1 UNK         0.0600 
    182 H182       -6.8693  -14.6115  -40.5482 H         1 UNK         0.0600 
    183 H183       -7.4128  -13.8608  -42.0397 H         1 UNK         0.0600 
    184 H184       -5.4199  -13.4166  -43.5834 H         1 UNK         0.3000 
    185 H185       -4.8539  -13.5639  -46.0592 H         1 UNK         0.0600 
    186 H186       -3.3930  -12.4101  -44.3638 H         1 UNK         0.0600 
    187 H187       -2.1151  -13.5900  -44.6317 H         1 UNK         0.0600 
    188 H188       -2.5681  -12.4611  -45.9070 H         1 UNK         0.0600 
    189 H189       -3.2651  -15.9062  -46.3330 H         1 UNK         0.3000 
    190 H190       -0.3071  -22.0714  -43.3605 H         1 UNK         0.3000 
    191 H191       -2.8845  -21.1115  -43.9541 H         1 UNK         0.0600 
    192 H192       -1.8002  -20.9481  -41.7106 H         1 UNK         0.0600 
    193 H193       -3.3827  -21.6993  -41.5887 H         1 UNK         0.0600 
    194 H194       -1.9329  -22.6925  -41.5068 H         1 UNK         0.0600 
    195 H195       -1.6820  -24.4170  -43.9420 H         1 UNK         0.3000 
    196 H196       -4.2281  -25.7728  -43.9835 H         1 UNK         0.0600 
    197 H197       -2.8097  -27.7236  -44.6492 H         1 UNK         0.0600 
    198 H198       -2.1277  -26.8864  -43.2643 H         1 UNK         0.0600 
    199 H199       -1.4263  -26.6570  -44.8661 H         1 UNK         0.0600 
    200 H200       -2.4910  -23.9606  -46.3927 H         1 UNK         0.3000 
    201 H201       -3.9590  -25.2259  -48.6639 H         1 UNK         0.0600 
    202 H202       -2.1677  -24.2284  -50.0501 H         1 UNK         0.0600 
    203 H203       -1.4236  -23.5010  -48.6320 H         1 UNK         0.0600 
    204 H204       -1.4582  -25.2538  -48.8143 H         1 UNK         0.0600 
    205 H205       -4.4837  -22.8007  -46.5098 H         1 UNK         0.3000 
    206 H206       -4.9715  -20.5798  -48.2623 H         1 UNK         0.0600 
    207 H207       -4.4606  -20.3609  -45.7922 H         1 UNK         0.0600 
    208 H208       -5.9428  -19.5338  -46.2435 H         1 UNK         0.0600 
    209 H209       -6.0165  -21.0884  -45.4198 H         1 UNK         0.0600 
    210 H210       -8.5370  -20.9761  -48.9920 H         1 UNK         0.3000 
    211 H211       -6.3447  -19.0160  -48.8715 H         1 UNK         0.0600 
    212 H212       -9.0655  -18.9908  -50.2555 H         1 UNK         0.0600 
    213 H213       -7.9549  -17.6334  -50.1147 H         1 UNK         0.0600 
    214 H214       -8.7066  -18.2964  -48.6741 H         1 UNK         0.0600 
    215 H215       -6.9407  -21.8060  -50.6284 H         1 UNK         0.3000 
    216 H216       -6.8148  -21.1822  -53.3148 H         1 UNK         0.0600 
    217 H217       -6.1518  -23.5809  -53.5941 H         1 UNK         0.0600 
    218 H218       -7.4528  -23.4000  -52.4284 H         1 UNK         0.0600 
    219 H219       -5.8036  -23.6893  -51.8729 H         1 UNK         0.0600 
    220 H220       -4.0717  -21.4603  -51.0995 H         1 UNK         0.3000 
    221 H221       -1.8991  -21.5860  -52.7911 H         1 UNK         0.0600 
    222 H222       -2.1984  -19.9036  -50.2486 H         1 UNK         0.0600 
    223 H223       -1.7504  -21.6081  -50.3132 H         1 UNK         0.0600 
    224 H224       -0.6721  -20.3891  -50.9750 H         1 UNK         0.0600 
    225 H225       -3.9053  -18.6996  -52.1594 H         1 UNK         0.3000 
    226 H226       -2.1630  -16.8215  -53.4904 H         1 UNK         0.0600 
    227 H227       -4.0949  -15.2812  -53.1967 H         1 UNK         0.0600 
    228 H228       -5.1294  -16.6273  -52.7334 H         1 UNK         0.0600 
    229 H229       -3.7753  -16.1554  -51.7092 H         1 UNK         0.0600 
    230 H230       -4.4810  -19.1306  -54.6677 H         1 UNK         0.3000 
    231 H231       -4.7710  -17.7793  -57.3074 H         1 UNK         0.0600 
    232 H232       -6.0783  -20.3187  -56.1948 H         1 UNK         0.0600 
    233 H233       -6.4072  -19.5790  -57.7555 H         1 UNK         0.0600 
    234 H234       -6.8300  -18.7268  -56.2783 H         1 UNK         0.0600 
    235 H235       -3.4240  -20.6675  -55.6979 H         1 UNK         0.3000 
    236 H236       -2.5125  -22.0075  -58.0152 H         1 UNK         0.0600 
    237 H237       -1.5566  -22.2118  -55.1115 H         1 UNK         0.0600 
    238 H238       -2.9058  -23.1038  -55.8144 H         1 UNK         0.0600 
    239 H239       -1.2655  -23.4036  -56.3718 H         1 UNK         0.0600 
    240 H240       -0.8777  -19.5615  -55.9562 H         1 UNK         0.3000 
    241 H241        1.1892  -19.1640  -57.9288 H         1 UNK         0.0600 
    242 H242        2.9531  -17.4765  -56.8984 H         1 UNK         0.3800 
    243 H243        2.1331  -16.1475  -56.1334 H         1 UNK         0.3800 
    244 H244        3.1142  -19.6639  -56.3523 H         1 UNK         0.0800 
    245 H245        2.2423  -21.0578  -56.8855 H         1 UNK         0.0800 
    246 H246        3.0154  -18.6363  -54.1016 H         1 UNK         0.0800 
    247 H247        3.9903  -20.0221  -53.6664 H         1 UNK         0.0800 
@<TRIPOS>BOND
     1    1    2 1    
     2    1  127 1    
     3    1  128 1    
     4    1  129 1    
     5    2    3 2    
     6    2    4 am   BACKBONE|DICT|INTERRES
     7    4    5 1    
     8    4  130 1    
     9    5    6 1    
    10    5   65 1    
    11    5  131 1    
    12    6    7 1    
    13    6  132 1    
    14    6  133 1    
    15    7    8 1    
    16    8    9 1    
    17    8  134 1    
    18    8  135 1    
    19    9   10 ar   
    20    9   14 ar   
    21   10   11 ar   
    22   10  136 1    
    23   11   12 ar   
    24   11  126 1    
    25   12   13 ar   
    26   12  137 1    
    27   13   14 ar   
    28   13   15 1    
    29   14  138 1    
    30   15   16 1    
    31   15  139 1    
    32   15  140 1    
    33   16   17 1    
    34   17   18 1    
    35   17  141 1    
    36   17  142 1    
    37   18   19 1    
    38   18   67 1    
    39   18  143 1    
    40   19   20 am   BACKBONE|DICT|INTERRES
    41   19  144 1    
    42   20   21 2    
    43   20   22 1    
    44   22   23 1    
    45   22   24 1    
    46   22  145 1    
    47   23  146 1    
    48   23  147 1    
    49   23  148 1    
    50   24   25 am   BACKBONE|DICT|INTERRES
    51   24  149 1    
    52   25   26 2    
    53   25   27 1    
    54   27   28 1    
    55   27   29 1    
    56   27  150 1    
    57   28  151 1    
    58   28  152 1    
    59   28  153 1    
    60   29   30 am   BACKBONE|DICT|INTERRES
    61   29  154 1    
    62   30   31 2    
    63   30   32 1    
    64   32   33 1    
    65   32   34 1    
    66   32  155 1    
    67   33  156 1    
    68   33  157 1    
    69   33  158 1    
    70   34   35 am   BACKBONE|DICT|INTERRES
    71   34  159 1    
    72   35   36 2    
    73   35   37 1    
    74   37   38 1    
    75   37   39 1    
    76   37  160 1    
    77   38  161 1    
    78   38  162 1    
    79   38  163 1    
    80   39   40 am   BACKBONE|DICT|INTERRES
    81   39  164 1    
    82   40   41 2    
    83   40   42 1    
    84   42   43 1    
    85   42   44 1    
    86   42  165 1    
    87   43  166 1    
    88   43  167 1    
    89   43  168 1    
    90   44   45 am   BACKBONE|DICT|INTERRES
    91   44  169 1    
    92   45   46 2    
    93   45   47 1    
    94   47   48 1    
    95   47   49 1    
    96   47  170 1    
    97   48  171 1    
    98   48  172 1    
    99   48  173 1    
   100   49   50 am   BACKBONE|DICT|INTERRES
   101   49  174 1    
   102   50   51 2    
   103   50   52 1    
   104   52   53 1    
   105   52   54 1    
   106   52  175 1    
   107   53  176 1    
   108   53  177 1    
   109   53  178 1    
   110   54   55 am   BACKBONE|DICT|INTERRES
   111   54  179 1    
   112   55   56 2    
   113   55   57 1    
   114   57   58 1    
   115   57   59 1    
   116   57  180 1    
   117   58  181 1    
   118   58  182 1    
   119   58  183 1    
   120   59   60 am   BACKBONE|DICT|INTERRES
   121   59  184 1    
   122   60   61 2    
   123   60   62 1    
   124   62   63 1    
   125   62   64 1    
   126   62  185 1    
   127   63  186 1    
   128   63  187 1    
   129   63  188 1    
   130   64   65 am   BACKBONE|DICT|INTERRES
   131   64  189 1    
   132   65   66 2    
   133   67   68 2    
   134   67   69 am   BACKBONE|DICT|INTERRES
   135   69   70 1    
   136   69  190 1    
   137   70   71 1    
   138   70   72 1    
   139   70  191 1    
   140   71  192 1    
   141   71  193 1    
   142   71  194 1    
   143   72   73 2    
   144   72   74 am   BACKBONE|DICT|INTERRES
   145   74   75 1    
   146   74  195 1    
   147   75   76 1    
   148   75   77 1    
   149   75  196 1    
   150   76  197 1    
   151   76  198 1    
   152   76  199 1    
   153   77   78 2    
   154   77   79 am   BACKBONE|DICT|INTERRES
   155   79   80 1    
   156   79  200 1    
   157   80   81 1    
   158   80   82 1    
   159   80  201 1    
   160   81  202 1    
   161   81  203 1    
   162   81  204 1    
   163   82   83 2    
   164   82   84 am   BACKBONE|DICT|INTERRES
   165   84   85 1    
   166   84  205 1    
   167   85   86 1    
   168   85   87 1    
   169   85  206 1    
   170   86  207 1    
   171   86  208 1    
   172   86  209 1    
   173   87   88 2    
   174   87   89 am   BACKBONE|DICT|INTERRES
   175   89   90 1    
   176   89  210 1    
   177   90   91 1    
   178   90   92 1    
   179   90  211 1    
   180   91  212 1    
   181   91  213 1    
   182   91  214 1    
   183   92   93 2    
   184   92   94 am   BACKBONE|DICT|INTERRES
   185   94   95 1    
   186   94  215 1    
   187   95   96 1    
   188   95   97 1    
   189   95  216 1    
   190   96  217 1    
   191   96  218 1    
   192   96  219 1    
   193   97   98 2    
   194   97   99 am   BACKBONE|DICT|INTERRES
   195   99  100 1    
   196   99  220 1    
   197  100  101 1    
   198  100  102 1    
   199  100  221 1    
   200  101  222 1    
   201  101  223 1    
   202  101  224 1    
   203  102  103 2    
   204  102  104 am   BACKBONE|DICT|INTERRES
   205  104  105 1    
   206  104  225 1    
   207  105  106 1    
   208  105  107 1    
   209  105  226 1    
   210  106  227 1    
   211  106  228 1    
   212  106  229 1    
   213  107  108 2    
   214  107  109 am   BACKBONE|DICT|INTERRES
   215  109  110 1    
   216  109  230 1    
   217  110  111 1    
   218  110  112 1    
   219  110  231 1    
   220  111  232 1    
   221  111  233 1    
   222  111  234 1    
   223  112  113 2    
   224  112  114 am   BACKBONE|DICT|INTERRES
   225  114  115 1    
   226  114  235 1    
   227  115  116 1    
   228  115  117 1    
   229  115  236 1    
   230  116  237 1    
   231  116  238 1    
   232  116  239 1    
   233  117  118 2    
   234  117  119 am   BACKBONE|DICT|INTERRES
   235  119  120 1    
   236  119  240 1    
   237  120  121 1    
   238  120  124 1    
   239  120  241 1    
   240  121  122 am   BACKBONE|DICT|INTERRES
   241  121  123 2    
   242  122  242 1    
   243  122  243 1    
   244  124  125 1    
   245  124  244 1    
   246  124  245 1    
   247  125  126 1    
   248  126  246 1    
   249  126  247 1    
@<TRIPOS>SUBSTRUCTURE
     1 UNK         1 GROUP             0       ****    0 ROOT    
