@<TRIPOS>MOLECULE
3R540
247   249    1
SMALL
USER_CHARGES


@<TRIPOS>ATOM
      1 CA          6.5294  -12.2186  -49.9136 C.3       0 UNK        -0.1800 
      2 C           6.1468  -12.6929  -48.5187 C.2       0 UNK         0.5000 
      3 O           6.9033  -12.4814  -47.5711 O.2       0 UNK        -0.5000 
      4 N           4.9789  -13.3356  -48.3937 N.am      1 UNK        -0.5000 
      5 CA          4.4361  -13.8408  -47.1252 C.3       1 UNK         0.1400 
      6 C6          3.4235  -14.9925  -47.3447 C.3       23 UNK        -0.0398 
      7 S7          4.2442  -16.5045  -47.9503 S.3       23 UNK        -0.2404 
      8 C8          3.9420  -16.4189  -49.7436 C.3       23 UNK        -0.0205 
      9 C9          2.6389  -17.0976  -50.1330 C.ar      23 UNK        -0.0193 
     10 C10         1.4777  -16.3512  -50.3497 C.ar      23 UNK        -0.1150 
     11 C11         0.2958  -16.9837  -50.7471 C.ar      23 UNK        -0.0193 
     12 C12         0.2728  -18.3732  -50.9000 C.ar      23 UNK        -0.1150 
     13 C13         1.4272  -19.1320  -50.6864 C.ar      23 UNK        -0.0193 
     14 C14         2.6091  -18.4822  -50.3136 C.ar      23 UNK        -0.1150 
     15 C15         1.3851  -20.6454  -50.8885 C.3       23 UNK        -0.0205 
     16 S16         2.3507  -21.5854  -49.6563 S.3       23 UNK        -0.2404 
     17 C17         1.5325  -21.0782  -48.1065 C.3       23 UNK        -0.0398 
     18 CA          0.6751  -22.1924  -47.4696 C.3       11 UNK         0.1400 
     19 N           0.3036  -21.8518  -46.0971 N.am      11 UNK        -0.5000 
     20 C          -0.2825  -22.6883  -45.2311 C.2       10 UNK         0.5000 
     21 O          -0.5189  -23.8720  -45.4745 O.2       10 UNK        -0.5000 
     22 CA         -0.7228  -22.0812  -43.8870 C.3       10 UNK         0.1400 
     23 CB          0.4640  -21.9853  -42.9171 C.3       10 UNK        -0.1800 
     24 N          -1.3387  -20.7616  -44.0472 N.am      10 UNK        -0.5000 
     25 C          -2.4846  -20.5406  -44.7082 C.2       9 UNK         0.5000 
     26 O          -3.1683  -21.4373  -45.2012 O.2       9 UNK        -0.5000 
     27 CA         -2.9212  -19.0753  -44.8882 C.3       9 UNK         0.1400 
     28 CB         -3.5871  -18.5429  -43.6111 C.3       9 UNK        -0.1800 
     29 N          -1.8169  -18.1956  -45.2724 N.am      9 UNK        -0.5000 
     30 C          -1.1279  -18.2869  -46.4190 C.2       8 UNK         0.5000 
     31 O          -1.3710  -19.1102  -47.2979 O.2       8 UNK        -0.5000 
     32 CA          0.0674  -17.3334  -46.5913 C.3       8 UNK         0.1400 
     33 CB         -0.4000  -15.9454  -47.0550 C.3       8 UNK        -0.1800 
     34 N           0.8505  -17.2139  -45.3613 N.am      8 UNK        -0.5000 
     35 C           1.5416  -18.2212  -44.8076 C.2       7 UNK         0.5000 
     36 O           1.6296  -19.3458  -45.3001 O.2       7 UNK        -0.5000 
     37 CA          2.1938  -17.9378  -43.4448 C.3       7 UNK         0.1400 
     38 CB          3.5287  -17.1982  -43.6235 C.3       7 UNK        -0.1800 
     39 N           1.3085  -17.1672  -42.5698 N.am      7 UNK        -0.5000 
     40 C           0.1885  -17.6586  -42.0159 C.2       6 UNK         0.5000 
     41 O          -0.1834  -18.8231  -42.1574 O.2       6 UNK        -0.5000 
     42 CA         -0.6913  -16.6834  -41.2062 C.3       6 UNK         0.1400 
     43 CB         -0.2448  -16.6506  -39.7373 C.3       6 UNK        -0.1800 
     44 N          -0.6879  -15.3211  -41.7400 N.am      6 UNK        -0.5000 
     45 C          -1.0832  -14.9798  -42.9738 C.2       5 UNK         0.5000 
     46 O          -1.6055  -15.7703  -43.7584 O.2       5 UNK        -0.5000 
     47 CA         -0.8022  -13.5367  -43.4391 C.3       5 UNK         0.1400 
     48 CB         -2.0838  -12.6937  -43.3739 C.3       5 UNK        -0.1800 
     49 N           0.2643  -12.8353  -42.7149 N.am      5 UNK        -0.5000 
     50 C           1.5295  -13.2447  -42.5504 C.2       4 UNK         0.5000 
     51 O           1.9400  -14.3432  -42.9276 O.2       4 UNK        -0.5000 
     52 CA          2.4755  -12.2548  -41.8374 C.3       4 UNK         0.1400 
     53 CB          3.8365  -12.8852  -41.4915 C.3       4 UNK        -0.1800 
     54 N           2.7027  -11.0457  -42.6326 N.am      4 UNK        -0.5000 
     55 C           1.8288  -10.0445  -42.8056 C.2       3 UNK         0.5000 
     56 O           0.7155  -10.0260  -42.2783 O.2       3 UNK        -0.5000 
     57 CA          2.2469   -8.8698  -43.7157 C.3       3 UNK         0.1400 
     58 CB          2.2383   -7.5518  -42.9241 C.3       3 UNK        -0.1800 
     59 N           3.5740   -9.0293  -44.3216 N.am      3 UNK        -0.5000 
     60 C           3.9074   -9.6916  -45.4390 C.2       2 UNK         0.5000 
     61 O           5.0707   -9.6988  -45.8428 O.2       2 UNK        -0.5000 
     62 CA          2.8250  -10.4329  -46.2610 C.3       2 UNK         0.1400 
     63 CB          2.2330   -9.5057  -47.3343 C.3       2 UNK        -0.1800 
     64 N           3.3656  -11.6232  -46.9200 N.am      2 UNK        -0.5000 
     65 C           3.8112  -12.7130  -46.2775 C.2       1 UNK         0.5000 
     66 O           3.7516  -12.8456  -45.0569 O.2       1 UNK        -0.5000 
     67 C          -0.5612  -22.5459  -48.3239 C.2       11 UNK         0.5000 
     68 O          -0.5351  -23.5542  -49.0266 O.2       11 UNK        -0.5000 
     69 N          -1.6357  -21.7514  -48.2157 N.am      12 UNK        -0.5000 
     70 CA         -2.9170  -21.9994  -48.8764 C.3       12 UNK         0.1400 
     71 CB         -3.8620  -20.8089  -48.6599 C.3       12 UNK        -0.1800 
     72 C          -3.5752  -23.3117  -48.4180 C.2       12 UNK         0.5000 
     73 O          -4.0592  -24.0700  -49.2557 O.2       12 UNK        -0.5000 
     74 N          -3.5455  -23.5879  -47.1067 N.am      13 UNK        -0.5000 
     75 CA         -4.0202  -24.8428  -46.5214 C.3       13 UNK         0.1400 
     76 CB         -3.9593  -24.7621  -44.9890 C.3       13 UNK        -0.1800 
     77 C          -3.2490  -26.0688  -47.0475 C.2       13 UNK         0.5000 
     78 O          -3.8742  -27.0649  -47.4164 O.2       13 UNK        -0.5000 
     79 N          -1.9150  -25.9499  -47.1237 N.am      14 UNK        -0.5000 
     80 CA         -1.0215  -26.9513  -47.7095 C.3       14 UNK         0.1400 
     81 CB          0.4383  -26.5728  -47.4176 C.3       14 UNK        -0.1800 
     82 C          -1.2478  -27.1531  -49.2213 C.2       14 UNK         0.5000 
     83 O          -1.1687  -28.2864  -49.6987 O.2       14 UNK        -0.5000 
     84 N          -1.5717  -26.0707  -49.9420 N.am      15 UNK        -0.5000 
     85 CA         -1.9538  -26.0505  -51.3556 C.3       15 UNK         0.1400 
     86 CB         -1.7584  -24.6300  -51.9164 C.3       15 UNK        -0.1800 
     87 C          -3.3864  -26.5820  -51.5780 C.2       15 UNK         0.5000 
     88 O          -4.2504  -25.8608  -52.0823 O.2       15 UNK        -0.5000 
     89 N          -3.5966  -27.8481  -51.1916 N.am      16 UNK        -0.5000 
     90 CA         -4.7974  -28.6663  -51.3770 C.3       16 UNK         0.1400 
     91 CB         -4.9106  -29.1019  -52.8520 C.3       16 UNK        -0.1800 
     92 C          -6.0869  -28.0167  -50.8332 C.2       16 UNK         0.5000 
     93 O          -7.1203  -28.0490  -51.5038 O.2       16 UNK        -0.5000 
     94 N          -5.9946  -27.4464  -49.6216 N.am      17 UNK        -0.5000 
     95 CA         -7.0656  -26.7625  -48.8912 C.3       17 UNK         0.1400 
     96 CB         -8.1626  -27.7601  -48.4628 C.3       17 UNK        -0.1800 
     97 C          -7.6144  -25.5437  -49.6611 C.2       17 UNK         0.5000 
     98 O          -8.8093  -25.4768  -49.9564 O.2       17 UNK        -0.5000 
     99 N          -6.7108  -24.6024  -49.9626 N.am      18 UNK        -0.5000 
    100 CA        -6.9412  -23.3296  -50.6458 C.3       18 UNK         0.1400 
    101 CB        -7.8878  -22.4209  -49.8317 C.3       18 UNK        -0.1800 
    102 C         -7.3540  -23.4954  -52.1199 C.2       18 UNK         0.5000 
    103 O         -8.2156  -22.7586  -52.6039 O.2       18 UNK        -0.5000 
    104 N         -6.6998  -24.4280  -52.8299 N.am      19 UNK        -0.5000 
    105 CA        -6.7797  -24.5312  -54.2915 C.3       19 UNK         0.1400 
    106 CB        -6.2510  -25.8969  -54.7505 C.3       19 UNK        -0.1800 
    107 C         -6.0106  -23.3835  -54.9772 C.2       19 UNK         0.5000 
    108 O         -6.4029  -22.9424  -56.0580 O.2       19 UNK        -0.5000 
    109 N         -4.9644  -22.8928  -54.3032 N.am      20 UNK        -0.5000 
    110 CA        -4.2989  -21.6231  -54.5550 C.3       20 UNK         0.1400 
    111 CB        -2.8866  -21.8798  -55.1026 C.3       20 UNK        -0.1800 
    112 C         -4.2447  -20.8953  -53.2053 C.2       20 UNK         0.5000 
    113 O         -3.9324  -21.5310  -52.1961 O.2       20 UNK        -0.5000 
    114 N         -4.5717  -19.5987  -53.1953 N.am      21 UNK        -0.5000 
    115 CA        -4.6573  -18.7889  -51.9752 C.3       21 UNK         0.1400 
    116 CB        -5.9933  -19.0684  -51.2570 C.3       21 UNK        -0.1800 
    117 C         -4.4474  -17.2866  -52.2452 C.2       21 UNK         0.5000 
    118 O         -4.8276  -16.4654  -51.4103 O.2       21 UNK        -0.5000 
    119 N         -3.8531  -16.9464  -53.3985 N.am      22 UNK        -0.5000 
    120 CA        -3.5672  -15.5695  -53.8547 C.3       22 UNK         0.1400 
    121 C         -4.8263  -14.7078  -54.1890 C.2       22 UNK         0.5000 
    122 N         -6.0069  -15.2921  -54.3535 N.am      22 UNK        -0.7600 
    123 O         -4.7317  -13.4923  -54.3385 O.2       22 UNK        -0.5000 
    124 C124       -2.5596  -14.8141  -52.9391 C.3       23 UNK        -0.0398 
    125 S125       -0.9569  -15.6746  -52.8049 S.3       23 UNK        -0.2404 
    126 C126       -0.9457  -16.1640  -51.0533 C.3       23 UNK        -0.0205 
    127 H127        6.6444  -11.1347  -49.9226 H         1 UNK         0.0600 
    128 H128        5.7764  -12.4870  -50.6551 H         1 UNK         0.0600 
    129 H129        7.4768  -12.6656  -50.2150 H         1 UNK         0.0600 
    130 H130        4.4076  -13.4839  -49.2120 H         1 UNK         0.3000 
    131 H131        5.2641  -14.2390  -46.5340 H         1 UNK         0.0600 
    132 H132        2.9319  -15.2560  -46.4064 H         1 UNK         0.0800 
    133 H133        2.6302  -14.6930  -48.0303 H         1 UNK         0.0800 
    134 H134        4.7698  -16.9113  -50.2562 H         1 UNK         0.0800 
    135 H135        3.9546  -15.3843  -50.0862 H         1 UNK         0.0800 
    136 H136        1.4982  -15.2766  -50.2365 H         1 UNK         0.1150 
    137 H137       -0.6416  -18.8605  -51.2086 H         1 UNK         0.1150 
    138 H138        3.5133  -19.0538  -50.1595 H         1 UNK         0.1150 
    139 H139        0.3548  -21.0050  -50.8672 H         1 UNK         0.0800 
    140 H140        1.7709  -20.8732  -51.8827 H         1 UNK         0.0800 
    141 H141        0.9411  -20.1745  -48.2553 H         1 UNK         0.0800 
    142 H142        2.3304  -20.7951  -47.4192 H         1 UNK         0.0800 
    143 H143        1.2925  -23.0915  -47.4095 H         1 UNK         0.0600 
    144 H144        0.5058  -20.9025  -45.7984 H         1 UNK         0.3000 
    145 H145       -1.4676  -22.7488  -43.4488 H         1 UNK         0.0600 
    146 H146        0.1418  -21.6391  -41.9350 H         1 UNK         0.0600 
    147 H147        0.9370  -22.9585  -42.7801 H         1 UNK         0.0600 
    148 H148        1.2269  -21.2958  -43.2802 H         1 UNK         0.0600 
    149 H149       -0.8570  -19.9785  -43.6158 H         1 UNK         0.3000 
    150 H150       -3.6603  -19.0456  -45.6913 H         1 UNK         0.0600 
    151 H151       -4.4467  -19.1550  -43.3358 H         1 UNK         0.0600 
    152 H152       -3.9441  -17.5220  -43.7481 H         1 UNK         0.0600 
    153 H153       -2.8984  -18.5461  -42.7666 H         1 UNK         0.0600 
    154 H154       -1.5907  -17.4415  -44.6290 H         1 UNK         0.3000 
    155 H155        0.7178  -17.7464  -47.3660 H         1 UNK         0.0600 
    156 H156       -0.9549  -16.0196  -47.9906 H         1 UNK         0.0600 
    157 H157        0.4429  -15.2793  -47.2308 H         1 UNK         0.0600 
    158 H158       -1.0563  -15.4702  -46.3265 H         1 UNK         0.0600 
    159 H159        0.7942  -16.3386  -44.8624 H         1 UNK         0.3000 
    160 H160        2.3998  -18.8968  -42.9647 H         1 UNK         0.0600 
    161 H161        3.3976  -16.2345  -44.1164 H         1 UNK         0.0600 
    162 H162        4.2188  -17.7835  -44.2326 H         1 UNK         0.0600 
    163 H163        4.0121  -17.0187  -42.6632 H         1 UNK         0.0600 
    164 H164        1.5250  -16.1795  -42.4659 H         1 UNK         0.3000 
    165 H165       -1.7179  -17.0524  -41.2436 H         1 UNK         0.0600 
    166 H166       -0.9087  -16.0287  -39.1366 H         1 UNK         0.0600 
    167 H167       -0.2576  -17.6513  -39.3033 H         1 UNK         0.0600 
    168 H168        0.7684  -16.2602  -39.6332 H         1 UNK         0.0600 
    169 H169       -0.2643  -14.6085  -41.1650 H         1 UNK         0.3000 
    170 H170       -0.4891  -13.5986  -44.4830 H         1 UNK         0.0600 
    171 H171       -2.8933  -13.1661  -43.9324 H         1 UNK         0.0600 
    172 H172       -2.4253  -12.5629  -42.3464 H         1 UNK         0.0600 
    173 H173       -1.9280  -11.7044  -43.8047 H         1 UNK         0.0600 
    174 H174        0.0472  -11.8950  -42.3992 H         1 UNK         0.3000 
    175 H175        1.9979  -11.9695  -40.8979 H         1 UNK         0.0600 
    176 H176        4.4618  -12.1908  -40.9304 H         1 UNK         0.0600 
    177 H177        3.7094  -13.7770  -40.8765 H         1 UNK         0.0600 
    178 H178        4.3839  -13.1806  -42.3875 H         1 UNK         0.0600 
    179 H179        3.5753  -11.0128  -43.1404 H         1 UNK         0.3000 
    180 H180        1.4938   -8.7823  -44.4998 H         1 UNK         0.0600 
    181 H181        2.9578   -7.5693  -42.1045 H         1 UNK         0.0600 
    182 H182        1.2553   -7.3561  -42.4933 H         1 UNK         0.0600 
    183 H183        2.4811   -6.7046  -43.5660 H         1 UNK         0.0600 
    184 H184        4.3190   -8.5655  -43.8227 H         1 UNK         0.3000 
    185 H185        2.0214  -10.7702  -45.6060 H         1 UNK         0.0600 
    186 H186        1.7992   -8.6099  -46.8890 H         1 UNK         0.0600 
    187 H187        2.9928   -9.1797  -48.0461 H         1 UNK         0.0600 
    188 H188        1.4412  -10.0044  -47.8937 H         1 UNK         0.0600 
    189 H189        3.5009  -11.5662  -47.9180 H         1 UNK         0.3000 
    190 H190       -1.5672  -20.8962  -47.6683 H         1 UNK         0.3000 
    191 H191       -2.7185  -22.0826  -49.9454 H         1 UNK         0.0600 
    192 H192       -4.0869  -20.6559  -47.6050 H         1 UNK         0.0600 
    193 H193       -4.8083  -20.9682  -49.1768 H         1 UNK         0.0600 
    194 H194       -3.4287  -19.8867  -49.0463 H         1 UNK         0.0600 
    195 H195       -3.1809  -22.8887  -46.4652 H         1 UNK         0.3000 
    196 H196       -5.0665  -24.9601  -46.8080 H         1 UNK         0.0600 
    197 H197       -4.3438  -25.6762  -44.5351 H         1 UNK         0.0600 
    198 H198       -4.5614  -23.9341  -44.6145 H         1 UNK         0.0600 
    199 H199       -2.9401  -24.6214  -44.6302 H         1 UNK         0.0600 
    200 H200       -1.4801  -25.1043  -46.7677 H         1 UNK         0.3000 
    201 H201       -1.2270  -27.9042  -47.2176 H         1 UNK         0.0600 
    202 H202        0.6175  -26.4924  -46.3452 H         1 UNK         0.0600 
    203 H203        0.7081  -25.6200  -47.8728 H         1 UNK         0.0600 
    204 H204        1.1223  -27.3277  -47.8069 H         1 UNK         0.0600 
    205 H205       -1.5609  -25.1681  -49.4767 H         1 UNK         0.3000 
    206 H206       -1.2784  -26.7116  -51.9019 H         1 UNK         0.0600 
    207 H207       -0.7325  -24.2875  -51.7804 H         1 UNK         0.0600 
    208 H208       -1.9736  -24.5988  -52.9849 H         1 UNK         0.0600 
    209 H209       -2.4176  -23.9111  -51.4308 H         1 UNK         0.0600 
    210 H210       -2.8167  -28.3111  -50.7334 H         1 UNK         0.3000 
    211 H211       -4.6461  -29.5680  -50.7821 H         1 UNK         0.0600 
    212 H212       -5.0471  -28.2484  -53.5143 H         1 UNK         0.0600 
    213 H213       -5.7552  -29.7753  -53.0023 H         1 UNK         0.0600 
    214 H214       -4.0147  -29.6325  -53.1742 H         1 UNK         0.0600 
    215 H215       -5.0941  -27.4519  -49.1547 H         1 UNK         0.3000 
    216 H216       -6.6143  -26.3721  -47.9788 H         1 UNK         0.0600 
    217 H217       -8.9077  -27.2712  -47.8342 H         1 UNK         0.0600 
    218 H218       -7.7417  -28.5834  -47.8856 H         1 UNK         0.0600 
    219 H219       -8.6876  -28.1848  -49.3188 H         1 UNK         0.0600 
    220 H220       -5.7377  -24.7533  -49.7037 H         1 UNK         0.3000 
    221 H221       -5.9726  -22.8291  -50.6766 H         1 UNK         0.0600 
    222 H222       -8.8973  -22.8283  -49.7761 H         1 UNK         0.0600 
    223 H223       -7.5221  -22.2855  -48.8138 H         1 UNK         0.0600 
    224 H224       -7.9657  -21.4308  -50.2808 H         1 UNK         0.0600 
    225 H225       -5.9862  -24.9931  -52.3755 H         1 UNK         0.3000 
    226 H226       -7.8282  -24.4594  -54.5879 H         1 UNK         0.0600 
    227 H227       -6.7782  -26.7099  -54.2509 H         1 UNK         0.0600 
    228 H228       -6.3928  -26.0266  -55.8239 H         1 UNK         0.0600 
    229 H229       -5.1856  -26.0069  -54.5477 H         1 UNK         0.0600 
    230 H230       -4.7391  -23.3047  -53.4061 H         1 UNK         0.3000 
    231 H231       -4.8656  -21.0228  -55.2698 H         1 UNK         0.0600 
    232 H232       -2.9243  -22.4316  -56.0419 H         1 UNK         0.0600 
    233 H233       -2.2800  -22.4545  -54.4014 H         1 UNK         0.0600 
    234 H234       -2.3666  -20.9408  -55.2953 H         1 UNK         0.0600 
    235 H235       -4.8568  -19.1507  -54.0547 H         1 UNK         0.3000 
    236 H236       -3.8424  -19.0790  -51.3091 H         1 UNK         0.0600 
    237 H237       -6.0488  -18.5426  -50.3031 H         1 UNK         0.0600 
    238 H238       -6.8447  -18.7525  -51.8605 H         1 UNK         0.0600 
    239 H239       -6.1133  -20.1294  -51.0432 H         1 UNK         0.0600 
    240 H240       -3.5254  -17.6797  -54.0089 H         1 UNK         0.3000 
    241 H241       -3.0772  -15.6920  -54.8212 H         1 UNK         0.0600 
    242 H242       -6.8106  -14.7276  -54.5809 H         1 UNK         0.3800 
    243 H243       -6.1090  -16.2876  -54.2454 H         1 UNK         0.3800 
    244 H244       -2.3463  -13.8232  -53.3430 H         1 UNK         0.0800 
    245 H245       -2.9826  -14.6452  -51.9482 H         1 UNK         0.0800 
    246 H246       -0.9751  -15.2722  -50.4254 H         1 UNK         0.0800 
    247 H247       -1.8424  -16.7399  -50.8211 H         1 UNK         0.0800 
@<TRIPOS>BOND
     1    1    2 1    
     2    1  127 1    
     3    1  128 1    
     4    1  129 1    
     5    2    3 2    
     6    2    4 am   BACKBONE|DICT|INTERRES
     7    4    5 1    
     8    4  130 1    
     9    5    6 1    
    10    5   65 1    
    11    5  131 1    
    12    6    7 1    
    13    6  132 1    
    14    6  133 1    
    15    7    8 1    
    16    8    9 1    
    17    8  134 1    
    18    8  135 1    
    19    9   10 ar   
    20    9   14 ar   
    21   10   11 ar   
    22   10  136 1    
    23   11   12 ar   
    24   11  126 1    
    25   12   13 ar   
    26   12  137 1    
    27   13   14 ar   
    28   13   15 1    
    29   14  138 1    
    30   15   16 1    
    31   15  139 1    
    32   15  140 1    
    33   16   17 1    
    34   17   18 1    
    35   17  141 1    
    36   17  142 1    
    37   18   19 1    
    38   18   67 1    
    39   18  143 1    
    40   19   20 am   BACKBONE|DICT|INTERRES
    41   19  144 1    
    42   20   21 2    
    43   20   22 1    
    44   22   23 1    
    45   22   24 1    
    46   22  145 1    
    47   23  146 1    
    48   23  147 1    
    49   23  148 1    
    50   24   25 am   BACKBONE|DICT|INTERRES
    51   24  149 1    
    52   25   26 2    
    53   25   27 1    
    54   27   28 1    
    55   27   29 1    
    56   27  150 1    
    57   28  151 1    
    58   28  152 1    
    59   28  153 1    
    60   29   30 am   BACKBONE|DICT|INTERRES
    61   29  154 1    
    62   30   31 2    
    63   30   32 1    
    64   32   33 1    
    65   32   34 1    
    66   32  155 1    
    67   33  156 1    
    68   33  157 1    
    69   33  158 1    
    70   34   35 am   BACKBONE|DICT|INTERRES
    71   34  159 1    
    72   35   36 2    
    73   35   37 1    
    74   37   38 1    
    75   37   39 1    
    76   37  160 1    
    77   38  161 1    
    78   38  162 1    
    79   38  163 1    
    80   39   40 am   BACKBONE|DICT|INTERRES
    81   39  164 1    
    82   40   41 2    
    83   40   42 1    
    84   42   43 1    
    85   42   44 1    
    86   42  165 1    
    87   43  166 1    
    88   43  167 1    
    89   43  168 1    
    90   44   45 am   BACKBONE|DICT|INTERRES
    91   44  169 1    
    92   45   46 2    
    93   45   47 1    
    94   47   48 1    
    95   47   49 1    
    96   47  170 1    
    97   48  171 1    
    98   48  172 1    
    99   48  173 1    
   100   49   50 am   BACKBONE|DICT|INTERRES
   101   49  174 1    
   102   50   51 2    
   103   50   52 1    
   104   52   53 1    
   105   52   54 1    
   106   52  175 1    
   107   53  176 1    
   108   53  177 1    
   109   53  178 1    
   110   54   55 am   BACKBONE|DICT|INTERRES
   111   54  179 1    
   112   55   56 2    
   113   55   57 1    
   114   57   58 1    
   115   57   59 1    
   116   57  180 1    
   117   58  181 1    
   118   58  182 1    
   119   58  183 1    
   120   59   60 am   BACKBONE|DICT|INTERRES
   121   59  184 1    
   122   60   61 2    
   123   60   62 1    
   124   62   63 1    
   125   62   64 1    
   126   62  185 1    
   127   63  186 1    
   128   63  187 1    
   129   63  188 1    
   130   64   65 am   BACKBONE|DICT|INTERRES
   131   64  189 1    
   132   65   66 2    
   133   67   68 2    
   134   67   69 am   BACKBONE|DICT|INTERRES
   135   69   70 1    
   136   69  190 1    
   137   70   71 1    
   138   70   72 1    
   139   70  191 1    
   140   71  192 1    
   141   71  193 1    
   142   71  194 1    
   143   72   73 2    
   144   72   74 am   BACKBONE|DICT|INTERRES
   145   74   75 1    
   146   74  195 1    
   147   75   76 1    
   148   75   77 1    
   149   75  196 1    
   150   76  197 1    
   151   76  198 1    
   152   76  199 1    
   153   77   78 2    
   154   77   79 am   BACKBONE|DICT|INTERRES
   155   79   80 1    
   156   79  200 1    
   157   80   81 1    
   158   80   82 1    
   159   80  201 1    
   160   81  202 1    
   161   81  203 1    
   162   81  204 1    
   163   82   83 2    
   164   82   84 am   BACKBONE|DICT|INTERRES
   165   84   85 1    
   166   84  205 1    
   167   85   86 1    
   168   85   87 1    
   169   85  206 1    
   170   86  207 1    
   171   86  208 1    
   172   86  209 1    
   173   87   88 2    
   174   87   89 am   BACKBONE|DICT|INTERRES
   175   89   90 1    
   176   89  210 1    
   177   90   91 1    
   178   90   92 1    
   179   90  211 1    
   180   91  212 1    
   181   91  213 1    
   182   91  214 1    
   183   92   93 2    
   184   92   94 am   BACKBONE|DICT|INTERRES
   185   94   95 1    
   186   94  215 1    
   187   95   96 1    
   188   95   97 1    
   189   95  216 1    
   190   96  217 1    
   191   96  218 1    
   192   96  219 1    
   193   97   98 2    
   194   97   99 am   BACKBONE|DICT|INTERRES
   195   99  100 1    
   196   99  220 1    
   197  100  101 1    
   198  100  102 1    
   199  100  221 1    
   200  101  222 1    
   201  101  223 1    
   202  101  224 1    
   203  102  103 2    
   204  102  104 am   BACKBONE|DICT|INTERRES
   205  104  105 1    
   206  104  225 1    
   207  105  106 1    
   208  105  107 1    
   209  105  226 1    
   210  106  227 1    
   211  106  228 1    
   212  106  229 1    
   213  107  108 2    
   214  107  109 am   BACKBONE|DICT|INTERRES
   215  109  110 1    
   216  109  230 1    
   217  110  111 1    
   218  110  112 1    
   219  110  231 1    
   220  111  232 1    
   221  111  233 1    
   222  111  234 1    
   223  112  113 2    
   224  112  114 am   BACKBONE|DICT|INTERRES
   225  114  115 1    
   226  114  235 1    
   227  115  116 1    
   228  115  117 1    
   229  115  236 1    
   230  116  237 1    
   231  116  238 1    
   232  116  239 1    
   233  117  118 2    
   234  117  119 am   BACKBONE|DICT|INTERRES
   235  119  120 1    
   236  119  240 1    
   237  120  121 1    
   238  120  124 1    
   239  120  241 1    
   240  121  122 am   BACKBONE|DICT|INTERRES
   241  121  123 2    
   242  122  242 1    
   243  122  243 1    
   244  124  125 1    
   245  124  244 1    
   246  124  245 1    
   247  125  126 1    
   248  126  246 1    
   249  126  247 1    
@<TRIPOS>SUBSTRUCTURE
     1 UNK         1 GROUP             0       ****    0 ROOT    
