@<TRIPOS>MOLECULE
3R540
247   249    1
SMALL
USER_CHARGES


@<TRIPOS>ATOM
      1 CA          6.4325  -12.0306  -43.7528 C.3       0 UNK        -0.1800 
      2 C           5.3369  -12.7955  -44.4807 C.2       0 UNK         0.5000 
      3 O           4.1672  -12.6926  -44.1131 O.2       0 UNK        -0.5000 
      4 N           5.7021  -13.5508  -45.5239 N.am      1 UNK        -0.5000 
      5 CA          4.8091  -14.3684  -46.3552 C.3       1 UNK         0.1400 
      6 C6          5.5900  -15.5549  -46.9829 C.3       23 UNK        -0.0398 
      7 S7          4.5239  -16.9915  -47.3235 S.3       23 UNK        -0.2404 
      8 C8          4.6302  -17.1026  -49.1362 C.3       23 UNK        -0.0205 
      9 C9          3.5490  -18.0226  -49.6732 C.ar      23 UNK        -0.0193 
     10 C10         2.3262  -17.4959  -50.0937 C.ar      23 UNK        -0.1150 
     11 C11         1.3021  -18.3375  -50.5379 C.ar      23 UNK        -0.0193 
     12 C12         1.5120  -19.7200  -50.5542 C.ar      23 UNK        -0.1150 
     13 C13         2.7341  -20.2599  -50.1391 C.ar      23 UNK        -0.0193 
     14 C14         3.7553  -19.4025  -49.7174 C.ar      23 UNK        -0.1150 
     15 C15         2.9302  -21.7715  -50.1085 C.3       23 UNK        -0.0205 
     16 S16         3.5248  -22.3935  -48.4949 S.3       23 UNK        -0.2404 
     17 C17         2.3441  -21.6445  -47.3168 C.3       23 UNK        -0.0398 
     18 CA          1.2276  -22.6007  -46.8446 C.3       11 UNK         0.1400 
     19 N           0.5132  -22.0511  -45.6911 N.am      11 UNK        -0.5000 
     20 C          -0.3872  -22.7170  -44.9560 C.2       10 UNK         0.5000 
     21 O          -0.6781  -23.8981  -45.1369 O.2       10 UNK        -0.5000 
     22 CA         -1.1190  -21.9178  -43.8639 C.3       10 UNK         0.1400 
     23 CB         -0.2549  -21.8039  -42.5996 C.3       10 UNK        -0.1800 
     24 N          -1.5125  -20.5835  -44.3173 N.am      10 UNK        -0.5000 
     25 C          -2.3894  -20.3476  -45.3046 C.2       9 UNK         0.5000 
     26 O          -3.0057  -21.2334  -45.8981 O.2       9 UNK        -0.5000 
     27 CA         -2.5721  -18.8810  -45.7313 C.3       9 UNK         0.1400 
     28 CB         -3.4932  -18.1336  -44.7556 C.3       9 UNK        -0.1800 
     29 N          -1.3049  -18.1630  -45.8408 N.am      9 UNK        -0.5000 
     30 C          -0.3233  -18.4605  -46.7014 C.2       8 UNK         0.5000 
     31 O          -0.3870  -19.3713  -47.5253 O.2       8 UNK        -0.5000 
     32 CA          0.9709  -17.6402  -46.5714 C.3       8 UNK         0.1400 
     33 CB          0.8291  -16.2591  -47.2256 C.3       8 UNK        -0.1800 
     34 N           1.3702  -17.4655  -45.1774 N.am      8 UNK        -0.5000 
     35 C           1.7891  -18.4507  -44.3734 C.2       7 UNK         0.5000 
     36 O           1.9010  -19.6249  -44.7239 O.2       7 UNK        -0.5000 
     37 CA          2.0931  -18.0535  -42.9180 C.3       7 UNK         0.1400 
     38 CB          3.4916  -17.4250  -42.8137 C.3       7 UNK        -0.1800 
     39 N           1.1011  -17.1231  -42.3742 N.am      7 UNK        -0.5000 
     40 C          -0.1870  -17.4284  -42.1594 C.2       6 UNK         0.5000 
     41 O          -0.6697  -18.5423  -42.3614 O.2       6 UNK        -0.5000 
     42 CA         -1.1002  -16.2781  -41.6924 C.3       6 UNK         0.1400 
     43 CB         -1.0053  -16.0949  -40.1705 C.3       6 UNK        -0.1800 
     44 N          -0.8196  -15.0005  -42.3577 N.am      6 UNK        -0.5000 
     45 C          -0.8981  -14.8033  -43.6804 C.2       5 UNK         0.5000 
     46 O          -1.1763  -15.6956  -44.4820 O.2       5 UNK        -0.5000 
     47 CA         -0.5455  -13.3951  -44.1939 C.3       5 UNK         0.1400 
     48 CB          0.9797  -13.2273  -44.2590 C.3       5 UNK        -0.1800 
     49 N          -1.0888  -13.1320  -45.5266 N.am      5 UNK        -0.5000 
     50 C          -2.3886  -13.0446  -45.8425 C.2       4 UNK         0.5000 
     51 O          -3.2963  -13.1063  -45.0116 O.2       4 UNK        -0.5000 
     52 CA         -2.7369  -12.8282  -47.3297 C.3       4 UNK         0.1400 
     53 CB         -3.4919  -11.5028  -47.5235 C.3       4 UNK        -0.1800 
     54 N          -1.5437  -12.8039  -48.1782 N.am      4 UNK        -0.5000 
     55 C          -1.0973  -13.8049  -48.9413 C.2       3 UNK         0.5000 
     56 O          -1.6770  -14.8836  -49.0552 O.2       3 UNK        -0.5000 
     57 CA          0.2283  -13.5767  -49.6998 C.3       3 UNK         0.1400 
     58 CB         -0.0166  -12.7936  -51.0026 C.3       3 UNK        -0.1800 
     59 N           1.3232  -12.9723  -48.9193 N.am      3 UNK        -0.5000 
     60 C           1.4058  -11.7580  -48.3563 C.2       2 UNK         0.5000 
     61 O           0.4751  -10.9506  -48.3474 O.2       2 UNK        -0.5000 
     62 CA          2.7481  -11.3806  -47.6879 C.3       2 UNK         0.1400 
     63 CB          2.6268  -10.1401  -46.7837 C.3       2 UNK        -0.1800 
     64 N           3.3621  -12.4582  -46.9066 N.am      2 UNK        -0.5000 
     65 C           4.0563  -13.4948  -47.3911 C.2       1 UNK         0.5000 
     66 O           4.1298  -13.7378  -48.5957 O.2       1 UNK        -0.5000 
     67 C           0.2614  -22.9825  -47.9864 C.2       11 UNK         0.5000 
     68 O           0.3732  -24.0835  -48.5235 O.2       11 UNK        -0.5000 
     69 N          -0.6954  -22.0992  -48.3075 N.am      12 UNK        -0.5000 
     70 CA         -1.7493  -22.3441  -49.2943 C.3       12 UNK         0.1400 
     71 CB         -2.5776  -21.0676  -49.4981 C.3       12 UNK        -0.1800 
     72 C          -2.6480  -23.5367  -48.9172 C.2       12 UNK         0.5000 
     73 O          -2.9140  -24.3866  -49.7676 O.2       12 UNK        -0.5000 
     74 N          -3.0431  -23.6130  -47.6383 N.am      13 UNK        -0.5000 
     75 CA         -3.7983  -24.7314  -47.0739 C.3       13 UNK         0.1400 
     76 CB         -4.2361  -24.3894  -45.6422 C.3       13 UNK        -0.1800 
     77 C          -3.0194  -26.0609  -47.1179 C.2       13 UNK         0.5000 
     78 O          -3.5868  -27.0802  -47.5116 O.2       13 UNK        -0.5000 
     79 N          -1.7260  -26.0260  -46.7634 N.am      14 UNK        -0.5000 
     80 CA         -0.8075  -27.1679  -46.8313 C.3       14 UNK         0.1400 
     81 CB          0.5180  -26.8055  -46.1450 C.3       14 UNK        -0.1800 
     82 C          -0.5582  -27.6633  -48.2697 C.2       14 UNK         0.5000 
     83 O          -0.4108  -28.8672  -48.4813 O.2       14 UNK        -0.5000 
     84 N          -0.5638  -26.7349  -49.2353 N.am      15 UNK        -0.5000 
     85 CA         -0.4961  -26.9975  -50.6749 C.3       15 UNK         0.1400 
     86 CB         -0.0275  -25.7189  -51.3900 C.3       15 UNK        -0.1800 
     87 C          -1.8230  -27.5146  -51.2765 C.2       15 UNK         0.5000 
     88 O          -1.8653  -27.7893  -52.4765 O.2       15 UNK        -0.5000 
     89 N          -2.8717  -27.6404  -50.4487 N.am      16 UNK        -0.5000 
     90 CA         -4.2218  -28.1148  -50.7663 C.3       16 UNK         0.1400 
     91 CB         -4.2020  -29.5592  -51.3107 C.3       16 UNK        -0.1800 
     92 C          -5.0334  -27.1433  -51.6475 C.2       16 UNK         0.5000 
     93 O          -5.9821  -27.5676  -52.3109 O.2       16 UNK        -0.5000 
     94 N          -4.6812  -25.8529  -51.6085 N.am      17 UNK        -0.5000 
     95 CA         -5.4926  -24.7567  -52.1295 C.3       17 UNK         0.1400 
     96 CB         -4.5552  -23.6672  -52.6813 C.3       17 UNK        -0.1800 
     97 C          -6.3851  -24.2024  -51.0027 C.2       17 UNK         0.5000 
     98 O          -6.2757  -24.6271  -49.8484 O.2       17 UNK        -0.5000 
     99 N          -7.2493  -23.2404  -51.3457 N.am      18 UNK        -0.5000 
    100 CA        -7.9753  -22.4325  -50.3663 C.3       18 UNK         0.1400 
    101 CB        -9.0660  -21.6236  -51.0848 C.3       18 UNK        -0.1800 
    102 C         -7.0022  -21.4915  -49.6338 C.2       18 UNK         0.5000 
    103 O         -6.0958  -20.9494  -50.2668 O.2       18 UNK        -0.5000 
    104 N         -7.2226  -21.2750  -48.3320 N.am      19 UNK        -0.5000 
    105 CA        -6.3725  -20.4340  -47.4799 C.3       19 UNK         0.1400 
    106 CB        -6.8286  -20.5896  -46.0215 C.3       19 UNK        -0.1800 
    107 C         -6.3440  -18.9451  -47.8898 C.2       19 UNK         0.5000 
    108 O         -5.3940  -18.2407  -47.5544 O.2       19 UNK        -0.5000 
    109 N         -7.3779  -18.4950  -48.6118 N.am      20 UNK        -0.5000 
    110 CA        -7.4811  -17.1478  -49.1696 C.3       20 UNK         0.1400 
    111 CB        -8.9710  -16.7856  -49.2841 C.3       20 UNK        -0.1800 
    112 C         -6.7868  -16.9964  -50.5397 C.2       20 UNK         0.5000 
    113 O         -6.6189  -15.8632  -50.9935 O.2       20 UNK        -0.5000 
    114 N         -6.4292  -18.1091  -51.1976 N.am      21 UNK        -0.5000 
    115 CA        -5.8155  -18.1105  -52.5249 C.3       21 UNK         0.1400 
    116 CB        -6.1755  -19.4168  -53.2514 C.3       21 UNK        -0.1800 
    117 C         -4.2893  -17.9477  -52.4395 C.2       21 UNK         0.5000 
    118 O         -3.6651  -18.4165  -51.4863 O.2       21 UNK        -0.5000 
    119 N         -3.7160  -17.3231  -53.4707 N.am      22 UNK        -0.5000 
    120 CA        -2.2761  -17.1630  -53.6935 C.3       22 UNK         0.1400 
    121 C         -1.9943  -16.7889  -55.1770 C.2       22 UNK         0.5000 
    122 N         -0.7341  -16.7068  -55.5780 N.am      22 UNK        -0.7600 
    123 O         -2.9068  -16.5736  -55.9739 O.2       22 UNK        -0.5000 
    124 C124       -1.6125  -16.1900  -52.6758 C.3       23 UNK        -0.0398 
    125 S125        0.1358  -16.6052  -52.3635 S.3       23 UNK        -0.2404 
    126 C126       -0.0392  -17.7566  -50.9647 C.3       23 UNK        -0.0205 
    127 H127        7.4145  -12.2147  -44.1890 H         1 UNK         0.0600 
    128 H128        6.4640  -12.3286  -42.7048 H         1 UNK         0.0600 
    129 H129        6.2348  -10.9597  -43.7981 H         1 UNK         0.0600 
    130 H130        6.6746  -13.5591  -45.7978 H         1 UNK         0.3000 
    131 H131        4.0476  -14.7883  -45.6936 H         1 UNK         0.0600 
    132 H132        6.3471  -15.9104  -46.2823 H         1 UNK         0.0800 
    133 H133        6.1414  -15.2540  -47.8755 H         1 UNK         0.0800 
    134 H134        5.6167  -17.4706  -49.4218 H         1 UNK         0.0800 
    135 H135        4.5274  -16.1128  -49.5816 H         1 UNK         0.0800 
    136 H136        2.1664  -16.4279  -50.0624 H         1 UNK         0.1150 
    137 H137        0.7154  -20.3778  -50.8722 H         1 UNK         0.1150 
    138 H138        4.6976  -19.8129  -49.3824 H         1 UNK         0.1150 
    139 H139        2.0013  -22.2863  -50.3590 H         1 UNK         0.0800 
    140 H140        3.6505  -22.0481  -50.8792 H         1 UNK         0.0800 
    141 H141        1.9196  -20.7226  -47.7121 H         1 UNK         0.0800 
    142 H142        2.9385  -21.3376  -46.4558 H         1 UNK         0.0800 
    143 H143        1.7045  -23.5223  -46.5044 H         1 UNK         0.0600 
    144 H144        0.7290  -21.0903  -45.4448 H         1 UNK         0.3000 
    145 H145       -2.0283  -22.4643  -43.6056 H         1 UNK         0.0600 
    146 H146        0.0462  -22.7892  -42.2416 H         1 UNK         0.0600 
    147 H147        0.6528  -21.2277  -42.7817 H         1 UNK         0.0600 
    148 H148       -0.8023  -21.3178  -41.7919 H         1 UNK         0.0600 
    149 H149       -1.0832  -19.7962  -43.8405 H         1 UNK         0.3000 
    150 H150       -3.0335  -18.8806  -46.7195 H         1 UNK         0.0600 
    151 H151       -4.4543  -18.6371  -44.6592 H         1 UNK         0.0600 
    152 H152       -3.6918  -17.1197  -45.1038 H         1 UNK         0.0600 
    153 H153       -3.0561  -18.0658  -43.7593 H         1 UNK         0.0600 
    154 H154       -1.1865  -17.3565  -45.2309 H         1 UNK         0.3000 
    155 H155        1.7612  -18.1868  -47.0898 H         1 UNK         0.0600 
    156 H156        0.0757  -15.6473  -46.7325 H         1 UNK         0.0600 
    157 H157        1.7702  -15.7111  -47.2108 H         1 UNK         0.0600 
    158 H158        0.5271  -16.3591  -48.2649 H         1 UNK         0.0600 
    159 H159        1.2409  -16.5473  -44.7826 H         1 UNK         0.3000 
    160 H160        2.0771  -18.9622  -42.3124 H         1 UNK         0.0600 
    161 H161        3.5614  -16.4940  -43.3781 H         1 UNK         0.0600 
    162 H162        4.2528  -18.1019  -43.2043 H         1 UNK         0.0600 
    163 H163        3.7508  -17.2095  -41.7770 H         1 UNK         0.0600 
    164 H164        1.4122  -16.1832  -42.1788 H         1 UNK         0.3000 
    165 H165       -2.1273  -16.5570  -41.9365 H         1 UNK         0.0600 
    166 H166       -1.7199  -15.3512  -39.8173 H         1 UNK         0.0600 
    167 H167       -1.2266  -17.0281  -39.6506 H         1 UNK         0.0600 
    168 H168       -0.0085  -15.7762  -39.8631 H         1 UNK         0.0600 
    169 H169       -0.5707  -14.2264  -41.7587 H         1 UNK         0.3000 
    170 H170       -0.9594  -12.6584  -43.5025 H         1 UNK         0.0600 
    171 H171        1.4399  -13.3919  -43.2839 H         1 UNK         0.0600 
    172 H172        1.4353  -13.9296  -44.9583 H         1 UNK         0.0600 
    173 H173        1.2511  -12.2195  -44.5721 H         1 UNK         0.0600 
    174 H174       -0.4261  -13.0931  -46.2843 H         1 UNK         0.3000 
    175 H175       -3.3959  -13.6452  -47.6303 H         1 UNK         0.0600 
    176 H176       -2.8873  -10.6480  -47.2174 H         1 UNK         0.0600 
    177 H177       -3.7713  -11.3589  -48.5673 H         1 UNK         0.0600 
    178 H178       -4.4114  -11.4834  -46.9371 H         1 UNK         0.0600 
    179 H179       -0.9856  -11.9512  -48.1628 H         1 UNK         0.3000 
    180 H180        0.5897  -14.5649  -49.9862 H         1 UNK         0.0600 
    181 H181       -0.3628  -11.7778  -50.8101 H         1 UNK         0.0600 
    182 H182       -0.7736  -13.2844  -51.6150 H         1 UNK         0.0600 
    183 H183        0.8927  -12.7316  -51.6004 H         1 UNK         0.0600 
    184 H184        2.1719  -13.5277  -48.8730 H         1 UNK         0.3000 
    185 H185        3.4306  -11.1232  -48.5004 H         1 UNK         0.0600 
    186 H186        2.2711   -9.2753  -47.3453 H         1 UNK         0.0600 
    187 H187        1.9305  -10.3078  -45.9616 H         1 UNK         0.0600 
    188 H188        3.5916   -9.8681  -46.3550 H         1 UNK         0.0600 
    189 H189        3.3625  -12.3401  -45.8980 H         1 UNK         0.3000 
    190 H190       -0.6949  -21.1852  -47.8597 H         1 UNK         0.3000 
    191 H191       -1.2624  -22.5835  -50.2417 H         1 UNK         0.0600 
    192 H192       -3.0767  -20.7559  -48.5810 H         1 UNK         0.0600 
    193 H193       -3.3480  -21.2169  -50.2556 H         1 UNK         0.0600 
    194 H194       -1.9525  -20.2395  -49.8317 H         1 UNK         0.0600 
    195 H195       -2.8117  -22.8515  -47.0068 H         1 UNK         0.3000 
    196 H196       -4.6986  -24.8580  -47.6777 H         1 UNK         0.0600 
    197 H197       -4.8279  -25.1978  -45.2114 H         1 UNK         0.0600 
    198 H198       -4.8512  -23.4895  -45.6243 H         1 UNK         0.0600 
    199 H199       -3.3813  -24.2218  -44.9870 H         1 UNK         0.0600 
    200 H200       -1.3412  -25.1578  -46.3997 H         1 UNK         0.3000 
    201 H201       -1.2618  -27.9906  -46.2755 H         1 UNK         0.0600 
    202 H202        0.3598  -26.5315  -45.1019 H         1 UNK         0.0600 
    203 H203        1.0117  -25.9690  -46.6397 H         1 UNK         0.0600 
    204 H204        1.2089  -27.6493  -46.1585 H         1 UNK         0.0600 
    205 H205       -0.6129  -25.7580  -48.9614 H         1 UNK         0.3000 
    206 H206        0.2544  -27.7717  -50.8459 H         1 UNK         0.0600 
    207 H207        0.9308  -25.3765  -50.9988 H         1 UNK         0.0600 
    208 H208        0.1026  -25.8902  -52.4591 H         1 UNK         0.0600 
    209 H209       -0.7450  -24.9069  -51.2735 H         1 UNK         0.0600 
    210 H210       -2.7434  -27.3562  -49.4849 H         1 UNK         0.3000 
    211 H211       -4.7483  -28.1429  -49.8116 H         1 UNK         0.0600 
    212 H212       -3.7785  -29.6110  -52.3139 H         1 UNK         0.0600 
    213 H213       -5.2108  -29.9699  -51.3637 H         1 UNK         0.0600 
    214 H214       -3.6200  -30.2164  -50.6646 H         1 UNK         0.0600 
    215 H215       -3.9399  -25.5714  -50.9725 H         1 UNK         0.3000 
    216 H216       -6.1339  -25.1089  -52.9398 H         1 UNK         0.0600 
    217 H217       -5.1175  -22.8800  -53.1841 H         1 UNK         0.0600 
    218 H218       -3.8566  -24.0798  -53.4094 H         1 UNK         0.0600 
    219 H219       -3.9727  -23.1938  -51.8907 H         1 UNK         0.0600 
    220 H220       -7.2721  -22.9166  -52.3011 H         1 UNK         0.3000 
    221 H221       -8.4507  -23.0968  -49.6413 H         1 UNK         0.0600 
    222 H222       -8.6428  -20.9365  -51.8182 H         1 UNK         0.0600 
    223 H223       -9.7653  -22.2791  -51.6040 H         1 UNK         0.0600 
    224 H224       -9.6441  -21.0303  -50.3753 H         1 UNK         0.0600 
    225 H225       -7.9932  -21.7431  -47.8769 H         1 UNK         0.3000 
    226 H226       -5.3499  -20.8096  -47.5569 H         1 UNK         0.0600 
    227 H227       -6.7648  -21.6284  -45.6974 H         1 UNK         0.0600 
    228 H228       -6.2002  -20.0057  -45.3498 H         1 UNK         0.0600 
    229 H229       -7.8572  -20.2543  -45.8835 H         1 UNK         0.0600 
    230 H230       -8.1218  -19.1385  -48.8362 H         1 UNK         0.3000 
    231 H231       -7.0127  -16.4369  -48.4855 H         1 UNK         0.0600 
    232 H232       -9.1000  -15.7705  -49.6620 H         1 UNK         0.0600 
    233 H233       -9.4644  -16.8334  -48.3132 H         1 UNK         0.0600 
    234 H234       -9.4976  -17.4578  -49.9628 H         1 UNK         0.0600 
    235 H235       -6.4741  -19.0077  -50.7295 H         1 UNK         0.3000 
    236 H236       -6.2251  -17.2819  -53.1071 H         1 UNK         0.0600 
    237 H237       -7.2551  -19.5546  -53.3060 H         1 UNK         0.0600 
    238 H238       -5.7983  -19.4090  -54.2746 H         1 UNK         0.0600 
    239 H239       -5.7469  -20.2881  -52.7562 H         1 UNK         0.0600 
    240 H240       -4.2822  -16.9954  -54.2434 H         1 UNK         0.3000 
    241 H241       -1.8509  -18.1595  -53.5588 H         1 UNK         0.0600 
    242 H242        0.0257  -16.8566  -54.9302 H         1 UNK         0.3800 
    243 H243       -0.5339  -16.4670  -56.5366 H         1 UNK         0.3800 
    244 H244       -1.6786  -15.1581  -53.0239 H         1 UNK         0.0800 
    245 H245       -2.1325  -16.2027  -51.7170 H         1 UNK         0.0800 
    246 H246       -0.7289  -18.5533  -51.2478 H         1 UNK         0.0800 
    247 H247       -0.4998  -17.2426  -50.1211 H         1 UNK         0.0800 
@<TRIPOS>BOND
     1    1    2 1    
     2    1  127 1    
     3    1  128 1    
     4    1  129 1    
     5    2    3 2    
     6    2    4 am   BACKBONE|DICT|INTERRES
     7    4    5 1    
     8    4  130 1    
     9    5    6 1    
    10    5   65 1    
    11    5  131 1    
    12    6    7 1    
    13    6  132 1    
    14    6  133 1    
    15    7    8 1    
    16    8    9 1    
    17    8  134 1    
    18    8  135 1    
    19    9   10 ar   
    20    9   14 ar   
    21   10   11 ar   
    22   10  136 1    
    23   11   12 ar   
    24   11  126 1    
    25   12   13 ar   
    26   12  137 1    
    27   13   14 ar   
    28   13   15 1    
    29   14  138 1    
    30   15   16 1    
    31   15  139 1    
    32   15  140 1    
    33   16   17 1    
    34   17   18 1    
    35   17  141 1    
    36   17  142 1    
    37   18   19 1    
    38   18   67 1    
    39   18  143 1    
    40   19   20 am   BACKBONE|DICT|INTERRES
    41   19  144 1    
    42   20   21 2    
    43   20   22 1    
    44   22   23 1    
    45   22   24 1    
    46   22  145 1    
    47   23  146 1    
    48   23  147 1    
    49   23  148 1    
    50   24   25 am   BACKBONE|DICT|INTERRES
    51   24  149 1    
    52   25   26 2    
    53   25   27 1    
    54   27   28 1    
    55   27   29 1    
    56   27  150 1    
    57   28  151 1    
    58   28  152 1    
    59   28  153 1    
    60   29   30 am   BACKBONE|DICT|INTERRES
    61   29  154 1    
    62   30   31 2    
    63   30   32 1    
    64   32   33 1    
    65   32   34 1    
    66   32  155 1    
    67   33  156 1    
    68   33  157 1    
    69   33  158 1    
    70   34   35 am   BACKBONE|DICT|INTERRES
    71   34  159 1    
    72   35   36 2    
    73   35   37 1    
    74   37   38 1    
    75   37   39 1    
    76   37  160 1    
    77   38  161 1    
    78   38  162 1    
    79   38  163 1    
    80   39   40 am   BACKBONE|DICT|INTERRES
    81   39  164 1    
    82   40   41 2    
    83   40   42 1    
    84   42   43 1    
    85   42   44 1    
    86   42  165 1    
    87   43  166 1    
    88   43  167 1    
    89   43  168 1    
    90   44   45 am   BACKBONE|DICT|INTERRES
    91   44  169 1    
    92   45   46 2    
    93   45   47 1    
    94   47   48 1    
    95   47   49 1    
    96   47  170 1    
    97   48  171 1    
    98   48  172 1    
    99   48  173 1    
   100   49   50 am   BACKBONE|DICT|INTERRES
   101   49  174 1    
   102   50   51 2    
   103   50   52 1    
   104   52   53 1    
   105   52   54 1    
   106   52  175 1    
   107   53  176 1    
   108   53  177 1    
   109   53  178 1    
   110   54   55 am   BACKBONE|DICT|INTERRES
   111   54  179 1    
   112   55   56 2    
   113   55   57 1    
   114   57   58 1    
   115   57   59 1    
   116   57  180 1    
   117   58  181 1    
   118   58  182 1    
   119   58  183 1    
   120   59   60 am   BACKBONE|DICT|INTERRES
   121   59  184 1    
   122   60   61 2    
   123   60   62 1    
   124   62   63 1    
   125   62   64 1    
   126   62  185 1    
   127   63  186 1    
   128   63  187 1    
   129   63  188 1    
   130   64   65 am   BACKBONE|DICT|INTERRES
   131   64  189 1    
   132   65   66 2    
   133   67   68 2    
   134   67   69 am   BACKBONE|DICT|INTERRES
   135   69   70 1    
   136   69  190 1    
   137   70   71 1    
   138   70   72 1    
   139   70  191 1    
   140   71  192 1    
   141   71  193 1    
   142   71  194 1    
   143   72   73 2    
   144   72   74 am   BACKBONE|DICT|INTERRES
   145   74   75 1    
   146   74  195 1    
   147   75   76 1    
   148   75   77 1    
   149   75  196 1    
   150   76  197 1    
   151   76  198 1    
   152   76  199 1    
   153   77   78 2    
   154   77   79 am   BACKBONE|DICT|INTERRES
   155   79   80 1    
   156   79  200 1    
   157   80   81 1    
   158   80   82 1    
   159   80  201 1    
   160   81  202 1    
   161   81  203 1    
   162   81  204 1    
   163   82   83 2    
   164   82   84 am   BACKBONE|DICT|INTERRES
   165   84   85 1    
   166   84  205 1    
   167   85   86 1    
   168   85   87 1    
   169   85  206 1    
   170   86  207 1    
   171   86  208 1    
   172   86  209 1    
   173   87   88 2    
   174   87   89 am   BACKBONE|DICT|INTERRES
   175   89   90 1    
   176   89  210 1    
   177   90   91 1    
   178   90   92 1    
   179   90  211 1    
   180   91  212 1    
   181   91  213 1    
   182   91  214 1    
   183   92   93 2    
   184   92   94 am   BACKBONE|DICT|INTERRES
   185   94   95 1    
   186   94  215 1    
   187   95   96 1    
   188   95   97 1    
   189   95  216 1    
   190   96  217 1    
   191   96  218 1    
   192   96  219 1    
   193   97   98 2    
   194   97   99 am   BACKBONE|DICT|INTERRES
   195   99  100 1    
   196   99  220 1    
   197  100  101 1    
   198  100  102 1    
   199  100  221 1    
   200  101  222 1    
   201  101  223 1    
   202  101  224 1    
   203  102  103 2    
   204  102  104 am   BACKBONE|DICT|INTERRES
   205  104  105 1    
   206  104  225 1    
   207  105  106 1    
   208  105  107 1    
   209  105  226 1    
   210  106  227 1    
   211  106  228 1    
   212  106  229 1    
   213  107  108 2    
   214  107  109 am   BACKBONE|DICT|INTERRES
   215  109  110 1    
   216  109  230 1    
   217  110  111 1    
   218  110  112 1    
   219  110  231 1    
   220  111  232 1    
   221  111  233 1    
   222  111  234 1    
   223  112  113 2    
   224  112  114 am   BACKBONE|DICT|INTERRES
   225  114  115 1    
   226  114  235 1    
   227  115  116 1    
   228  115  117 1    
   229  115  236 1    
   230  116  237 1    
   231  116  238 1    
   232  116  239 1    
   233  117  118 2    
   234  117  119 am   BACKBONE|DICT|INTERRES
   235  119  120 1    
   236  119  240 1    
   237  120  121 1    
   238  120  124 1    
   239  120  241 1    
   240  121  122 am   BACKBONE|DICT|INTERRES
   241  121  123 2    
   242  122  242 1    
   243  122  243 1    
   244  124  125 1    
   245  124  244 1    
   246  124  245 1    
   247  125  126 1    
   248  126  246 1    
   249  126  247 1    
@<TRIPOS>SUBSTRUCTURE
     1 UNK         1 GROUP             0       ****    0 ROOT    
