@<TRIPOS>MOLECULE
3R540
247   249    1
SMALL
USER_CHARGES


@<TRIPOS>ATOM
      1 CA         -5.2193  -16.4388  -47.7648 C.3       0 UNK        -0.1800 
      2 C          -4.1293  -15.4527  -48.1602 C.2       0 UNK         0.5000 
      3 O          -4.3777  -14.5551  -48.9650 O.2       0 UNK        -0.5000 
      4 N          -2.9217  -15.6293  -47.6117 N.am      1 UNK        -0.5000 
      5 CA         -1.7549  -14.7723  -47.8481 C.3       1 UNK         0.1400 
      6 C6         -0.4456  -15.4561  -47.3922 C.3       23 UNK        -0.0398 
      7 S7         -0.0946  -16.9578  -48.3668 S.3       23 UNK        -0.2404 
      8 C8          1.5180  -16.5443  -49.0951 C.3       23 UNK        -0.0205 
      9 C9          2.0499  -17.7089  -49.9121 C.ar      23 UNK        -0.0193 
     10 C10         1.8239  -17.7721  -51.2901 C.ar      23 UNK        -0.1150 
     11 C11         2.2778  -18.8600  -52.0439 C.ar      23 UNK        -0.0193 
     12 C12         2.9779  -19.8861  -51.3936 C.ar      23 UNK        -0.1150 
     13 C13         3.1977  -19.8405  -50.0146 C.ar      23 UNK        -0.0193 
     14 C14         2.7419  -18.7441  -49.2807 C.ar      23 UNK        -0.1150 
     15 C15         3.8600  -21.0131  -49.3115 C.3       23 UNK        -0.0205 
     16 S16         2.6345  -22.3291  -49.0644 S.3       23 UNK        -0.2404 
     17 C17         3.5353  -23.5519  -48.0517 C.3       23 UNK        -0.0398 
     18 CA          2.6038  -24.4556  -47.2004 C.3       11 UNK         0.1400 
     19 N           1.8892  -23.6964  -46.1675 N.am      11 UNK        -0.5000 
     20 C           1.1277  -24.2437  -45.2069 C.2       10 UNK         0.5000 
     21 O           1.1201  -25.4520  -44.9667 O.2       10 UNK        -0.5000 
     22 CA          0.2025  -23.3190  -44.3851 C.3       10 UNK         0.1400 
     23 CB          0.5946  -23.3420  -42.8988 C.3       10 UNK        -0.1800 
     24 N           0.1494  -21.9244  -44.8289 N.am      10 UNK        -0.5000 
     25 C          -0.2457  -21.4586  -46.0218 C.2       9 UNK         0.5000 
     26 O          -0.7005  -22.1639  -46.9232 O.2       9 UNK        -0.5000 
     27 CA         -0.0737  -19.9459  -46.2583 C.3       9 UNK         0.1400 
     28 CB         -1.3945  -19.2195  -45.9690 C.3       9 UNK        -0.1800 
     29 N           0.9914  -19.3252  -45.4641 N.am      9 UNK        -0.5000 
     30 C           2.2891  -19.6663  -45.4898 C.2       8 UNK         0.5000 
     31 O           2.7442  -20.6000  -46.1475 O.2       8 UNK        -0.5000 
     32 CA          3.2265  -18.8478  -44.5908 C.3       8 UNK         0.1400 
     33 CB          3.5139  -17.4688  -45.2075 C.3       8 UNK        -0.1800 
     34 N           2.6439  -18.6930  -43.2589 N.am      8 UNK        -0.5000 
     35 C           2.7085  -19.6307  -42.3019 C.2       7 UNK         0.5000 
     36 O           3.3680  -20.6653  -42.4030 O.2       7 UNK        -0.5000 
     37 CA          1.8853  -19.3885  -41.0213 C.3       7 UNK         0.1400 
     38 CB          2.7400  -18.6847  -39.9566 C.3       7 UNK        -0.1800 
     39 N           0.6705  -18.6059  -41.2528 N.am      7 UNK        -0.5000 
     40 C          -0.3802  -19.0161  -41.9776 C.2       6 UNK         0.5000 
     41 O          -0.4590  -20.1266  -42.4997 O.2       6 UNK        -0.5000 
     42 CA         -1.5085  -17.9907  -42.1975 C.3       6 UNK         0.1400 
     43 CB         -2.5673  -18.1072  -41.0919 C.3       6 UNK        -0.1800 
     44 N          -1.0346  -16.6062  -42.2676 N.am      6 UNK        -0.5000 
     45 C          -0.1590  -16.1218  -43.1568 C.2       5 UNK         0.5000 
     46 O           0.3625  -16.8145  -44.0330 O.2       5 UNK        -0.5000 
     47 CA          0.1952  -14.6253  -43.0237 C.3       5 UNK         0.1400 
     48 CB          1.2791  -14.1808  -44.0208 C.3       5 UNK        -0.1800 
     49 N          -0.9733  -13.7547  -43.1696 N.am      5 UNK        -0.5000 
     50 C          -1.9321  -13.5701  -42.2507 C.2       4 UNK         0.5000 
     51 O          -1.9441  -14.1464  -41.1603 O.2       4 UNK        -0.5000 
     52 CA         -3.0559  -12.5787  -42.6191 C.3       4 UNK         0.1400 
     53 CB         -3.9285  -12.1748  -41.4122 C.3       4 UNK        -0.1800 
     54 N          -2.5580  -11.3924  -43.3225 N.am      4 UNK        -0.5000 
     55 C          -1.6643  -10.4913  -42.8815 C.2       3 UNK         0.5000 
     56 O          -1.1672  -10.5124  -41.7544 O.2       3 UNK        -0.5000 
     57 CA         -1.2685   -9.3731  -43.8738 C.3       3 UNK         0.1400 
     58 CB          0.1656   -8.8507  -43.6436 C.3       3 UNK        -0.1800 
     59 N          -1.4762   -9.7401  -45.2824 N.am      3 UNK        -0.5000 
     60 C          -0.8700  -10.7285  -45.9555 C.2       2 UNK         0.5000 
     61 O           0.0224  -11.4412  -45.4917 O.2       2 UNK        -0.5000 
     62 CA         -1.3709  -10.9622  -47.3928 C.3       2 UNK         0.1400 
     63 CB         -0.5454  -10.1316  -48.3872 C.3       2 UNK        -0.1800 
     64 N          -1.3313  -12.3677  -47.8038 N.am      2 UNK        -0.5000 
     65 C          -1.9245  -13.3938  -47.1765 C.2       1 UNK         0.5000 
     66 O          -2.5645  -13.2898  -46.1252 O.2       1 UNK        -0.5000 
     67 C           1.6390  -25.2872  -48.0853 C.2       11 UNK         0.5000 
     68 O           2.0101  -26.3741  -48.5317 O.2       11 UNK        -0.5000 
     69 N           0.4186  -24.7715  -48.2961 N.am      12 UNK        -0.5000 
     70 CA         -0.6850  -25.4600  -48.9527 C.3       12 UNK         0.1400 
     71 CB         -1.4855  -24.4398  -49.7782 C.3       12 UNK        -0.1800 
     72 C          -1.5854  -26.0963  -47.8850 C.2       12 UNK         0.5000 
     73 O          -1.8007  -25.4949  -46.8301 O.2       12 UNK        -0.5000 
     74 N          -2.1511  -27.2695  -48.1978 N.am      13 UNK        -0.5000 
     75 CA         -3.0461  -28.0316  -47.3167 C.3       13 UNK         0.1400 
     76 CB         -3.3439  -29.3933  -47.9628 C.3       13 UNK        -0.1800 
     77 C          -4.3599  -27.3009  -46.9684 C.2       13 UNK         0.5000 
     78 O          -4.9446  -27.5667  -45.9180 O.2       13 UNK        -0.5000 
     79 N          -4.7828  -26.3779  -47.8427 N.am      14 UNK        -0.5000 
     80 CA         -5.9236  -25.4846  -47.6388 C.3       14 UNK         0.1400 
     81 CB         -6.3328  -24.8999  -49.0010 C.3       14 UNK        -0.1800 
     82 C          -5.6425  -24.3445  -46.6371 C.2       14 UNK         0.5000 
     83 O          -6.5932  -23.7046  -46.1869 O.2       14 UNK        -0.5000 
     84 N          -4.3579  -24.0897  -46.3339 N.am      15 UNK        -0.5000 
     85 CA         -3.8395  -22.9952  -45.5048 C.3       15 UNK         0.1400 
     86 CB         -4.2314  -23.1848  -44.0256 C.3       15 UNK        -0.1800 
     87 C          -4.1985  -21.5990  -46.0585 C.2       15 UNK         0.5000 
     88 O          -4.4588  -20.6713  -45.2909 O.2       15 UNK        -0.5000 
     89 N          -4.2152  -21.4834  -47.3921 N.am      16 UNK        -0.5000 
     90 CA         -4.6339  -20.2990  -48.1363 C.3       16 UNK         0.1400 
     91 CB         -6.1724  -20.2547  -48.2217 C.3       16 UNK        -0.1800 
     92 C          -3.9499  -20.2934  -49.5129 C.2       16 UNK         0.5000 
     93 O          -4.6141  -20.1113  -50.5329 O.2       16 UNK        -0.5000 
     94 N          -2.6297  -20.5285  -49.5200 N.am      17 UNK        -0.5000 
     95 CA         -1.7978  -20.7246  -50.7121 C.3       17 UNK         0.1400 
     96 CB         -0.3383  -20.8890  -50.2796 C.3       17 UNK        -0.1800 
     97 C          -1.9112  -19.6300  -51.7895 C.2       17 UNK         0.5000 
     98 O          -1.9718  -19.9589  -52.9739 O.2       17 UNK        -0.5000 
     99 N          -1.9749  -18.3581  -51.3725 N.am      18 UNK        -0.5000 
    100 CA        -2.1384  -17.2186  -52.2788 C.3       18 UNK         0.1400 
    101 CB        -1.8611  -15.9135  -51.5245 C.3       18 UNK        -0.1800 
    102 C         -3.5282  -17.1697  -52.9420 C.2       18 UNK         0.5000 
    103 O         -3.6229  -16.8243  -54.1197 O.2       18 UNK        -0.5000 
    104 N         -4.5759  -17.5501  -52.1959 N.am      19 UNK        -0.5000 
    105 CA        -5.9521  -17.6471  -52.6938 C.3       19 UNK         0.1400 
    106 CB        -6.9277  -17.7131  -51.5100 C.3       19 UNK        -0.1800 
    107 C         -6.1401  -18.8546  -53.6314 C.2       19 UNK         0.5000 
    108 O         -6.9204  -18.7781  -54.5803 O.2       19 UNK        -0.5000 
    109 N         -5.3703  -19.9221  -53.3825 N.am      20 UNK        -0.5000 
    110 CA        -5.2274  -21.1003  -54.2394 C.3       20 UNK         0.1400 
    111 CB        -4.7108  -22.2664  -53.3792 C.3       20 UNK        -0.1800 
    112 C         -4.3127  -20.8629  -55.4646 C.2       20 UNK         0.5000 
    113 O         -4.0304  -21.8146  -56.1954 O.2       20 UNK        -0.5000 
    114 N         -3.8416  -19.6197  -55.6596 N.am      21 UNK        -0.5000 
    115 CA        -2.9794  -19.1420  -56.7475 C.3       21 UNK         0.1400 
    116 CB        -3.7378  -19.1752  -58.0904 C.3       21 UNK        -0.1800 
    117 C         -1.6161  -19.8622  -56.8123 C.2       21 UNK         0.5000 
    118 O         -1.0359  -19.9956  -57.8913 O.2       21 UNK        -0.5000 
    119 N         -1.1352  -20.3202  -55.6502 N.am      22 UNK        -0.5000 
    120 CA         0.0712  -21.1350  -55.4627 C.3       22 UNK         0.1400 
    121 C         -0.0165  -22.5797  -56.0466 C.2       22 UNK         0.5000 
    122 N         -1.1962  -23.0863  -56.3911 N.am      22 UNK        -0.7600 
    123 O          0.9927  -23.2695  -56.1624 O.2       22 UNK        -0.5000 
    124 C124        1.3738  -20.3668  -55.8472 C.3       23 UNK        -0.0398 
    125 S125        2.5677  -20.3332  -54.4716 S.3       23 UNK        -0.2404 
    126 C126        1.9341  -18.8954  -53.5346 C.3       23 UNK        -0.0205 
    127 H127       -6.1122  -15.9028  -47.4433 H         1 UNK         0.0600 
    128 H128       -5.4841  -17.0634  -48.6174 H         1 UNK         0.0600 
    129 H129       -4.9028  -17.0873  -46.9476 H         1 UNK         0.0600 
    130 H130       -2.7857  -16.3676  -46.9382 H         1 UNK         0.3000 
    131 H131       -1.6831  -14.5964  -48.9224 H         1 UNK         0.0600 
    132 H132       -0.5053  -15.7351  -46.3398 H         1 UNK         0.0800 
    133 H133        0.3996  -14.7707  -47.4773 H         1 UNK         0.0800 
    134 H134        2.2244  -16.2979  -48.3008 H         1 UNK         0.0800 
    135 H135        1.4220  -15.6540  -49.7183 H         1 UNK         0.0800 
    136 H136        1.2708  -16.9806  -51.7756 H         1 UNK         0.1150 
    137 H137        3.3206  -20.7540  -51.9363 H         1 UNK         0.1150 
    138 H138        2.8929  -18.7129  -48.2118 H         1 UNK         0.1150 
    139 H139        4.6922  -21.3906  -49.9070 H         1 UNK         0.0800 
    140 H140        4.2724  -20.7018  -48.3509 H         1 UNK         0.0800 
    141 H141        4.1519  -24.1613  -48.7143 H         1 UNK         0.0800 
    142 H142        4.2293  -23.0250  -47.3954 H         1 UNK         0.0800 
    143 H143        3.2411  -25.1709  -46.6766 H         1 UNK         0.0600 
    144 H144        1.8817  -22.6899  -46.2841 H         1 UNK         0.3000 
    145 H145       -0.8031  -23.7316  -44.4755 H         1 UNK         0.0600 
    146 H146        1.5729  -22.8881  -42.7364 H         1 UNK         0.0600 
    147 H147       -0.1315  -22.8025  -42.2909 H         1 UNK         0.0600 
    148 H148        0.6369  -24.3621  -42.5150 H         1 UNK         0.0600 
    149 H149        0.4291  -21.2367  -44.1398 H         1 UNK         0.3000 
    150 H150        0.1868  -19.8011  -47.3082 H         1 UNK         0.0600 
    151 H151       -1.2673  -18.1387  -45.9293 H         1 UNK         0.0600 
    152 H152       -1.8271  -19.5377  -45.0207 H         1 UNK         0.0600 
    153 H153       -2.1235  -19.4305  -46.7480 H         1 UNK         0.0600 
    154 H154        0.7220  -18.5208  -44.9057 H         1 UNK         0.3000 
    155 H155        4.1757  -19.3819  -44.5093 H         1 UNK         0.0600 
    156 H156        4.0237  -17.5740  -46.1658 H         1 UNK         0.0600 
    157 H157        4.1580  -16.8734  -44.5605 H         1 UNK         0.0600 
    158 H158        2.6020  -16.8995  -45.3885 H         1 UNK         0.0600 
    159 H159        2.0336  -17.8977  -43.1252 H         1 UNK         0.3000 
    160 H160        1.5874  -20.3646  -40.6323 H         1 UNK         0.0600 
    161 H161        3.0501  -17.6907  -40.2814 H         1 UNK         0.0600 
    162 H162        3.6437  -19.2565  -39.7411 H         1 UNK         0.0600 
    163 H163        2.1939  -18.5777  -39.0192 H         1 UNK         0.0600 
    164 H164        0.6452  -17.6767  -40.8596 H         1 UNK         0.3000 
    165 H165       -1.9870  -18.2207  -43.1497 H         1 UNK         0.0600 
    166 H166       -2.1569  -17.8552  -40.1133 H         1 UNK         0.0600 
    167 H167       -3.4109  -17.4435  -41.2829 H         1 UNK         0.0600 
    168 H168       -2.9605  -19.1231  -41.0332 H         1 UNK         0.0600 
    169 H169       -1.4345  -15.9471  -41.6053 H         1 UNK         0.3000 
    170 H170        0.6026  -14.4864  -42.0203 H         1 UNK         0.0600 
    171 H171        2.1749  -14.7964  -43.9311 H         1 UNK         0.0600 
    172 H172        0.9333  -14.2473  -45.0517 H         1 UNK         0.0600 
    173 H173        1.5784  -13.1485  -43.8385 H         1 UNK         0.0600 
    174 H174       -1.0453  -13.2454  -44.0413 H         1 UNK         0.3000 
    175 H175       -3.6983  -13.1045  -43.3271 H         1 UNK         0.0600 
    176 H176       -4.7212  -11.4889  -41.7109 H         1 UNK         0.0600 
    177 H177       -4.4072  -13.0476  -40.9669 H         1 UNK         0.0600 
    178 H178       -3.3422  -11.6903  -40.6309 H         1 UNK         0.0600 
    179 H179       -2.8796  -11.2959  -44.2756 H         1 UNK         0.3000 
    180 H180       -1.9514   -8.5460  -43.6748 H         1 UNK         0.0600 
    181 H181        0.4211   -8.0701  -44.3601 H         1 UNK         0.0600 
    182 H182        0.2698   -8.4203  -42.6470 H         1 UNK         0.0600 
    183 H183        0.9071   -9.6450  -43.7331 H         1 UNK         0.0600 
    184 H184       -2.1918   -9.2085  -45.7594 H         1 UNK         0.3000 
    185 H185       -2.4125  -10.6402  -47.4518 H         1 UNK         0.0600 
    186 H186       -0.9320  -10.2289  -49.4019 H         1 UNK         0.0600 
    187 H187       -0.5733   -9.0715  -48.1316 H         1 UNK         0.0600 
    188 H188        0.5012  -10.4391  -48.3945 H         1 UNK         0.0600 
    189 H189       -0.8072  -12.5558  -48.6455 H         1 UNK         0.3000 
    190 H190        0.1785  -23.8990  -47.8374 H         1 UNK         0.3000 
    191 H191       -0.3060  -26.2354  -49.6216 H         1 UNK         0.0600 
    192 H192       -2.3237  -24.9160  -50.2880 H         1 UNK         0.0600 
    193 H193       -0.8600  -23.9800  -50.5436 H         1 UNK         0.0600 
    194 H194       -1.8894  -23.6425  -49.1527 H         1 UNK         0.0600 
    195 H195       -1.9394  -27.6925  -49.0903 H         1 UNK         0.3000 
    196 H196       -2.5158  -28.2071  -46.3783 H         1 UNK         0.0600 
    197 H197       -3.9854  -29.9989  -47.3210 H         1 UNK         0.0600 
    198 H198       -2.4279  -29.9601  -48.1302 H         1 UNK         0.0600 
    199 H199       -3.8512  -29.2813  -48.9218 H         1 UNK         0.0600 
    200 H200       -4.2481  -26.2450  -48.6879 H         1 UNK         0.3000 
    201 H201       -6.7598  -26.0685  -47.2487 H         1 UNK         0.0600 
    202 H202       -6.5969  -25.6884  -49.7058 H         1 UNK         0.0600 
    203 H203       -5.5310  -24.3075  -49.4437 H         1 UNK         0.0600 
    204 H204       -7.2034  -24.2499  -48.9030 H         1 UNK         0.0600 
    205 H205       -3.6420  -24.7001  -46.7146 H         1 UNK         0.3000 
    206 H206       -2.7558  -23.0714  -45.5627 H         1 UNK         0.0600 
    207 H207       -3.9463  -24.1742  -43.6677 H         1 UNK         0.0600 
    208 H208       -3.7268  -22.4541  -43.3923 H         1 UNK         0.0600 
    209 H209       -5.3043  -23.0671  -43.8719 H         1 UNK         0.0600 
    210 H210       -3.9716  -22.2911  -47.9475 H         1 UNK         0.3000 
    211 H211       -4.2950  -19.4038  -47.6134 H         1 UNK         0.0600 
    212 H212       -6.5130  -19.3504  -48.7246 H         1 UNK         0.0600 
    213 H213       -6.6253  -20.2577  -47.2303 H         1 UNK         0.0600 
    214 H214       -6.5676  -21.1103  -48.7708 H         1 UNK         0.0600 
    215 H215       -2.1703  -20.6923  -48.6359 H         1 UNK         0.3000 
    216 H216       -2.1189  -21.6615  -51.1705 H         1 UNK         0.0600 
    217 H217        0.3026  -21.1022  -51.1359 H         1 UNK         0.0600 
    218 H218       -0.2249  -21.7147  -49.5788 H         1 UNK         0.0600 
    219 H219        0.0441  -19.9884  -49.7987 H         1 UNK         0.0600 
    220 H220       -1.8963  -18.1607  -50.3856 H         1 UNK         0.3000 
    221 H221       -1.3953  -17.3111  -53.0741 H         1 UNK         0.0600 
    222 H222       -2.5738  -15.7706  -50.7139 H         1 UNK         0.0600 
    223 H223       -0.8569  -15.9025  -51.1031 H         1 UNK         0.0600 
    224 H224       -1.9434  -15.0523  -52.1887 H         1 UNK         0.0600 
    225 H225       -4.4075  -17.9011  -51.2640 H         1 UNK         0.3000 
    226 H226       -6.1744  -16.7428  -53.2644 H         1 UNK         0.0600 
    227 H227       -7.9609  -17.6952  -51.8587 H         1 UNK         0.0600 
    228 H228       -6.7970  -18.6266  -50.9314 H         1 UNK         0.0600 
    229 H229       -6.7960  -16.8640  -50.8392 H         1 UNK         0.0600 
    230 H230       -4.8119  -19.9143  -52.5350 H         1 UNK         0.3000 
    231 H231       -6.2132  -21.3716  -54.6219 H         1 UNK         0.0600 
    232 H232       -4.6862  -23.1955  -53.9498 H         1 UNK         0.0600 
    233 H233       -5.3523  -22.4346  -52.5138 H         1 UNK         0.0600 
    234 H234       -3.7009  -22.0797  -53.0151 H         1 UNK         0.0600 
    235 H235       -4.0923  -18.9158  -54.9783 H         1 UNK         0.3000 
    236 H236       -2.7563  -18.0986  -56.5209 H         1 UNK         0.0600 
    237 H237       -3.9407  -20.1962  -58.4152 H         1 UNK         0.0600 
    238 H238       -4.6904  -18.6505  -58.0175 H         1 UNK         0.0600 
    239 H239       -3.1616  -18.6896  -58.8788 H         1 UNK         0.0600 
    240 H240       -1.6697  -20.1565  -54.7997 H         1 UNK         0.3000 
    241 H241        0.0810  -21.3077  -54.3860 H         1 UNK         0.0600 
    242 H242       -1.2416  -24.0237  -56.7577 H         1 UNK         0.3800 
    243 H243       -2.0471  -22.5428  -56.3042 H         1 UNK         0.3800 
    244 H244        1.1612  -19.3343  -56.1280 H         1 UNK         0.0800 
    245 H245        1.8574  -20.8018  -56.7232 H         1 UNK         0.0800 
    246 H246        2.3014  -17.9844  -54.0092 H         1 UNK         0.0800 
    247 H247        0.8463  -18.8738  -53.6202 H         1 UNK         0.0800 
@<TRIPOS>BOND
     1    1    2 1    
     2    1  127 1    
     3    1  128 1    
     4    1  129 1    
     5    2    3 2    
     6    2    4 am   BACKBONE|DICT|INTERRES
     7    4    5 1    
     8    4  130 1    
     9    5    6 1    
    10    5   65 1    
    11    5  131 1    
    12    6    7 1    
    13    6  132 1    
    14    6  133 1    
    15    7    8 1    
    16    8    9 1    
    17    8  134 1    
    18    8  135 1    
    19    9   10 ar   
    20    9   14 ar   
    21   10   11 ar   
    22   10  136 1    
    23   11   12 ar   
    24   11  126 1    
    25   12   13 ar   
    26   12  137 1    
    27   13   14 ar   
    28   13   15 1    
    29   14  138 1    
    30   15   16 1    
    31   15  139 1    
    32   15  140 1    
    33   16   17 1    
    34   17   18 1    
    35   17  141 1    
    36   17  142 1    
    37   18   19 1    
    38   18   67 1    
    39   18  143 1    
    40   19   20 am   BACKBONE|DICT|INTERRES
    41   19  144 1    
    42   20   21 2    
    43   20   22 1    
    44   22   23 1    
    45   22   24 1    
    46   22  145 1    
    47   23  146 1    
    48   23  147 1    
    49   23  148 1    
    50   24   25 am   BACKBONE|DICT|INTERRES
    51   24  149 1    
    52   25   26 2    
    53   25   27 1    
    54   27   28 1    
    55   27   29 1    
    56   27  150 1    
    57   28  151 1    
    58   28  152 1    
    59   28  153 1    
    60   29   30 am   BACKBONE|DICT|INTERRES
    61   29  154 1    
    62   30   31 2    
    63   30   32 1    
    64   32   33 1    
    65   32   34 1    
    66   32  155 1    
    67   33  156 1    
    68   33  157 1    
    69   33  158 1    
    70   34   35 am   BACKBONE|DICT|INTERRES
    71   34  159 1    
    72   35   36 2    
    73   35   37 1    
    74   37   38 1    
    75   37   39 1    
    76   37  160 1    
    77   38  161 1    
    78   38  162 1    
    79   38  163 1    
    80   39   40 am   BACKBONE|DICT|INTERRES
    81   39  164 1    
    82   40   41 2    
    83   40   42 1    
    84   42   43 1    
    85   42   44 1    
    86   42  165 1    
    87   43  166 1    
    88   43  167 1    
    89   43  168 1    
    90   44   45 am   BACKBONE|DICT|INTERRES
    91   44  169 1    
    92   45   46 2    
    93   45   47 1    
    94   47   48 1    
    95   47   49 1    
    96   47  170 1    
    97   48  171 1    
    98   48  172 1    
    99   48  173 1    
   100   49   50 am   BACKBONE|DICT|INTERRES
   101   49  174 1    
   102   50   51 2    
   103   50   52 1    
   104   52   53 1    
   105   52   54 1    
   106   52  175 1    
   107   53  176 1    
   108   53  177 1    
   109   53  178 1    
   110   54   55 am   BACKBONE|DICT|INTERRES
   111   54  179 1    
   112   55   56 2    
   113   55   57 1    
   114   57   58 1    
   115   57   59 1    
   116   57  180 1    
   117   58  181 1    
   118   58  182 1    
   119   58  183 1    
   120   59   60 am   BACKBONE|DICT|INTERRES
   121   59  184 1    
   122   60   61 2    
   123   60   62 1    
   124   62   63 1    
   125   62   64 1    
   126   62  185 1    
   127   63  186 1    
   128   63  187 1    
   129   63  188 1    
   130   64   65 am   BACKBONE|DICT|INTERRES
   131   64  189 1    
   132   65   66 2    
   133   67   68 2    
   134   67   69 am   BACKBONE|DICT|INTERRES
   135   69   70 1    
   136   69  190 1    
   137   70   71 1    
   138   70   72 1    
   139   70  191 1    
   140   71  192 1    
   141   71  193 1    
   142   71  194 1    
   143   72   73 2    
   144   72   74 am   BACKBONE|DICT|INTERRES
   145   74   75 1    
   146   74  195 1    
   147   75   76 1    
   148   75   77 1    
   149   75  196 1    
   150   76  197 1    
   151   76  198 1    
   152   76  199 1    
   153   77   78 2    
   154   77   79 am   BACKBONE|DICT|INTERRES
   155   79   80 1    
   156   79  200 1    
   157   80   81 1    
   158   80   82 1    
   159   80  201 1    
   160   81  202 1    
   161   81  203 1    
   162   81  204 1    
   163   82   83 2    
   164   82   84 am   BACKBONE|DICT|INTERRES
   165   84   85 1    
   166   84  205 1    
   167   85   86 1    
   168   85   87 1    
   169   85  206 1    
   170   86  207 1    
   171   86  208 1    
   172   86  209 1    
   173   87   88 2    
   174   87   89 am   BACKBONE|DICT|INTERRES
   175   89   90 1    
   176   89  210 1    
   177   90   91 1    
   178   90   92 1    
   179   90  211 1    
   180   91  212 1    
   181   91  213 1    
   182   91  214 1    
   183   92   93 2    
   184   92   94 am   BACKBONE|DICT|INTERRES
   185   94   95 1    
   186   94  215 1    
   187   95   96 1    
   188   95   97 1    
   189   95  216 1    
   190   96  217 1    
   191   96  218 1    
   192   96  219 1    
   193   97   98 2    
   194   97   99 am   BACKBONE|DICT|INTERRES
   195   99  100 1    
   196   99  220 1    
   197  100  101 1    
   198  100  102 1    
   199  100  221 1    
   200  101  222 1    
   201  101  223 1    
   202  101  224 1    
   203  102  103 2    
   204  102  104 am   BACKBONE|DICT|INTERRES
   205  104  105 1    
   206  104  225 1    
   207  105  106 1    
   208  105  107 1    
   209  105  226 1    
   210  106  227 1    
   211  106  228 1    
   212  106  229 1    
   213  107  108 2    
   214  107  109 am   BACKBONE|DICT|INTERRES
   215  109  110 1    
   216  109  230 1    
   217  110  111 1    
   218  110  112 1    
   219  110  231 1    
   220  111  232 1    
   221  111  233 1    
   222  111  234 1    
   223  112  113 2    
   224  112  114 am   BACKBONE|DICT|INTERRES
   225  114  115 1    
   226  114  235 1    
   227  115  116 1    
   228  115  117 1    
   229  115  236 1    
   230  116  237 1    
   231  116  238 1    
   232  116  239 1    
   233  117  118 2    
   234  117  119 am   BACKBONE|DICT|INTERRES
   235  119  120 1    
   236  119  240 1    
   237  120  121 1    
   238  120  124 1    
   239  120  241 1    
   240  121  122 am   BACKBONE|DICT|INTERRES
   241  121  123 2    
   242  122  242 1    
   243  122  243 1    
   244  124  125 1    
   245  124  244 1    
   246  124  245 1    
   247  125  126 1    
   248  126  246 1    
   249  126  247 1    
@<TRIPOS>SUBSTRUCTURE
     1 UNK         1 GROUP             0       ****    0 ROOT    
