@<TRIPOS>MOLECULE
3R540
247   249    1
SMALL
USER_CHARGES


@<TRIPOS>ATOM
      1 CA         -2.8813  -12.0433  -43.5325 C.3       0 UNK        -0.1800 
      2 C          -2.0943  -11.6109  -44.7606 C.2       0 UNK         0.5000 
      3 O          -1.4217  -10.5800  -44.7253 O.2       0 UNK        -0.5000 
      4 N          -2.1914  -12.3852  -45.8474 N.am      1 UNK        -0.5000 
      5 CA         -1.4680  -12.1618  -47.1017 C.3       1 UNK         0.1400 
      6 C6         -2.2160  -12.7995  -48.3019 C.3       23 UNK        -0.0398 
      7 S7         -2.2261  -14.6292  -48.3402 S.3       23 UNK        -0.2404 
      8 C8         -1.3358  -14.9102  -49.9020 C.3       23 UNK        -0.0205 
      9 C9         -1.1881  -16.3891  -50.2161 C.ar      23 UNK        -0.0193 
     10 C10        -2.2193  -17.0757  -50.8654 C.ar      23 UNK        -0.1150 
     11 C11        -2.0818  -18.4313  -51.1789 C.ar      23 UNK        -0.0193 
     12 C12        -0.8914  -19.0883  -50.8625 C.ar      23 UNK        -0.1150 
     13 C13         0.1422  -18.4179  -50.2026 C.ar      23 UNK        -0.0193 
     14 C14        -0.0120  -17.0671  -49.8805 C.ar      23 UNK        -0.1150 
     15 C15         1.4195  -19.1616  -49.8353 C.3       23 UNK        -0.0205 
     16 S16         1.4990  -19.5857  -48.0626 S.3       23 UNK        -0.2404 
     17 C17        -0.1173  -20.3812  -47.7719 C.3       23 UNK        -0.0398 
     18 CA         -0.0459  -21.6684  -46.9218 C.3       11 UNK         0.1400 
     19 N           0.4455  -21.4415  -45.5591 N.am      11 UNK        -0.5000 
     20 C           0.7298  -22.4185  -44.6848 C.2       10 UNK         0.5000 
     21 O           0.6846  -23.6169  -44.9631 O.2       10 UNK        -0.5000 
     22 CA          1.0680  -21.9949  -43.2437 C.3       10 UNK         0.1400 
     23 CB          2.5452  -21.5950  -43.1107 C.3       10 UNK        -0.1800 
     24 N           0.2061  -20.9112  -42.7694 N.am      10 UNK        -0.5000 
     25 C          -1.1095  -21.0432  -42.5439 C.2       9 UNK         0.5000 
     26 O          -1.7143  -22.1113  -42.6429 O.2       9 UNK        -0.5000 
     27 CA         -1.8903  -19.7683  -42.1732 C.3       9 UNK         0.1400 
     28 CB         -1.8159  -19.5117  -40.6609 C.3       9 UNK        -0.1800 
     29 N          -1.4337  -18.5802  -42.8962 N.am      9 UNK        -0.5000 
     30 C          -1.5123  -18.4143  -44.2247 C.2       8 UNK         0.5000 
     31 O          -2.0180  -19.2384  -44.9849 O.2       8 UNK        -0.5000 
     32 CA         -0.8615  -17.1452  -44.8090 C.3       8 UNK         0.1400 
     33 CB         -1.7812  -15.9283  -44.6354 C.3       8 UNK        -0.1800 
     34 N           0.4506  -16.8644  -44.2218 N.am      8 UNK        -0.5000 
     35 C           1.4957  -17.7036  -44.2747 C.2       7 UNK         0.5000 
     36 O           1.4723  -18.7891  -44.8507 O.2       7 UNK        -0.5000 
     37 CA          2.7515  -17.2996  -43.4882 C.3       7 UNK         0.1400 
     38 CB          3.5915  -16.2713  -44.2629 C.3       7 UNK        -0.1800 
     39 N           2.3980  -16.7788  -42.1679 N.am      7 UNK        -0.5000 
     40 C           1.9568  -17.5415  -41.1562 C.2       6 UNK         0.5000 
     41 O           1.8603  -18.7671  -41.2185 O.2       6 UNK        -0.5000 
     42 CA          1.5158  -16.8132  -39.8717 C.3       6 UNK         0.1400 
     43 CB          2.7196  -16.5687  -38.9498 C.3       6 UNK        -0.1800 
     44 N           0.8488  -15.5388  -40.1410 N.am      6 UNK        -0.5000 
     45 C          -0.3317  -15.4158  -40.7643 C.2       5 UNK         0.5000 
     46 O          -1.0179  -16.3726  -41.1178 O.2       5 UNK        -0.5000 
     47 CA         -0.7998  -13.9864  -41.1004 C.3       5 UNK         0.1400 
     48 CB         -1.6757  -13.4279  -39.9694 C.3       5 UNK        -0.1800 
     49 N           0.2987  -13.0530  -41.3721 N.am      5 UNK        -0.5000 
     50 C           1.2176  -13.2147  -42.3337 C.2       4 UNK         0.5000 
     51 O           1.2265  -14.1697  -43.1138 O.2       4 UNK        -0.5000 
     52 CA          2.3645  -12.1963  -42.3570 C.3       4 UNK         0.1400 
     53 CB          3.2908  -12.4400  -41.1440 C.3       4 UNK        -0.1800 
     54 N           3.1078  -12.3420  -43.6067 N.am      4 UNK        -0.5000 
     55 C           4.1134  -11.5603  -44.0185 C.2       3 UNK         0.5000 
     56 O           4.4939  -10.5568  -43.4136 O.2       3 UNK        -0.5000 
     57 CA          4.8312  -11.9653  -45.3195 C.3       3 UNK         0.1400 
     58 CB          5.9462  -12.9806  -45.0240 C.3       3 UNK        -0.1800 
     59 N           3.9406  -12.5163  -46.3410 N.am      3 UNK        -0.5000 
     60 C           3.0355  -11.8020  -47.0221 C.2       2 UNK         0.5000 
     61 O           2.8338  -10.6006  -46.8316 O.2       2 UNK        -0.5000 
     62 CA          2.2423  -12.5238  -48.1332 C.3       2 UNK         0.1400 
     63 CB          2.5255  -14.0411  -48.2482 C.3       2 UNK        -0.1800 
     64 N           0.8046  -12.2587  -48.0238 N.am      2 UNK        -0.5000 
     65 C           0.0122  -12.6017  -46.9980 C.2       1 UNK         0.5000 
     66 O           0.4052  -13.2414  -46.0202 O.2       1 UNK        -0.5000 
     67 C          -1.4279  -22.3517  -46.9204 C.2       11 UNK         0.5000 
     68 O          -1.6285  -23.3045  -47.6721 O.2       11 UNK        -0.5000 
     69 N          -2.3474  -21.8759  -46.0674 N.am      12 UNK        -0.5000 
     70 CA         -3.7372  -22.3351  -45.9554 C.3       12 UNK         0.1400 
     71 CB         -4.4878  -21.4440  -44.9546 C.3       12 UNK        -0.1800 
     72 C          -3.9146  -23.8228  -45.5894 C.2       12 UNK         0.5000 
     73 O          -4.9942  -24.3681  -45.8189 O.2       12 UNK        -0.5000 
     74 N          -2.8624  -24.4650  -45.0630 N.am      13 UNK        -0.5000 
     75 CA         -2.8016  -25.9110  -44.8420 C.3       13 UNK         0.1400 
     76 CB         -1.5557  -26.2389  -44.0059 C.3       13 UNK        -0.1800 
     77 C          -2.8024  -26.7213  -46.1567 C.2       13 UNK         0.5000 
     78 O          -3.3042  -27.8460  -46.1703 O.2       13 UNK        -0.5000 
     79 N          -2.2563  -26.1341  -47.2302 N.am      14 UNK        -0.5000 
     80 CA         -2.2477  -26.6837  -48.5867 C.3       14 UNK         0.1400 
     81 CB         -0.8139  -26.6145  -49.1341 C.3       14 UNK        -0.1800 
     82 C          -3.2388  -25.9427  -49.5059 C.2       14 UNK         0.5000 
     83 O          -3.7829  -26.5576  -50.4242 O.2       14 UNK        -0.5000 
     84 N          -3.4745  -24.6500  -49.2332 N.am      15 UNK        -0.5000 
     85 CA         -4.4339  -23.7501  -49.8768 C.3       15 UNK         0.1400 
     86 CB         -5.8776  -24.1337  -49.4860 C.3       15 UNK        -0.1800 
     87 C          -4.1987  -23.6569  -51.3945 C.2       15 UNK         0.5000 
     88 O          -3.1956  -23.0769  -51.8086 O.2       15 UNK        -0.5000 
     89 N          -5.0940  -24.2463  -52.1979 N.am      16 UNK        -0.5000 
     90 CA         -5.0124  -24.2983  -53.6604 C.3       16 UNK         0.1400 
     91 CB         -6.2627  -25.0047  -54.2045 C.3       16 UNK        -0.1800 
     92 C          -3.7350  -24.9813  -54.1919 C.2       16 UNK         0.5000 
     93 O          -3.2942  -24.6621  -55.2963 O.2       16 UNK        -0.5000 
     94 N          -3.1529  -25.8900  -53.3950 N.am      17 UNK        -0.5000 
     95 CA         -1.8760  -26.5390  -53.6868 C.3       17 UNK         0.1400 
     96 CB         -1.8267  -27.9030  -52.9811 C.3       17 UNK        -0.1800 
     97 C          -0.6562  -25.6694  -53.3168 C.2       17 UNK         0.5000 
     98 O           0.4357  -25.9484  -53.8135 O.2       17 UNK        -0.5000 
     99 N          -0.8399  -24.6364  -52.4776 N.am      18 UNK        -0.5000 
    100 CA         0.1919  -23.6396  -52.1802 C.3       18 UNK         0.1400 
    101 CB        -0.0569  -22.9843  -50.8114 C.3       18 UNK        -0.1800 
    102 C          0.2612  -22.5862  -53.2979 C.2       18 UNK         0.5000 
    103 O          1.3556  -22.2860  -53.7761 O.2       18 UNK        -0.5000 
    104 N         -0.9045  -22.0850  -53.7275 N.am      19 UNK        -0.5000 
    105 CA        -1.0622  -21.2294  -54.8998 C.3       19 UNK         0.1400 
    106 CB        -0.5987  -19.7901  -54.6077 C.3       19 UNK        -0.1800 
    107 C         -2.5291  -21.2533  -55.3433 C.2       19 UNK         0.5000 
    108 O         -3.4251  -21.2599  -54.4977 O.2       19 UNK        -0.5000 
    109 N         -2.7513  -21.2166  -56.6629 N.am      20 UNK        -0.5000 
    110 CA        -4.0672  -21.3123  -57.3072 C.3       20 UNK         0.1400 
    111 CB        -3.8594  -21.4991  -58.8187 C.3       20 UNK        -0.1800 
    112 C         -5.0182  -20.1271  -57.0326 C.2       20 UNK         0.5000 
    113 O         -6.2054  -20.2231  -57.3451 O.2       20 UNK        -0.5000 
    114 N         -4.4929  -19.0366  -56.4564 N.am      21 UNK        -0.5000 
    115 CA        -5.2570  -17.8775  -55.9918 C.3       21 UNK         0.1400 
    116 CB        -4.2757  -16.7521  -55.6282 C.3       21 UNK        -0.1800 
    117 C         -6.1781  -18.1945  -54.7948 C.2       21 UNK         0.5000 
    118 O         -7.1888  -17.5137  -54.6149 O.2       21 UNK        -0.5000 
    119 N         -5.8165  -19.2118  -54.0041 N.am      22 UNK        -0.5000 
    120 CA        -6.6158  -19.7341  -52.8909 C.3       22 UNK         0.1400 
    121 C         -7.7109  -20.7024  -53.4124 C.2       22 UNK         0.5000 
    122 N         -8.9405  -20.5774  -52.9324 N.am      22 UNK        -0.7600 
    123 O         -7.4461  -21.5950  -54.2137 O.2       22 UNK        -0.5000 
    124 C124       -5.7167  -20.4452  -51.8523 C.3       23 UNK        -0.0398 
    125 S125       -4.7051  -19.2920  -50.8647 S.3       23 UNK        -0.2404 
    126 C126       -3.2001  -19.1867  -51.8806 C.3       23 UNK        -0.0205 
    127 H127       -3.8067  -11.4720  -43.4603 H         1 UNK         0.0600 
    128 H128       -2.2984  -11.8592  -42.6309 H         1 UNK         0.0600 
    129 H129       -3.1327  -13.1036  -43.5680 H         1 UNK         0.0600 
    130 H130       -2.7306  -13.2376  -45.8083 H         1 UNK         0.3000 
    131 H131       -1.4540  -11.0841  -47.2793 H         1 UNK         0.0600 
    132 H132       -3.2539  -12.4636  -48.3008 H         1 UNK         0.0800 
    133 H133       -1.8023  -12.4173  -49.2360 H         1 UNK         0.0800 
    134 H134       -1.8698  -14.4179  -50.7164 H         1 UNK         0.0800 
    135 H135       -0.3538  -14.4387  -49.8490 H         1 UNK         0.0800 
    136 H136       -3.1330  -16.5577  -51.1213 H         1 UNK         0.1150 
    137 H137       -0.7732  -20.1297  -51.1223 H         1 UNK         0.1150 
    138 H138        0.7845  -16.5470  -49.3679 H         1 UNK         0.1150 
    139 H139        1.5179  -20.0713  -50.4280 H         1 UNK         0.0800 
    140 H140        2.2826  -18.5440  -50.0877 H         1 UNK         0.0800 
    141 H141       -0.7787  -19.6435  -47.3154 H         1 UNK         0.0800 
    142 H142       -0.5590  -20.6289  -48.7360 H         1 UNK         0.0800 
    143 H143        0.6506  -22.3534  -47.4103 H         1 UNK         0.0600 
    144 H144        0.5774  -20.4740  -45.2757 H         1 UNK         0.3000 
    145 H145        0.8996  -22.8597  -42.5982 H         1 UNK         0.0600 
    146 H146        2.7926  -21.3380  -42.0806 H         1 UNK         0.0600 
    147 H147        3.1974  -22.4175  -43.4065 H         1 UNK         0.0600 
    148 H148        2.7952  -20.7400  -43.7376 H         1 UNK         0.0600 
    149 H149        0.6405  -20.0063  -42.6367 H         1 UNK         0.3000 
    150 H150       -2.9367  -19.9328  -42.4364 H         1 UNK         0.0600 
    151 H151       -2.1610  -20.3803  -40.0988 H         1 UNK         0.0600 
    152 H152       -2.4440  -18.6685  -40.3732 H         1 UNK         0.0600 
    153 H153       -0.7966  -19.2950  -40.3397 H         1 UNK         0.0600 
    154 H154       -1.0584  -17.8236  -42.3301 H         1 UNK         0.3000 
    155 H155       -0.7118  -17.3073  -45.8787 H         1 UNK         0.0600 
    156 H156       -1.3188  -15.0281  -45.0375 H         1 UNK         0.0600 
    157 H157       -2.0182  -15.7450  -43.5881 H         1 UNK         0.0600 
    158 H158       -2.7232  -16.0760  -45.1647 H         1 UNK         0.0600 
    159 H159        0.5693  -15.9701  -43.7561 H         1 UNK         0.3000 
    160 H160        3.3645  -18.1930  -43.3500 H         1 UNK         0.0600 
    161 H161        3.0229  -15.3754  -44.5093 H         1 UNK         0.0600 
    162 H162        3.9460  -16.6954  -45.2031 H         1 UNK         0.0600 
    163 H163        4.4685  -15.9687  -43.6910 H         1 UNK         0.0600 
    164 H164        2.3610  -15.7733  -42.0766 H         1 UNK         0.3000 
    165 H165        0.8095  -17.4610  -39.3482 H         1 UNK         0.0600 
    166 H166        3.4515  -15.9032  -39.4094 H         1 UNK         0.0600 
    167 H167        2.4085  -16.1246  -38.0041 H         1 UNK         0.0600 
    168 H168        3.2281  -17.5051  -38.7161 H         1 UNK         0.0600 
    169 H169        1.3431  -14.6997  -39.8777 H         1 UNK         0.3000 
    170 H170       -1.4058  -14.0528  -42.0044 H         1 UNK         0.0600 
    171 H171       -2.5216  -14.0872  -39.7699 H         1 UNK         0.0600 
    172 H172       -1.1145  -13.3236  -39.0400 H         1 UNK         0.0600 
    173 H173       -2.0824  -12.4501  -40.2271 H         1 UNK         0.0600 
    174 H174        0.3683  -12.2536  -40.7588 H         1 UNK         0.3000 
    175 H175        1.9399  -11.1917  -42.3120 H         1 UNK         0.0600 
    176 H176        4.0836  -11.6954  -41.0815 H         1 UNK         0.0600 
    177 H177        2.7411  -12.3857  -40.2037 H         1 UNK         0.0600 
    178 H178        3.7618  -13.4228  -41.1922 H         1 UNK         0.0600 
    179 H179        2.7946  -13.1134  -44.1841 H         1 UNK         0.3000 
    180 H180        5.2974  -11.0667  -45.7296 H         1 UNK         0.0600 
    181 H181        6.5220  -13.2078  -45.9214 H         1 UNK         0.0600 
    182 H182        6.6438  -12.5893  -44.2823 H         1 UNK         0.0600 
    183 H183        5.5462  -13.9172  -44.6349 H         1 UNK         0.0600 
    184 H184        4.0430  -13.4973  -46.5545 H         1 UNK         0.3000 
    185 H185        2.5636  -12.0654  -49.0695 H         1 UNK         0.0600 
    186 H186        1.9663  -14.4756  -49.0756 H         1 UNK         0.0600 
    187 H187        3.5800  -14.2333  -48.4492 H         1 UNK         0.0600 
    188 H188        2.2533  -14.5866  -47.3438 H         1 UNK         0.0600 
    189 H189        0.4169  -11.6954  -48.7670 H         1 UNK         0.3000 
    190 H190       -2.1095  -21.0550  -45.5155 H         1 UNK         0.3000 
    191 H191       -4.1975  -22.1975  -46.9355 H         1 UNK         0.0600 
    192 H192       -5.5363  -21.7348  -44.8789 H         1 UNK         0.0600 
    193 H193       -4.4659  -20.3982  -45.2611 H         1 UNK         0.0600 
    194 H194       -4.0564  -21.5130  -43.9563 H         1 UNK         0.0600 
    195 H195       -2.0190  -23.9379  -44.8817 H         1 UNK         0.3000 
    196 H196       -3.6843  -26.2033  -44.2696 H         1 UNK         0.0600 
    197 H197       -1.5140  -27.3028  -43.7694 H         1 UNK         0.0600 
    198 H198       -1.5586  -25.6945  -43.0613 H         1 UNK         0.0600 
    199 H199       -0.6376  -25.9849  -44.5367 H         1 UNK         0.0600 
    200 H200       -1.8900  -25.1934  -47.1307 H         1 UNK         0.3000 
    201 H201       -2.5508  -27.7326  -48.5776 H         1 UNK         0.0600 
    202 H202       -0.1769  -27.3480  -48.6399 H         1 UNK         0.0600 
    203 H203       -0.3692  -25.6355  -48.9678 H         1 UNK         0.0600 
    204 H204       -0.7743  -26.8188  -50.2032 H         1 UNK         0.0600 
    205 H205       -2.8732  -24.2032  -48.5445 H         1 UNK         0.3000 
    206 H206       -4.2377  -22.7527  -49.4802 H         1 UNK         0.0600 
    207 H207       -6.0147  -24.0692  -48.4067 H         1 UNK         0.0600 
    208 H208       -6.6029  -23.4573  -49.9402 H         1 UNK         0.0600 
    209 H209       -6.1326  -25.1505  -49.7861 H         1 UNK         0.0600 
    210 H210       -5.8706  -24.7320  -51.7738 H         1 UNK         0.3000 
    211 H211       -5.0165  -23.2714  -54.0284 H         1 UNK         0.0600 
    212 H212       -6.3316  -26.0331  -53.8480 H         1 UNK         0.0600 
    213 H213       -6.2506  -25.0332  -55.2949 H         1 UNK         0.0600 
    214 H214       -7.1715  -24.4816  -53.9062 H         1 UNK         0.0600 
    215 H215       -3.5717  -26.0951  -52.4939 H         1 UNK         0.3000 
    216 H216       -1.8158  -26.7272  -54.7610 H         1 UNK         0.0600 
    217 H217       -0.8801  -28.4103  -53.1718 H         1 UNK         0.0600 
    218 H218       -2.6218  -28.5570  -53.3395 H         1 UNK         0.0600 
    219 H219       -1.9375  -27.8094  -51.9025 H         1 UNK         0.0600 
    220 H220       -1.7776  -24.4119  -52.1640 H         1 UNK         0.3000 
    221 H221        1.1618  -24.1391  -52.1278 H         1 UNK         0.0600 
    222 H222       -0.9915  -22.4277  -50.7769 H         1 UNK         0.0600 
    223 H223       -0.0858  -23.7245  -50.0166 H         1 UNK         0.0600 
    224 H224        0.7457  -22.2894  -50.5667 H         1 UNK         0.0600 
    225 H225       -1.7729  -22.3721  -53.2844 H         1 UNK         0.3000 
    226 H226       -0.4536  -21.6414  -55.7076 H         1 UNK         0.0600 
    227 H227        0.4523  -19.7561  -54.3216 H         1 UNK         0.0600 
    228 H228       -0.7119  -19.1575  -55.4888 H         1 UNK         0.0600 
    229 H229       -1.1750  -19.3350  -53.8049 H         1 UNK         0.0600 
    230 H230       -1.9586  -21.1818  -57.2876 H         1 UNK         0.3000 
    231 H231       -4.5584  -22.2068  -56.9177 H         1 UNK         0.0600 
    232 H232       -4.8129  -21.6181  -59.3350 H         1 UNK         0.0600 
    233 H233       -3.2670  -22.3898  -59.0288 H         1 UNK         0.0600 
    234 H234       -3.3505  -20.6426  -59.2627 H         1 UNK         0.0600 
    235 H235       -3.5054  -19.0419  -56.2512 H         1 UNK         0.3000 
    236 H236       -5.8881  -17.5333  -56.8137 H         1 UNK         0.0600 
    237 H237       -3.6025  -17.0484  -54.8226 H         1 UNK         0.0600 
    238 H238       -3.6676  -16.4656  -56.4864 H         1 UNK         0.0600 
    239 H239       -4.8097  -15.8601  -55.2977 H         1 UNK         0.0600 
    240 H240       -5.0079  -19.7656  -54.2599 H         1 UNK         0.3000 
    241 H241       -7.1096  -18.8970  -52.3928 H         1 UNK         0.0600 
    242 H242       -9.6560  -21.2110  -53.2535 H         1 UNK         0.3800 
    243 H243       -9.1815  -19.8555  -52.2706 H         1 UNK         0.3800 
    244 H244       -5.0719  -21.1688  -52.3492 H         1 UNK         0.0800 
    245 H245       -6.3229  -21.0132  -51.1443 H         1 UNK         0.0800 
    246 H246       -2.8747  -20.1983  -52.1277 H         1 UNK         0.0800 
    247 H247       -3.4250  -18.6889  -52.8232 H         1 UNK         0.0800 
@<TRIPOS>BOND
     1    1    2 1    
     2    1  127 1    
     3    1  128 1    
     4    1  129 1    
     5    2    3 2    
     6    2    4 am   BACKBONE|DICT|INTERRES
     7    4    5 1    
     8    4  130 1    
     9    5    6 1    
    10    5   65 1    
    11    5  131 1    
    12    6    7 1    
    13    6  132 1    
    14    6  133 1    
    15    7    8 1    
    16    8    9 1    
    17    8  134 1    
    18    8  135 1    
    19    9   10 ar   
    20    9   14 ar   
    21   10   11 ar   
    22   10  136 1    
    23   11   12 ar   
    24   11  126 1    
    25   12   13 ar   
    26   12  137 1    
    27   13   14 ar   
    28   13   15 1    
    29   14  138 1    
    30   15   16 1    
    31   15  139 1    
    32   15  140 1    
    33   16   17 1    
    34   17   18 1    
    35   17  141 1    
    36   17  142 1    
    37   18   19 1    
    38   18   67 1    
    39   18  143 1    
    40   19   20 am   BACKBONE|DICT|INTERRES
    41   19  144 1    
    42   20   21 2    
    43   20   22 1    
    44   22   23 1    
    45   22   24 1    
    46   22  145 1    
    47   23  146 1    
    48   23  147 1    
    49   23  148 1    
    50   24   25 am   BACKBONE|DICT|INTERRES
    51   24  149 1    
    52   25   26 2    
    53   25   27 1    
    54   27   28 1    
    55   27   29 1    
    56   27  150 1    
    57   28  151 1    
    58   28  152 1    
    59   28  153 1    
    60   29   30 am   BACKBONE|DICT|INTERRES
    61   29  154 1    
    62   30   31 2    
    63   30   32 1    
    64   32   33 1    
    65   32   34 1    
    66   32  155 1    
    67   33  156 1    
    68   33  157 1    
    69   33  158 1    
    70   34   35 am   BACKBONE|DICT|INTERRES
    71   34  159 1    
    72   35   36 2    
    73   35   37 1    
    74   37   38 1    
    75   37   39 1    
    76   37  160 1    
    77   38  161 1    
    78   38  162 1    
    79   38  163 1    
    80   39   40 am   BACKBONE|DICT|INTERRES
    81   39  164 1    
    82   40   41 2    
    83   40   42 1    
    84   42   43 1    
    85   42   44 1    
    86   42  165 1    
    87   43  166 1    
    88   43  167 1    
    89   43  168 1    
    90   44   45 am   BACKBONE|DICT|INTERRES
    91   44  169 1    
    92   45   46 2    
    93   45   47 1    
    94   47   48 1    
    95   47   49 1    
    96   47  170 1    
    97   48  171 1    
    98   48  172 1    
    99   48  173 1    
   100   49   50 am   BACKBONE|DICT|INTERRES
   101   49  174 1    
   102   50   51 2    
   103   50   52 1    
   104   52   53 1    
   105   52   54 1    
   106   52  175 1    
   107   53  176 1    
   108   53  177 1    
   109   53  178 1    
   110   54   55 am   BACKBONE|DICT|INTERRES
   111   54  179 1    
   112   55   56 2    
   113   55   57 1    
   114   57   58 1    
   115   57   59 1    
   116   57  180 1    
   117   58  181 1    
   118   58  182 1    
   119   58  183 1    
   120   59   60 am   BACKBONE|DICT|INTERRES
   121   59  184 1    
   122   60   61 2    
   123   60   62 1    
   124   62   63 1    
   125   62   64 1    
   126   62  185 1    
   127   63  186 1    
   128   63  187 1    
   129   63  188 1    
   130   64   65 am   BACKBONE|DICT|INTERRES
   131   64  189 1    
   132   65   66 2    
   133   67   68 2    
   134   67   69 am   BACKBONE|DICT|INTERRES
   135   69   70 1    
   136   69  190 1    
   137   70   71 1    
   138   70   72 1    
   139   70  191 1    
   140   71  192 1    
   141   71  193 1    
   142   71  194 1    
   143   72   73 2    
   144   72   74 am   BACKBONE|DICT|INTERRES
   145   74   75 1    
   146   74  195 1    
   147   75   76 1    
   148   75   77 1    
   149   75  196 1    
   150   76  197 1    
   151   76  198 1    
   152   76  199 1    
   153   77   78 2    
   154   77   79 am   BACKBONE|DICT|INTERRES
   155   79   80 1    
   156   79  200 1    
   157   80   81 1    
   158   80   82 1    
   159   80  201 1    
   160   81  202 1    
   161   81  203 1    
   162   81  204 1    
   163   82   83 2    
   164   82   84 am   BACKBONE|DICT|INTERRES
   165   84   85 1    
   166   84  205 1    
   167   85   86 1    
   168   85   87 1    
   169   85  206 1    
   170   86  207 1    
   171   86  208 1    
   172   86  209 1    
   173   87   88 2    
   174   87   89 am   BACKBONE|DICT|INTERRES
   175   89   90 1    
   176   89  210 1    
   177   90   91 1    
   178   90   92 1    
   179   90  211 1    
   180   91  212 1    
   181   91  213 1    
   182   91  214 1    
   183   92   93 2    
   184   92   94 am   BACKBONE|DICT|INTERRES
   185   94   95 1    
   186   94  215 1    
   187   95   96 1    
   188   95   97 1    
   189   95  216 1    
   190   96  217 1    
   191   96  218 1    
   192   96  219 1    
   193   97   98 2    
   194   97   99 am   BACKBONE|DICT|INTERRES
   195   99  100 1    
   196   99  220 1    
   197  100  101 1    
   198  100  102 1    
   199  100  221 1    
   200  101  222 1    
   201  101  223 1    
   202  101  224 1    
   203  102  103 2    
   204  102  104 am   BACKBONE|DICT|INTERRES
   205  104  105 1    
   206  104  225 1    
   207  105  106 1    
   208  105  107 1    
   209  105  226 1    
   210  106  227 1    
   211  106  228 1    
   212  106  229 1    
   213  107  108 2    
   214  107  109 am   BACKBONE|DICT|INTERRES
   215  109  110 1    
   216  109  230 1    
   217  110  111 1    
   218  110  112 1    
   219  110  231 1    
   220  111  232 1    
   221  111  233 1    
   222  111  234 1    
   223  112  113 2    
   224  112  114 am   BACKBONE|DICT|INTERRES
   225  114  115 1    
   226  114  235 1    
   227  115  116 1    
   228  115  117 1    
   229  115  236 1    
   230  116  237 1    
   231  116  238 1    
   232  116  239 1    
   233  117  118 2    
   234  117  119 am   BACKBONE|DICT|INTERRES
   235  119  120 1    
   236  119  240 1    
   237  120  121 1    
   238  120  124 1    
   239  120  241 1    
   240  121  122 am   BACKBONE|DICT|INTERRES
   241  121  123 2    
   242  122  242 1    
   243  122  243 1    
   244  124  125 1    
   245  124  244 1    
   246  124  245 1    
   247  125  126 1    
   248  126  246 1    
   249  126  247 1    
@<TRIPOS>SUBSTRUCTURE
     1 UNK         1 GROUP             0       ****    0 ROOT    
