@<TRIPOS>MOLECULE
3R540
247   249    1
SMALL
USER_CHARGES


@<TRIPOS>ATOM
      1 CA         -1.0098  -11.1187  -51.2831 C.3       0 UNK        -0.1800 
      2 C          -1.2487  -11.8753  -49.9855 C.2       0 UNK         0.5000 
      3 O          -0.5909  -11.5924  -48.9853 O.2       0 UNK        -0.5000 
      4 N          -2.2001  -12.8191  -49.9949 N.am      1 UNK        -0.5000 
      5 CA         -2.5718  -13.7196  -48.8916 C.3       1 UNK         0.1400 
      6 C6         -3.7181  -14.6654  -49.3490 C.3       23 UNK        -0.0398 
      7 S7         -4.4355  -15.7869  -48.0993 S.3       23 UNK        -0.2404 
      8 C8         -3.0169  -16.8286  -47.6491 C.3       23 UNK        -0.0205 
      9 C9         -2.6362  -17.8246  -48.7325 C.ar      23 UNK        -0.0193 
     10 C10        -1.5637  -17.5684  -49.5915 C.ar      23 UNK        -0.1150 
     11 C11        -1.1704  -18.5157  -50.5429 C.ar      23 UNK        -0.0193 
     12 C12        -1.8689  -19.7247  -50.6328 C.ar      23 UNK        -0.1150 
     13 C13        -2.9415  -19.9928  -49.7768 C.ar      23 UNK        -0.0193 
     14 C14        -3.3221  -19.0367  -48.8324 C.ar      23 UNK        -0.1150 
     15 C15        -3.6854  -21.3183  -49.8573 C.3       23 UNK        -0.0205 
     16 S16        -2.6413  -22.7539  -49.4391 S.3       23 UNK        -0.2404 
     17 C17        -1.8057  -22.2078  -47.9130 C.3       23 UNK        -0.0398 
     18 CA         -1.0277  -23.3611  -47.2337 C.3       11 UNK         0.1400 
     19 N           0.1869  -22.8998  -46.5593 N.am      11 UNK        -0.5000 
     20 C           1.1514  -23.7046  -46.0923 C.2       10 UNK         0.5000 
     21 O           1.1343  -24.9288  -46.2135 O.2       10 UNK        -0.5000 
     22 CA          2.3061  -23.0378  -45.3220 C.3       10 UNK         0.1400 
     23 CB          3.3500  -22.4584  -46.2877 C.3       10 UNK        -0.1800 
     24 N           1.8428  -21.9941  -44.4063 N.am      10 UNK        -0.5000 
     25 C           1.0520  -22.2193  -43.3470 C.2       9 UNK         0.5000 
     26 O           0.6710  -23.3395  -43.0050 O.2       9 UNK        -0.5000 
     27 CA          0.5657  -20.9840  -42.5671 C.3       9 UNK         0.1400 
     28 CB          1.6510  -20.4794  -41.6048 C.3       9 UNK        -0.1800 
     29 N           0.1421  -19.8919  -43.4436 N.am      9 UNK        -0.5000 
     30 C          -0.8776  -19.9613  -44.3117 C.2       8 UNK         0.5000 
     31 O          -1.6003  -20.9483  -44.4473 O.2       8 UNK        -0.5000 
     32 CA         -1.0889  -18.7392  -45.2220 C.3       8 UNK         0.1400 
     33 CB         -1.7615  -17.5949  -44.4441 C.3       8 UNK        -0.1800 
     34 N           0.1609  -18.2696  -45.8227 N.am      8 UNK        -0.5000 
     35 C           0.9520  -19.0102  -46.6137 C.2       7 UNK         0.5000 
     36 O           0.6847  -20.1546  -46.9706 O.2       7 UNK        -0.5000 
     37 CA          2.3020  -18.4009  -47.0209 C.3       7 UNK         0.1400 
     38 CB          2.1512  -17.5090  -48.2605 C.3       7 UNK        -0.1800 
     39 N           2.9034  -17.6484  -45.9211 N.am      7 UNK        -0.5000 
     40 C           3.4089  -18.2151  -44.8153 C.2       6 UNK         0.5000 
     41 O           3.4701  -19.4321  -44.6379 O.2       6 UNK        -0.5000 
     42 CA          3.8808  -17.2588  -43.7041 C.3       6 UNK         0.1400 
     43 CB          5.3113  -16.7716  -43.9776 C.3       6 UNK        -0.1800 
     44 N           2.9938  -16.1039  -43.5514 N.am      6 UNK        -0.5000 
     45 C           1.7302  -16.1777  -43.1092 C.2       5 UNK         0.5000 
     46 O           1.2099  -17.2217  -42.7158 O.2       5 UNK        -0.5000 
     47 CA          0.8961  -14.8812  -43.1588 C.3       5 UNK         0.1400 
     48 CB          1.0213  -14.1075  -41.8386 C.3       5 UNK        -0.1800 
     49 N           1.2529  -13.9962  -44.2720 N.am      5 UNK        -0.5000 
     50 C           1.1521  -14.3097  -45.5697 C.2       4 UNK         0.5000 
     51 O           0.7269  -15.3947  -45.9694 O.2       4 UNK        -0.5000 
     52 CA          1.6380  -13.2422  -46.5712 C.3       4 UNK         0.1400 
     53 CB          1.7172  -13.7733  -48.0133 C.3       4 UNK        -0.1800 
     54 N           0.7981  -12.0474  -46.5625 N.am      4 UNK        -0.5000 
     55 C           0.8147  -11.0796  -45.6369 C.2       3 UNK         0.5000 
     56 O           1.5243  -11.1129  -44.6300 O.2       3 UNK        -0.5000 
     57 CA         -0.1082   -9.8737  -45.8776 C.3       3 UNK         0.1400 
     58 CB          0.5611   -8.8710  -46.8306 C.3       3 UNK        -0.1800 
     59 N          -1.3899  -10.2888  -46.4474 N.am      3 UNK        -0.5000 
     60 C          -2.5303  -10.4050  -45.7540 C.2       2 UNK         0.5000 
     61 O          -2.6355  -10.1272  -44.5585 O.2       2 UNK        -0.5000 
     62 CA         -3.7724  -10.9135  -46.5162 C.3       2 UNK         0.1400 
     63 CB         -4.6199   -9.7304  -47.0085 C.3       2 UNK        -0.1800 
     64 N          -3.4606  -11.7788  -47.6559 N.am      2 UNK        -0.5000 
     65 C          -2.8849  -12.9863  -47.5633 C.2       1 UNK         0.5000 
     66 O          -2.5650  -13.5037  -46.4928 O.2       1 UNK        -0.5000 
     67 C          -1.9270  -24.1817  -46.2895 C.2       11 UNK         0.5000 
     68 O          -2.4105  -25.2401  -46.6870 O.2       11 UNK        -0.5000 
     69 N          -2.0927  -23.7195  -45.0415 N.am      12 UNK        -0.5000 
     70 CA         -2.8217  -24.4273  -43.9871 C.3       12 UNK         0.1400 
     71 CB         -2.9304  -23.5375  -42.7402 C.3       12 UNK        -0.1800 
     72 C          -2.1916  -25.7898  -43.6430 C.2       12 UNK         0.5000 
     73 O          -2.9158  -26.7799  -43.5345 O.2       12 UNK        -0.5000 
     74 N          -0.8545  -25.8336  -43.5460 N.am      13 UNK        -0.5000 
     75 CA         -0.0734  -27.0596  -43.3538 C.3       13 UNK         0.1400 
     76 CB          1.3933  -26.6934  -43.0819 C.3       13 UNK        -0.1800 
     77 C          -0.1830  -28.0452  -44.5365 C.2       13 UNK         0.5000 
     78 O          -0.1466  -29.2571  -44.3224 O.2       13 UNK        -0.5000 
     79 N          -0.3581  -27.5117  -45.7527 N.am      14 UNK        -0.5000 
     80 CA         -0.6062  -28.2596  -46.9877 C.3       14 UNK         0.1400 
     81 CB         -0.1171  -27.4205  -48.1807 C.3       14 UNK        -0.1800 
     82 C          -2.0822  -28.6823  -47.1726 C.2       14 UNK         0.5000 
     83 O          -2.4045  -29.2731  -48.2040 O.2       14 UNK        -0.5000 
     84 N          -2.9443  -28.3865  -46.1871 N.am      15 UNK        -0.5000 
     85 CA         -4.3820  -28.6756  -46.1341 C.3       15 UNK         0.1400 
     86 CB         -4.6618  -30.1918  -46.2173 C.3       15 UNK        -0.1800 
     87 C          -5.2198  -27.8380  -47.1247 C.2       15 UNK         0.5000 
     88 O          -6.2531  -28.3085  -47.6048 O.2       15 UNK        -0.5000 
     89 N          -4.7790  -26.5933  -47.3551 N.am      16 UNK        -0.5000 
     90 CA         -5.3888  -25.5268  -48.1537 C.3       16 UNK         0.1400 
     91 CB         -6.8218  -25.2148  -47.6727 C.3       16 UNK        -0.1800 
     92 C          -5.3285  -25.7517  -49.6773 C.2       16 UNK         0.5000 
     93 O          -5.0632  -26.8546  -50.1600 O.2       16 UNK        -0.5000 
     94 N          -5.5797  -24.6603  -50.4034 N.am      17 UNK        -0.5000 
     95 CA         -5.6044  -24.5200  -51.8545 C.3       17 UNK         0.1400 
     96 CB         -4.1816  -24.6489  -52.4394 C.3       17 UNK        -0.1800 
     97 C          -6.2245  -23.1434  -52.1589 C.2       17 UNK         0.5000 
     98 O          -6.6608  -22.4518  -51.2321 O.2       17 UNK        -0.5000 
     99 N          -6.2464  -22.7516  -53.4389 N.am      18 UNK        -0.5000 
    100 CA        -6.6560  -21.4169  -53.8792 C.3       18 UNK         0.1400 
    101 CB        -6.7804  -21.4026  -55.4110 C.3       18 UNK        -0.1800 
    102 C         -5.6578  -20.3463  -53.3953 C.2       18 UNK         0.5000 
    103 O         -4.4655  -20.4507  -53.6911 O.2       18 UNK        -0.5000 
    104 N         -6.1595  -19.3579  -52.6470 N.am      19 UNK        -0.5000 
    105 CA        -5.3754  -18.2515  -52.1024 C.3       19 UNK         0.1400 
    106 CB        -6.1725  -17.5906  -50.9691 C.3       19 UNK        -0.1800 
    107 C         -5.0133  -17.2183  -53.1822 C.2       19 UNK         0.5000 
    108 O         -5.8262  -16.9463  -54.0695 O.2       19 UNK        -0.5000 
    109 N         -3.8165  -16.6394  -53.0593 N.am      20 UNK        -0.5000 
    110 CA        -3.2386  -15.6277  -53.9382 C.3       20 UNK         0.1400 
    111 CB        -2.9029  -16.2452  -55.3144 C.3       20 UNK        -0.1800 
    112 C         -1.9816  -15.0681  -53.2495 C.2       20 UNK         0.5000 
    113 O         -1.7004  -15.4241  -52.1035 O.2       20 UNK        -0.5000 
    114 N         -1.2197  -14.2256  -53.9591 N.am      21 UNK        -0.5000 
    115 CA         0.1463  -13.8583  -53.5679 C.3       21 UNK         0.1400 
    116 CB         0.5996  -12.6416  -54.3889 C.3       21 UNK        -0.1800 
    117 C          1.1338  -15.0331  -53.7413 C.2       21 UNK         0.5000 
    118 O          2.1209  -15.1114  -53.0103 O.2       21 UNK        -0.5000 
    119 N          0.8269  -15.9257  -54.6947 N.am      22 UNK        -0.5000 
    120 CA         1.5222  -17.1917  -54.9899 C.3       22 UNK         0.1400 
    121 C          2.9564  -17.0354  -55.5843 C.2       22 UNK         0.5000 
    122 N          3.3489  -15.8632  -56.0679 N.am      22 UNK        -0.7600 
    123 O          3.7183  -17.9971  -55.6420 O.2       22 UNK        -0.5000 
    124 C124        1.4736  -18.2099  -53.8148 C.3       23 UNK        -0.0398 
    125 S125       -0.2158  -18.5280  -53.1856 S.3       23 UNK        -0.2404 
    126 C126        0.0598  -18.2590  -51.4058 C.3       23 UNK        -0.0205 
    127 H127        0.0414  -11.1811  -51.5640 H         1 UNK         0.0600 
    128 H128       -1.2664  -10.0672  -51.1553 H         1 UNK         0.0600 
    129 H129       -1.6066  -11.5196  -52.1027 H         1 UNK         0.0600 
    130 H130       -2.6875  -12.9906  -50.8620 H         1 UNK         0.3000 
    131 H131       -1.6909  -14.3340  -48.7000 H         1 UNK         0.0600 
    132 H132       -4.5446  -14.0712  -49.7418 H         1 UNK         0.0800 
    133 H133       -3.3801  -15.2805  -50.1816 H         1 UNK         0.0800 
    134 H134       -3.2998  -17.3773  -46.7519 H         1 UNK         0.0800 
    135 H135       -2.1615  -16.2123  -47.3698 H         1 UNK         0.0800 
    136 H136       -1.0182  -16.6395  -49.5034 H         1 UNK         0.1150 
    137 H137       -1.5635  -20.4699  -51.3538 H         1 UNK         0.1150 
    138 H138       -4.1448  -19.2395  -48.1612 H         1 UNK         0.1150 
    139 H139       -4.5586  -21.3145  -49.2033 H         1 UNK         0.0800 
    140 H140       -4.0637  -21.4437  -50.8719 H         1 UNK         0.0800 
    141 H141       -2.5181  -21.7339  -47.2347 H         1 UNK         0.0800 
    142 H142       -1.1143  -21.4227  -48.2165 H         1 UNK         0.0800 
    143 H143       -0.6839  -24.0416  -48.0158 H         1 UNK         0.0600 
    144 H144        0.3058  -21.8925  -46.4761 H         1 UNK         0.3000 
    145 H145        2.7935  -23.8103  -44.7237 H         1 UNK         0.0600 
    146 H146        4.1946  -22.0320  -45.7462 H         1 UNK         0.0600 
    147 H147        3.7427  -23.2336  -46.9468 H         1 UNK         0.0600 
    148 H148        2.9277  -21.6761  -46.9179 H         1 UNK         0.0600 
    149 H149        2.1453  -21.0460  -44.6015 H         1 UNK         0.3000 
    150 H150       -0.2996  -21.2868  -41.9740 H         1 UNK         0.0600 
    151 H151        1.9674  -21.2701  -40.9235 H         1 UNK         0.0600 
    152 H152        1.2838  -19.6525  -40.9966 H         1 UNK         0.0600 
    153 H153        2.5354  -20.1320  -42.1396 H         1 UNK         0.0600 
    154 H154        0.6570  -19.0198  -43.3674 H         1 UNK         0.3000 
    155 H155       -1.7457  -19.0417  -46.0393 H         1 UNK         0.0600 
    156 H156       -1.2588  -17.3899  -43.5001 H         1 UNK         0.0600 
    157 H157       -2.7951  -17.8486  -44.2067 H         1 UNK         0.0600 
    158 H158       -1.7732  -16.6665  -45.0145 H         1 UNK         0.0600 
    159 H159        0.4333  -17.3100  -45.6333 H         1 UNK         0.3000 
    160 H160        2.9788  -19.2182  -47.2786 H         1 UNK         0.0600 
    161 H161        3.0862  -17.0069  -48.5085 H         1 UNK         0.0600 
    162 H162        1.3790  -16.7518  -48.1280 H         1 UNK         0.0600 
    163 H163        1.8680  -18.1089  -49.1238 H         1 UNK         0.0600 
    164 H164        2.8274  -16.6433  -45.9648 H         1 UNK         0.3000 
    165 H165        3.8826  -17.8151  -42.7642 H         1 UNK         0.0600 
    166 H166        5.6795  -16.1518  -43.1599 H         1 UNK         0.0600 
    167 H167        5.9967  -17.6142  -44.0795 H         1 UNK         0.0600 
    168 H168        5.3711  -16.1867  -44.8963 H         1 UNK         0.0600 
    169 H169        3.3506  -15.2065  -43.8443 H         1 UNK         0.3000 
    170 H170       -0.1492  -15.1677  -43.2885 H         1 UNK         0.0600 
    171 H171        0.7370  -14.7325  -40.9909 H         1 UNK         0.0600 
    172 H172        2.0428  -13.7654  -41.6678 H         1 UNK         0.0600 
    173 H173        0.3690  -13.2340  -41.8307 H         1 UNK         0.0600 
    174 H174        1.5609  -13.0580  -44.0384 H         1 UNK         0.3000 
    175 H175        2.6486  -12.9540  -46.2743 H         1 UNK         0.0600 
    176 H176        0.7518  -14.1381  -48.3657 H         1 UNK         0.0600 
    177 H177        2.0501  -12.9969  -48.7024 H         1 UNK         0.0600 
    178 H178        2.4314  -14.5928  -48.0858 H         1 UNK         0.0600 
    179 H179        0.1994  -11.9273  -47.3758 H         1 UNK         0.3000 
    180 H180       -0.2597   -9.3737  -44.9187 H         1 UNK         0.0600 
    181 H181        0.7423   -9.3065  -47.8143 H         1 UNK         0.0600 
    182 H182        1.5219   -8.5382  -46.4359 H         1 UNK         0.0600 
    183 H183       -0.0590   -7.9849  -46.9667 H         1 UNK         0.0600 
    184 H184       -1.3744  -10.5876  -47.4162 H         1 UNK         0.3000 
    185 H185       -4.3725  -11.4934  -45.8117 H         1 UNK         0.0600 
    186 H186       -4.0801   -9.1251  -47.7378 H         1 UNK         0.0600 
    187 H187       -5.5448  -10.0728  -47.4730 H         1 UNK         0.0600 
    188 H188       -4.8969   -9.0767  -46.1803 H         1 UNK         0.0600 
    189 H189       -3.6727  -11.4159  -48.5737 H         1 UNK         0.3000 
    190 H190       -1.7020  -22.8134  -44.7950 H         1 UNK         0.3000 
    191 H191       -3.8321  -24.6154  -44.3563 H         1 UNK         0.0600 
    192 H192       -1.9502  -23.2880  -42.3344 H         1 UNK         0.0600 
    193 H193       -3.4949  -24.0372  -41.9521 H         1 UNK         0.0600 
    194 H194       -3.4448  -22.6036  -42.9671 H         1 UNK         0.0600 
    195 H195       -0.3315  -24.9647  -43.6059 H         1 UNK         0.3000 
    196 H196       -0.4649  -27.5657  -42.4690 H         1 UNK         0.0600 
    197 H197        1.9910  -27.5864  -42.8958 H         1 UNK         0.0600 
    198 H198        1.4833  -26.0524  -42.2046 H         1 UNK         0.0600 
    199 H199        1.8412  -26.1686  -43.9257 H         1 UNK         0.0600 
    200 H200       -0.3251  -26.5028  -45.8428 H         1 UNK         0.3000 
    201 H201       -0.0142  -29.1766  -46.9619 H         1 UNK         0.0600 
    202 H202        0.9275  -27.1330  -48.0599 H         1 UNK         0.0600 
    203 H203       -0.7032  -26.5098  -48.3004 H         1 UNK         0.0600 
    204 H204       -0.1920  -27.9813  -49.1130 H         1 UNK         0.0600 
    205 H205       -2.5862  -27.8732  -45.3907 H         1 UNK         0.3000 
    206 H206       -4.7018  -28.3513  -45.1429 H         1 UNK         0.0600 
    207 H207       -4.0527  -30.7457  -45.5030 H         1 UNK         0.0600 
    208 H208       -5.7057  -30.4078  -45.9873 H         1 UNK         0.0600 
    209 H209       -4.4611  -30.5899  -47.2121 H         1 UNK         0.0600 
    210 H210       -3.8770  -26.3342  -46.9609 H         1 UNK         0.3000 
    211 H211       -4.7806  -24.6440  -47.9508 H         1 UNK         0.0600 
    212 H212       -7.5189  -26.0152  -47.9215 H         1 UNK         0.0600 
    213 H213       -7.2021  -24.3025  -48.1333 H         1 UNK         0.0600 
    214 H214       -6.8520  -25.0655  -46.5933 H         1 UNK         0.0600 
    215 H215       -5.8420  -23.7999  -49.9361 H         1 UNK         0.3000 
    216 H216       -6.2517  -25.2924  -52.2736 H         1 UNK         0.0600 
    217 H217       -4.1981  -24.6277  -53.5292 H         1 UNK         0.0600 
    218 H218       -3.7093  -25.5874  -52.1505 H         1 UNK         0.0600 
    219 H219       -3.5359  -23.8359  -52.1066 H         1 UNK         0.0600 
    220 H220       -5.8479  -23.3534  -54.1443 H         1 UNK         0.3000 
    221 H221       -7.6412  -21.2054  -53.4578 H         1 UNK         0.0600 
    222 H222       -5.8317  -21.6376  -55.8953 H         1 UNK         0.0600 
    223 H223       -7.5212  -22.1251  -55.7540 H         1 UNK         0.0600 
    224 H224       -7.0953  -20.4204  -55.7660 H         1 UNK         0.0600 
    225 H225       -7.1517  -19.3346  -52.4640 H         1 UNK         0.3000 
    226 H226       -4.4505  -18.6528  -51.6859 H         1 UNK         0.0600 
    227 H227       -7.1498  -17.2465  -51.3092 H         1 UNK         0.0600 
    228 H228       -6.3250  -18.2812  -50.1394 H         1 UNK         0.0600 
    229 H229       -5.6419  -16.7240  -50.5771 H         1 UNK         0.0600 
    230 H230       -3.2096  -16.8792  -52.2827 H         1 UNK         0.3000 
    231 H231       -3.9530  -14.8116  -54.0601 H         1 UNK         0.0600 
    232 H232       -3.7878  -16.6605  -55.7960 H         1 UNK         0.0600 
    233 H233       -2.1708  -17.0485  -55.2228 H         1 UNK         0.0600 
    234 H234       -2.4970  -15.5024  -56.0012 H         1 UNK         0.0600 
    235 H235       -1.5244  -13.9320  -54.8759 H         1 UNK         0.3000 
    236 H236        0.1472  -13.5807  -52.5119 H         1 UNK         0.0600 
    237 H237        1.6017  -12.3260  -54.0958 H         1 UNK         0.0600 
    238 H238        0.6228  -12.8607  -55.4570 H         1 UNK         0.0600 
    239 H239       -0.0653  -11.7916  -54.2356 H         1 UNK         0.0600 
    240 H240        0.0009  -15.7544  -55.2465 H         1 UNK         0.3000 
    241 H241        0.9494  -17.6359  -55.8045 H         1 UNK         0.0600 
    242 H242        2.7355  -15.0650  -56.0367 H         1 UNK         0.3800 
    243 H243        4.2727  -15.7720  -56.4610 H         1 UNK         0.3800 
    244 H244        1.8820  -19.1712  -54.1304 H         1 UNK         0.0800 
    245 H245        2.1150  -17.8673  -53.0016 H         1 UNK         0.0800 
    246 H246        0.4206  -17.2388  -51.2621 H         1 UNK         0.0800 
    247 H247        0.8549  -18.9265  -51.0728 H         1 UNK         0.0800 
@<TRIPOS>BOND
     1    1    2 1    
     2    1  127 1    
     3    1  128 1    
     4    1  129 1    
     5    2    3 2    
     6    2    4 am   BACKBONE|DICT|INTERRES
     7    4    5 1    
     8    4  130 1    
     9    5    6 1    
    10    5   65 1    
    11    5  131 1    
    12    6    7 1    
    13    6  132 1    
    14    6  133 1    
    15    7    8 1    
    16    8    9 1    
    17    8  134 1    
    18    8  135 1    
    19    9   10 ar   
    20    9   14 ar   
    21   10   11 ar   
    22   10  136 1    
    23   11   12 ar   
    24   11  126 1    
    25   12   13 ar   
    26   12  137 1    
    27   13   14 ar   
    28   13   15 1    
    29   14  138 1    
    30   15   16 1    
    31   15  139 1    
    32   15  140 1    
    33   16   17 1    
    34   17   18 1    
    35   17  141 1    
    36   17  142 1    
    37   18   19 1    
    38   18   67 1    
    39   18  143 1    
    40   19   20 am   BACKBONE|DICT|INTERRES
    41   19  144 1    
    42   20   21 2    
    43   20   22 1    
    44   22   23 1    
    45   22   24 1    
    46   22  145 1    
    47   23  146 1    
    48   23  147 1    
    49   23  148 1    
    50   24   25 am   BACKBONE|DICT|INTERRES
    51   24  149 1    
    52   25   26 2    
    53   25   27 1    
    54   27   28 1    
    55   27   29 1    
    56   27  150 1    
    57   28  151 1    
    58   28  152 1    
    59   28  153 1    
    60   29   30 am   BACKBONE|DICT|INTERRES
    61   29  154 1    
    62   30   31 2    
    63   30   32 1    
    64   32   33 1    
    65   32   34 1    
    66   32  155 1    
    67   33  156 1    
    68   33  157 1    
    69   33  158 1    
    70   34   35 am   BACKBONE|DICT|INTERRES
    71   34  159 1    
    72   35   36 2    
    73   35   37 1    
    74   37   38 1    
    75   37   39 1    
    76   37  160 1    
    77   38  161 1    
    78   38  162 1    
    79   38  163 1    
    80   39   40 am   BACKBONE|DICT|INTERRES
    81   39  164 1    
    82   40   41 2    
    83   40   42 1    
    84   42   43 1    
    85   42   44 1    
    86   42  165 1    
    87   43  166 1    
    88   43  167 1    
    89   43  168 1    
    90   44   45 am   BACKBONE|DICT|INTERRES
    91   44  169 1    
    92   45   46 2    
    93   45   47 1    
    94   47   48 1    
    95   47   49 1    
    96   47  170 1    
    97   48  171 1    
    98   48  172 1    
    99   48  173 1    
   100   49   50 am   BACKBONE|DICT|INTERRES
   101   49  174 1    
   102   50   51 2    
   103   50   52 1    
   104   52   53 1    
   105   52   54 1    
   106   52  175 1    
   107   53  176 1    
   108   53  177 1    
   109   53  178 1    
   110   54   55 am   BACKBONE|DICT|INTERRES
   111   54  179 1    
   112   55   56 2    
   113   55   57 1    
   114   57   58 1    
   115   57   59 1    
   116   57  180 1    
   117   58  181 1    
   118   58  182 1    
   119   58  183 1    
   120   59   60 am   BACKBONE|DICT|INTERRES
   121   59  184 1    
   122   60   61 2    
   123   60   62 1    
   124   62   63 1    
   125   62   64 1    
   126   62  185 1    
   127   63  186 1    
   128   63  187 1    
   129   63  188 1    
   130   64   65 am   BACKBONE|DICT|INTERRES
   131   64  189 1    
   132   65   66 2    
   133   67   68 2    
   134   67   69 am   BACKBONE|DICT|INTERRES
   135   69   70 1    
   136   69  190 1    
   137   70   71 1    
   138   70   72 1    
   139   70  191 1    
   140   71  192 1    
   141   71  193 1    
   142   71  194 1    
   143   72   73 2    
   144   72   74 am   BACKBONE|DICT|INTERRES
   145   74   75 1    
   146   74  195 1    
   147   75   76 1    
   148   75   77 1    
   149   75  196 1    
   150   76  197 1    
   151   76  198 1    
   152   76  199 1    
   153   77   78 2    
   154   77   79 am   BACKBONE|DICT|INTERRES
   155   79   80 1    
   156   79  200 1    
   157   80   81 1    
   158   80   82 1    
   159   80  201 1    
   160   81  202 1    
   161   81  203 1    
   162   81  204 1    
   163   82   83 2    
   164   82   84 am   BACKBONE|DICT|INTERRES
   165   84   85 1    
   166   84  205 1    
   167   85   86 1    
   168   85   87 1    
   169   85  206 1    
   170   86  207 1    
   171   86  208 1    
   172   86  209 1    
   173   87   88 2    
   174   87   89 am   BACKBONE|DICT|INTERRES
   175   89   90 1    
   176   89  210 1    
   177   90   91 1    
   178   90   92 1    
   179   90  211 1    
   180   91  212 1    
   181   91  213 1    
   182   91  214 1    
   183   92   93 2    
   184   92   94 am   BACKBONE|DICT|INTERRES
   185   94   95 1    
   186   94  215 1    
   187   95   96 1    
   188   95   97 1    
   189   95  216 1    
   190   96  217 1    
   191   96  218 1    
   192   96  219 1    
   193   97   98 2    
   194   97   99 am   BACKBONE|DICT|INTERRES
   195   99  100 1    
   196   99  220 1    
   197  100  101 1    
   198  100  102 1    
   199  100  221 1    
   200  101  222 1    
   201  101  223 1    
   202  101  224 1    
   203  102  103 2    
   204  102  104 am   BACKBONE|DICT|INTERRES
   205  104  105 1    
   206  104  225 1    
   207  105  106 1    
   208  105  107 1    
   209  105  226 1    
   210  106  227 1    
   211  106  228 1    
   212  106  229 1    
   213  107  108 2    
   214  107  109 am   BACKBONE|DICT|INTERRES
   215  109  110 1    
   216  109  230 1    
   217  110  111 1    
   218  110  112 1    
   219  110  231 1    
   220  111  232 1    
   221  111  233 1    
   222  111  234 1    
   223  112  113 2    
   224  112  114 am   BACKBONE|DICT|INTERRES
   225  114  115 1    
   226  114  235 1    
   227  115  116 1    
   228  115  117 1    
   229  115  236 1    
   230  116  237 1    
   231  116  238 1    
   232  116  239 1    
   233  117  118 2    
   234  117  119 am   BACKBONE|DICT|INTERRES
   235  119  120 1    
   236  119  240 1    
   237  120  121 1    
   238  120  124 1    
   239  120  241 1    
   240  121  122 am   BACKBONE|DICT|INTERRES
   241  121  123 2    
   242  122  242 1    
   243  122  243 1    
   244  124  125 1    
   245  124  244 1    
   246  124  245 1    
   247  125  126 1    
   248  126  246 1    
   249  126  247 1    
@<TRIPOS>SUBSTRUCTURE
     1 UNK         1 GROUP             0       ****    0 ROOT    
