@<TRIPOS>MOLECULE
3R540
247   249    1
SMALL
USER_CHARGES


@<TRIPOS>ATOM
      1 CA         -3.0739  -10.2919  -41.7150 C.3       0 UNK        -0.1800 
      2 C          -3.4011  -10.3874  -43.1988 C.2       0 UNK         0.5000 
      3 O          -3.4963   -9.3608  -43.8725 O.2       0 UNK        -0.5000 
      4 N          -3.5814  -11.6129  -43.7061 N.am      1 UNK        -0.5000 
      5 CA         -3.8221  -11.9060  -45.1220 C.3       1 UNK         0.1400 
      6 C6         -4.3934  -13.3330  -45.2999 C.3       23 UNK        -0.0398 
      7 S7         -5.2658  -13.5492  -46.8893 S.3       23 UNK        -0.2404 
      8 C8         -5.5485  -15.3485  -46.9108 C.3       23 UNK        -0.0205 
      9 C9         -4.2460  -16.1340  -46.9025 C.ar      23 UNK        -0.0193 
     10 C10        -3.4256  -16.1472  -48.0312 C.ar      23 UNK        -0.1150 
     11 C11        -2.2200  -16.8514  -48.0234 C.ar      23 UNK        -0.0193 
     12 C12        -1.8458  -17.5641  -46.8798 C.ar      23 UNK        -0.1150 
     13 C13        -2.6502  -17.5459  -45.7298 C.ar      23 UNK        -0.0193 
     14 C14        -3.8516  -16.8326  -45.7591 C.ar      23 UNK        -0.1150 
     15 C15        -2.2845  -18.2665  -44.4308 C.3       23 UNK        -0.0205 
     16 S16        -0.5901  -18.9439  -44.3529 S.3       23 UNK        -0.2404 
     17 C17        -0.8729  -20.5356  -43.5109 C.3       23 UNK        -0.0398 
     18 CA         -1.5436  -21.5835  -44.4299 C.3       11 UNK         0.1400 
     19 N          -0.8286  -21.8011  -45.6906 N.am      11 UNK        -0.5000 
     20 C          -1.3268  -22.4628  -46.7441 C.2       10 UNK         0.5000 
     21 O          -2.4704  -22.9141  -46.7877 O.2       10 UNK        -0.5000 
     22 CA         -0.3828  -22.6942  -47.9318 C.3       10 UNK         0.1400 
     23 CB         -0.4223  -21.4935  -48.8863 C.3       10 UNK        -0.1800 
     24 N           0.9855  -22.9359  -47.4751 N.am      10 UNK        -0.5000 
     25 C           1.4038  -24.0950  -46.9456 C.2       9 UNK         0.5000 
     26 O           0.6958  -25.0984  -46.8649 O.2       9 UNK        -0.5000 
     27 CA          2.8394  -24.1386  -46.3844 C.3       9 UNK         0.1400 
     28 CB          3.8298  -24.5663  -47.4775 C.3       9 UNK        -0.1800 
     29 N           3.2772  -22.8640  -45.8122 N.am      9 UNK        -0.5000 
     30 C           2.7636  -22.3060  -44.7067 C.2       8 UNK         0.5000 
     31 O           1.8935  -22.8369  -44.0174 O.2       8 UNK        -0.5000 
     32 CA          3.2588  -20.8895  -44.3461 C.3       8 UNK         0.1400 
     33 CB          4.4811  -20.9636  -43.4200 C.3       8 UNK        -0.1800 
     34 N           3.5810  -20.0517  -45.5071 N.am      8 UNK        -0.5000 
     35 C           2.7328  -19.7672  -46.5052 C.2       7 UNK         0.5000 
     36 O           1.5953  -20.2317  -46.5734 O.2       7 UNK        -0.5000 
     37 CA          3.2505  -18.8477  -47.6204 C.3       7 UNK         0.1400 
     38 CB          2.1067  -18.2102  -48.4252 C.3       7 UNK        -0.1800 
     39 N           4.0939  -17.7871  -47.0757 N.am      7 UNK        -0.5000 
     40 C           5.2853  -17.4192  -47.5645 C.2       6 UNK         0.5000 
     41 O           5.8723  -18.0387  -48.4529 O.2       6 UNK        -0.5000 
     42 CA          5.9306  -16.1416  -46.9900 C.3       6 UNK         0.1400 
     43 CB          6.2801  -15.1525  -48.1155 C.3       6 UNK        -0.1800 
     44 N           5.0452  -15.4598  -46.0460 N.am      6 UNK        -0.5000 
     45 C           5.2373  -15.3701  -44.7238 C.2       5 UNK         0.5000 
     46 O           6.2147  -15.8419  -44.1419 O.2       5 UNK        -0.5000 
     47 CA          4.1579  -14.6326  -43.9024 C.3       5 UNK         0.1400 
     48 CB          4.6222  -13.2070  -43.5669 C.3       5 UNK        -0.1800 
     49 N           2.8493  -14.5586  -44.5578 N.am      5 UNK        -0.5000 
     50 C           2.0703  -15.6115  -44.8403 C.2       4 UNK         0.5000 
     51 O           2.3785  -16.7747  -44.5829 O.2       4 UNK        -0.5000 
     52 CA          0.7628  -15.3167  -45.5985 C.3       4 UNK         0.1400 
     53 CB         -0.3685  -14.9837  -44.6159 C.3       4 UNK        -0.1800 
     54 N           0.8649  -14.2457  -46.5975 N.am      4 UNK        -0.5000 
     55 C           1.7268  -14.2160  -47.6257 C.2       3 UNK         0.5000 
     56 O           2.6310  -15.0382  -47.7673 O.2       3 UNK        -0.5000 
     57 CA          1.6119  -13.0726  -48.6559 C.3       3 UNK         0.1400 
     58 CB          1.5223  -13.6243  -50.0946 C.3       3 UNK        -0.1800 
     59 N           0.5508  -12.0888  -48.3983 N.am      3 UNK        -0.5000 
     60 C          -0.7762  -12.2651  -48.4593 C.2       2 UNK         0.5000 
     61 O          -1.3268  -13.3331  -48.7284 O.2       2 UNK        -0.5000 
     62 CA         -1.6311  -11.0170  -48.1704 C.3       2 UNK         0.1400 
     63 CB         -2.2355  -10.4638  -49.4700 C.3       2 UNK        -0.1800 
     64 N          -2.7082  -11.2846  -47.2185 N.am      2 UNK        -0.5000 
     65 C          -2.5364  -11.6889  -45.9536 C.2       1 UNK         0.5000 
     66 O          -1.4291  -11.8872  -45.4444 O.2       1 UNK        -0.5000 
     67 C          -1.7957  -22.9071  -43.6838 C.2       11 UNK         0.5000 
     68 O          -2.9093  -23.1266  -43.2068 O.2       11 UNK        -0.5000 
     69 N          -0.7926  -23.7973  -43.6702 N.am      12 UNK        -0.5000 
     70 CA         -0.8861  -25.1678  -43.1565 C.3       12 UNK         0.1400 
     71 CB          0.5105  -25.8067  -43.1684 C.3       12 UNK        -0.1800 
     72 C          -1.8900  -26.0473  -43.9315 C.2       12 UNK         0.5000 
     73 O          -2.4578  -26.9735  -43.3529 O.2       12 UNK        -0.5000 
     74 N          -2.1266  -25.7116  -45.2064 N.am      13 UNK        -0.5000 
     75 CA         -3.1394  -26.3055  -46.0799 C.3       13 UNK         0.1400 
     76 CB         -2.5913  -26.3363  -47.5171 C.3       13 UNK        -0.1800 
     77 C          -4.5051  -25.5836  -45.9856 C.2       13 UNK         0.5000 
     78 O          -5.3230  -25.7171  -46.8964 O.2       13 UNK        -0.5000 
     79 N          -4.7351  -24.8507  -44.8846 N.am      14 UNK        -0.5000 
     80 CA         -5.9505  -24.1127  -44.5272 C.3       14 UNK         0.1400 
     81 CB         -7.1675  -25.0548  -44.4045 C.3       14 UNK        -0.1800 
     82 C          -6.2016  -22.8930  -45.4356 C.2       14 UNK         0.5000 
     83 O          -7.3292  -22.6746  -45.8819 O.2       14 UNK        -0.5000 
     84 N          -5.1343  -22.1134  -45.6644 N.am      15 UNK        -0.5000 
     85 CA         -5.0768  -20.8873  -46.4694 C.3       15 UNK         0.1400 
     86 CB         -5.9403  -19.7694  -45.8489 C.3       15 UNK        -0.1800 
     87 C          -5.4048  -21.1637  -47.9473 C.2       15 UNK         0.5000 
     88 O          -6.3351  -20.5812  -48.5083 O.2       15 UNK        -0.5000 
     89 N          -4.6221  -22.0670  -48.5497 N.am      16 UNK        -0.5000 
     90 CA         -4.7487  -22.5785  -49.9185 C.3       16 UNK         0.1400 
     91 CB         -3.9355  -23.8796  -50.0188 C.3       16 UNK        -0.1800 
     92 C          -4.4065  -21.5622  -51.0377 C.2       16 UNK         0.5000 
     93 O          -3.8263  -21.9309  -52.0620 O.2       16 UNK        -0.5000 
     94 N          -4.8096  -20.3000  -50.8541 N.am      17 UNK        -0.5000 
     95 CA         -4.6838  -19.2141  -51.8258 C.3       17 UNK         0.1400 
     96 CB         -5.0449  -17.8853  -51.1459 C.3       17 UNK        -0.1800 
     97 C          -5.5596  -19.4431  -53.0698 C.2       17 UNK         0.5000 
     98 O          -5.1331  -19.1280  -54.1799 O.2       17 UNK        -0.5000 
     99 N          -6.7418  -20.0447  -52.8698 N.am      18 UNK        -0.5000 
    100 CA        -7.6789  -20.4338  -53.9281 C.3       18 UNK         0.1400 
    101 CB        -9.0119  -20.8478  -53.2867 C.3       18 UNK        -0.1800 
    102 C         -7.1427  -21.5612  -54.8337 C.2       18 UNK         0.5000 
    103 O         -7.5292  -21.6386  -56.0000 O.2       18 UNK        -0.5000 
    104 N         -6.2457  -22.3945  -54.2889 N.am      19 UNK        -0.5000 
    105 CA        -5.5226  -23.4431  -55.0109 C.3       19 UNK         0.1400 
    106 CB        -5.2442  -24.6020  -54.0404 C.3       19 UNK        -0.1800 
    107 C         -4.2068  -22.9290  -55.6325 C.2       19 UNK         0.5000 
    108 O         -3.5176  -23.7038  -56.2968 O.2       19 UNK        -0.5000 
    109 N         -3.8756  -21.6493  -55.3965 N.am      20 UNK        -0.5000 
    110 CA        -2.6607  -20.9456  -55.8134 C.3       20 UNK         0.1400 
    111 CB        -2.5929  -20.8205  -57.3502 C.3       20 UNK        -0.1800 
    112 C         -1.3756  -21.5306  -55.1908 C.2       20 UNK         0.5000 
    113 O         -0.3227  -21.5175  -55.8313 O.2       20 UNK        -0.5000 
    114 N         -1.4736  -22.0239  -53.9462 N.am      21 UNK        -0.5000 
    115 CA        -0.3308  -22.5300  -53.1811 C.3       21 UNK         0.1400 
    116 CB        -0.8391  -23.4087  -52.0299 C.3       21 UNK        -0.1800 
    117 C          0.5644  -21.3971  -52.6417 C.2       21 UNK         0.5000 
    118 O          1.7570  -21.6176  -52.4284 O.2       21 UNK        -0.5000 
    119 N         -0.0268  -20.2141  -52.4286 N.am      22 UNK        -0.5000 
    120 CA         0.6582  -18.9802  -52.0217 C.3       22 UNK         0.1400 
    121 C          1.6368  -18.4649  -53.1134 C.2       22 UNK         0.5000 
    122 N          2.8485  -18.0748  -52.7416 N.am      22 UNK        -0.7600 
    123 O          1.2877  -18.3714  -54.2879 O.2       22 UNK        -0.5000 
    124 C124       -0.3544  -17.8679  -51.6500 C.3       23 UNK        -0.0398 
    125 S125       -1.4209  -18.3146  -50.2379 S.3       23 UNK        -0.2404 
    126 C126       -1.3059  -16.8014  -49.2370 C.3       23 UNK        -0.0205 
    127 H127       -3.0346  -11.2744  -41.2439 H         1 UNK         0.0600 
    128 H128       -3.8303   -9.6986  -41.2010 H         1 UNK         0.0600 
    129 H129       -2.1068   -9.8091  -41.5748 H         1 UNK         0.0600 
    130 H130       -3.4542  -12.4156  -43.1070 H         1 UNK         0.3000 
    131 H131       -4.5742  -11.1933  -45.4688 H         1 UNK         0.0600 
    132 H132       -3.6033  -14.0770  -45.1962 H         1 UNK         0.0800 
    133 H133       -5.1168  -13.5483  -44.5121 H         1 UNK         0.0800 
    134 H134       -6.1749  -15.6246  -46.0611 H         1 UNK         0.0800 
    135 H135       -6.1160  -15.6073  -47.8059 H         1 UNK         0.0800 
    136 H136       -3.7168  -15.5874  -48.9090 H         1 UNK         0.1150 
    137 H137       -0.9155  -18.1129  -46.8960 H         1 UNK         0.1150 
    138 H138       -4.4815  -16.8145  -44.8806 H         1 UNK         0.1150 
    139 H139       -3.0181  -19.0548  -44.2677 H         1 UNK         0.0800 
    140 H140       -2.3997  -17.5729  -43.5967 H         1 UNK         0.0800 
    141 H141       -1.4802  -20.3552  -42.6220 H         1 UNK         0.0800 
    142 H142        0.0903  -20.9014  -43.1529 H         1 UNK         0.0800 
    143 H143       -2.5276  -21.1992  -44.6960 H         1 UNK         0.0600 
    144 H144        0.0934  -21.3850  -45.7713 H         1 UNK         0.3000 
    145 H145       -0.7270  -23.5731  -48.4804 H         1 UNK         0.0600 
    146 H146       -1.4027  -21.4034  -49.3553 H         1 UNK         0.0600 
    147 H147        0.3160  -21.5925  -49.6809 H         1 UNK         0.0600 
    148 H148       -0.2331  -20.5540  -48.3683 H         1 UNK         0.0600 
    149 H149        1.5861  -22.1229  -47.4199 H         1 UNK         0.3000 
    150 H150        2.8612  -24.8893  -45.5916 H         1 UNK         0.0600 
    151 H151        3.8699  -23.8411  -48.2913 H         1 UNK         0.0600 
    152 H152        3.5445  -25.5273  -47.9079 H         1 UNK         0.0600 
    153 H153        4.8371  -24.6780  -47.0759 H         1 UNK         0.0600 
    154 H154        3.9863  -22.3557  -46.3195 H         1 UNK         0.3000 
    155 H155        2.4517  -20.3914  -43.8053 H         1 UNK         0.0600 
    156 H156        5.3384  -21.4160  -43.9201 H         1 UNK         0.0600 
    157 H157        4.2640  -21.5613  -42.5337 H         1 UNK         0.0600 
    158 H158        4.7762  -19.9717  -43.0768 H         1 UNK         0.0600 
    159 H159        4.4972  -19.6284  -45.5234 H         1 UNK         0.3000 
    160 H160        3.8243  -19.4863  -48.2944 H         1 UNK         0.0600 
    161 H161        1.4778  -17.5971  -47.7818 H         1 UNK         0.0600 
    162 H162        1.4697  -18.9691  -48.8767 H         1 UNK         0.0600 
    163 H163        2.4854  -17.5765  -49.2270 H         1 UNK         0.0600 
    164 H164        3.6891  -17.2539  -46.3152 H         1 UNK         0.3000 
    165 H165        6.8584  -16.4442  -46.5009 H         1 UNK         0.0600 
    166 H166        6.7499  -14.2531  -47.7171 H         1 UNK         0.0600 
    167 H167        6.9793  -15.5938  -48.8268 H         1 UNK         0.0600 
    168 H168        5.3920  -14.8486  -48.6715 H         1 UNK         0.0600 
    169 H169        4.1911  -15.0863  -46.4479 H         1 UNK         0.3000 
    170 H170        4.0316  -15.1812  -42.9667 H         1 UNK         0.0600 
    171 H171        3.9085  -12.7016  -42.9159 H         1 UNK         0.0600 
    172 H172        4.7449  -12.6024  -44.4664 H         1 UNK         0.0600 
    173 H173        5.5810  -13.2197  -43.0467 H         1 UNK         0.0600 
    174 H174        2.5265  -13.6407  -44.8271 H         1 UNK         0.3000 
    175 H175        0.4911  -16.2287  -46.1297 H         1 UNK         0.0600 
    176 H176       -0.4840  -15.7708  -43.8700 H         1 UNK         0.0600 
    177 H177       -0.1803  -14.0501  -44.0847 H         1 UNK         0.0600 
    178 H178       -1.3208  -14.8882  -45.1368 H         1 UNK         0.0600 
    179 H179        0.1590  -13.5235  -46.5496 H         1 UNK         0.3000 
    180 H180        2.5482  -12.5180  -48.5810 H         1 UNK         0.0600 
    181 H181        0.6474  -14.2598  -50.2338 H         1 UNK         0.0600 
    182 H182        2.3987  -14.2263  -50.3378 H         1 UNK         0.0600 
    183 H183        1.4722  -12.8173  -50.8254 H         1 UNK         0.0600 
    184 H184        0.8870  -11.1702  -48.1433 H         1 UNK         0.3000 
    185 H185       -0.9943  -10.2444  -47.7345 H         1 UNK         0.0600 
    186 H186       -1.4551  -10.2332  -50.1964 H         1 UNK         0.0600 
    187 H187       -2.9140  -11.1810  -49.9342 H         1 UNK         0.0600 
    188 H188       -2.7913   -9.5438  -49.2881 H         1 UNK         0.0600 
    189 H189       -3.6485  -11.2003  -47.5763 H         1 UNK         0.3000 
    190 H190        0.1165  -23.5115  -44.0256 H         1 UNK         0.3000 
    191 H191       -1.2288  -25.1123  -42.1214 H         1 UNK         0.0600 
    192 H192        1.2134  -25.2306  -42.5663 H         1 UNK         0.0600 
    193 H193        0.4826  -26.8169  -42.7582 H         1 UNK         0.0600 
    194 H194        0.9123  -25.8735  -44.1797 H         1 UNK         0.0600 
    195 H195       -1.6115  -24.9353  -45.5978 H         1 UNK         0.3000 
    196 H196       -3.3132  -27.3390  -45.7744 H         1 UNK         0.0600 
    197 H197       -3.2874  -26.8269  -48.1982 H         1 UNK         0.0600 
    198 H198       -1.6508  -26.8854  -47.5664 H         1 UNK         0.0600 
    199 H199       -2.4079  -25.3332  -47.8983 H         1 UNK         0.0600 
    200 H200       -3.9769  -24.7586  -44.2204 H         1 UNK         0.3000 
    201 H201       -5.7643  -23.7047  -43.5326 H         1 UNK         0.0600 
    202 H202       -8.0272  -24.5265  -43.9909 H         1 UNK         0.0600 
    203 H203       -6.9527  -25.8923  -43.7408 H         1 UNK         0.0600 
    204 H204       -7.4706  -25.4600  -45.3701 H         1 UNK         0.0600 
    205 H205       -4.2436  -22.4508  -45.3256 H         1 UNK         0.3000 
    206 H206       -4.0421  -20.5423  -46.4484 H         1 UNK         0.0600 
    207 H207       -5.6329  -19.5564  -44.8253 H         1 UNK         0.0600 
    208 H208       -5.8414  -18.8442  -46.4175 H         1 UNK         0.0600 
    209 H209       -6.9993  -20.0272  -45.8357 H         1 UNK         0.0600 
    210 H210       -3.8829  -22.4826  -47.9891 H         1 UNK         0.3000 
    211 H211       -5.7968  -22.8423  -50.0719 H         1 UNK         0.0600 
    212 H212       -2.8877  -23.7170  -49.7703 H         1 UNK         0.0600 
    213 H213       -3.9776  -24.3124  -51.0174 H         1 UNK         0.0600 
    214 H214       -4.3261  -24.6310  -49.3328 H         1 UNK         0.0600 
    215 H215       -5.3250  -20.0987  -50.0018 H         1 UNK         0.3000 
    216 H216       -3.6431  -19.1673  -52.1520 H         1 UNK         0.0600 
    217 H217       -6.0820  -17.8720  -50.8086 H         1 UNK         0.0600 
    218 H218       -4.9076  -17.0464  -51.8292 H         1 UNK         0.0600 
    219 H219       -4.4119  -17.7044  -50.2780 H         1 UNK         0.0600 
    220 H220       -7.0108  -20.2664  -51.9221 H         1 UNK         0.3000 
    221 H221       -7.8576  -19.5610  -54.5596 H         1 UNK         0.0600 
    222 H222       -8.8913  -21.7069  -52.6256 H         1 UNK         0.0600 
    223 H223       -9.4397  -20.0319  -52.7038 H         1 UNK         0.0600 
    224 H224       -9.7441  -21.1197  -54.0483 H         1 UNK         0.0600 
    225 H225       -5.9650  -22.2413  -53.3312 H         1 UNK         0.3000 
    226 H226       -6.1448  -23.8229  -55.8238 H         1 UNK         0.0600 
    227 H227       -6.1615  -24.9568  -53.5702 H         1 UNK         0.0600 
    228 H228       -4.7981  -25.4497  -54.5617 H         1 UNK         0.0600 
    229 H229       -4.5528  -24.3046  -53.2530 H         1 UNK         0.0600 
    230 H230       -4.5182  -21.0907  -54.8496 H         1 UNK         0.3000 
    231 H231       -2.7481  -19.9354  -55.4115 H         1 UNK         0.0600 
    232 H232       -2.4301  -21.7856  -57.8304 H         1 UNK         0.0600 
    233 H233       -1.7763  -20.1641  -57.6529 H         1 UNK         0.0600 
    234 H234       -3.5133  -20.3962  -57.7515 H         1 UNK         0.0600 
    235 H235       -2.3716  -22.0155  -53.4713 H         1 UNK         0.3000 
    236 H236        0.2792  -23.1543  -53.8374 H         1 UNK         0.0600 
    237 H237       -1.4202  -22.8246  -51.3192 H         1 UNK         0.0600 
    238 H238       -1.4699  -24.2191  -52.3956 H         1 UNK         0.0600 
    239 H239       -0.0092  -23.8580  -51.4831 H         1 UNK         0.0600 
    240 H240       -1.0113  -20.1314  -52.6275 H         1 UNK         0.3000 
    241 H241        1.2433  -19.2210  -51.1340 H         1 UNK         0.0600 
    242 H242        3.4827  -17.7242  -53.4426 H         1 UNK         0.3800 
    243 H243        3.1598  -18.1421  -51.7858 H         1 UNK         0.3800 
    244 H244       -0.9954  -17.6310  -52.5010 H         1 UNK         0.0800 
    245 H245        0.1790  -16.9464  -51.4085 H         1 UNK         0.0800 
    246 H246       -0.2776  -16.6432  -48.9145 H         1 UNK         0.0800 
    247 H247       -1.5608  -15.9419  -49.8593 H         1 UNK         0.0800 
@<TRIPOS>BOND
     1    1    2 1    
     2    1  127 1    
     3    1  128 1    
     4    1  129 1    
     5    2    3 2    
     6    2    4 am   BACKBONE|DICT|INTERRES
     7    4    5 1    
     8    4  130 1    
     9    5    6 1    
    10    5   65 1    
    11    5  131 1    
    12    6    7 1    
    13    6  132 1    
    14    6  133 1    
    15    7    8 1    
    16    8    9 1    
    17    8  134 1    
    18    8  135 1    
    19    9   10 ar   
    20    9   14 ar   
    21   10   11 ar   
    22   10  136 1    
    23   11   12 ar   
    24   11  126 1    
    25   12   13 ar   
    26   12  137 1    
    27   13   14 ar   
    28   13   15 1    
    29   14  138 1    
    30   15   16 1    
    31   15  139 1    
    32   15  140 1    
    33   16   17 1    
    34   17   18 1    
    35   17  141 1    
    36   17  142 1    
    37   18   19 1    
    38   18   67 1    
    39   18  143 1    
    40   19   20 am   BACKBONE|DICT|INTERRES
    41   19  144 1    
    42   20   21 2    
    43   20   22 1    
    44   22   23 1    
    45   22   24 1    
    46   22  145 1    
    47   23  146 1    
    48   23  147 1    
    49   23  148 1    
    50   24   25 am   BACKBONE|DICT|INTERRES
    51   24  149 1    
    52   25   26 2    
    53   25   27 1    
    54   27   28 1    
    55   27   29 1    
    56   27  150 1    
    57   28  151 1    
    58   28  152 1    
    59   28  153 1    
    60   29   30 am   BACKBONE|DICT|INTERRES
    61   29  154 1    
    62   30   31 2    
    63   30   32 1    
    64   32   33 1    
    65   32   34 1    
    66   32  155 1    
    67   33  156 1    
    68   33  157 1    
    69   33  158 1    
    70   34   35 am   BACKBONE|DICT|INTERRES
    71   34  159 1    
    72   35   36 2    
    73   35   37 1    
    74   37   38 1    
    75   37   39 1    
    76   37  160 1    
    77   38  161 1    
    78   38  162 1    
    79   38  163 1    
    80   39   40 am   BACKBONE|DICT|INTERRES
    81   39  164 1    
    82   40   41 2    
    83   40   42 1    
    84   42   43 1    
    85   42   44 1    
    86   42  165 1    
    87   43  166 1    
    88   43  167 1    
    89   43  168 1    
    90   44   45 am   BACKBONE|DICT|INTERRES
    91   44  169 1    
    92   45   46 2    
    93   45   47 1    
    94   47   48 1    
    95   47   49 1    
    96   47  170 1    
    97   48  171 1    
    98   48  172 1    
    99   48  173 1    
   100   49   50 am   BACKBONE|DICT|INTERRES
   101   49  174 1    
   102   50   51 2    
   103   50   52 1    
   104   52   53 1    
   105   52   54 1    
   106   52  175 1    
   107   53  176 1    
   108   53  177 1    
   109   53  178 1    
   110   54   55 am   BACKBONE|DICT|INTERRES
   111   54  179 1    
   112   55   56 2    
   113   55   57 1    
   114   57   58 1    
   115   57   59 1    
   116   57  180 1    
   117   58  181 1    
   118   58  182 1    
   119   58  183 1    
   120   59   60 am   BACKBONE|DICT|INTERRES
   121   59  184 1    
   122   60   61 2    
   123   60   62 1    
   124   62   63 1    
   125   62   64 1    
   126   62  185 1    
   127   63  186 1    
   128   63  187 1    
   129   63  188 1    
   130   64   65 am   BACKBONE|DICT|INTERRES
   131   64  189 1    
   132   65   66 2    
   133   67   68 2    
   134   67   69 am   BACKBONE|DICT|INTERRES
   135   69   70 1    
   136   69  190 1    
   137   70   71 1    
   138   70   72 1    
   139   70  191 1    
   140   71  192 1    
   141   71  193 1    
   142   71  194 1    
   143   72   73 2    
   144   72   74 am   BACKBONE|DICT|INTERRES
   145   74   75 1    
   146   74  195 1    
   147   75   76 1    
   148   75   77 1    
   149   75  196 1    
   150   76  197 1    
   151   76  198 1    
   152   76  199 1    
   153   77   78 2    
   154   77   79 am   BACKBONE|DICT|INTERRES
   155   79   80 1    
   156   79  200 1    
   157   80   81 1    
   158   80   82 1    
   159   80  201 1    
   160   81  202 1    
   161   81  203 1    
   162   81  204 1    
   163   82   83 2    
   164   82   84 am   BACKBONE|DICT|INTERRES
   165   84   85 1    
   166   84  205 1    
   167   85   86 1    
   168   85   87 1    
   169   85  206 1    
   170   86  207 1    
   171   86  208 1    
   172   86  209 1    
   173   87   88 2    
   174   87   89 am   BACKBONE|DICT|INTERRES
   175   89   90 1    
   176   89  210 1    
   177   90   91 1    
   178   90   92 1    
   179   90  211 1    
   180   91  212 1    
   181   91  213 1    
   182   91  214 1    
   183   92   93 2    
   184   92   94 am   BACKBONE|DICT|INTERRES
   185   94   95 1    
   186   94  215 1    
   187   95   96 1    
   188   95   97 1    
   189   95  216 1    
   190   96  217 1    
   191   96  218 1    
   192   96  219 1    
   193   97   98 2    
   194   97   99 am   BACKBONE|DICT|INTERRES
   195   99  100 1    
   196   99  220 1    
   197  100  101 1    
   198  100  102 1    
   199  100  221 1    
   200  101  222 1    
   201  101  223 1    
   202  101  224 1    
   203  102  103 2    
   204  102  104 am   BACKBONE|DICT|INTERRES
   205  104  105 1    
   206  104  225 1    
   207  105  106 1    
   208  105  107 1    
   209  105  226 1    
   210  106  227 1    
   211  106  228 1    
   212  106  229 1    
   213  107  108 2    
   214  107  109 am   BACKBONE|DICT|INTERRES
   215  109  110 1    
   216  109  230 1    
   217  110  111 1    
   218  110  112 1    
   219  110  231 1    
   220  111  232 1    
   221  111  233 1    
   222  111  234 1    
   223  112  113 2    
   224  112  114 am   BACKBONE|DICT|INTERRES
   225  114  115 1    
   226  114  235 1    
   227  115  116 1    
   228  115  117 1    
   229  115  236 1    
   230  116  237 1    
   231  116  238 1    
   232  116  239 1    
   233  117  118 2    
   234  117  119 am   BACKBONE|DICT|INTERRES
   235  119  120 1    
   236  119  240 1    
   237  120  121 1    
   238  120  124 1    
   239  120  241 1    
   240  121  122 am   BACKBONE|DICT|INTERRES
   241  121  123 2    
   242  122  242 1    
   243  122  243 1    
   244  124  125 1    
   245  124  244 1    
   246  124  245 1    
   247  125  126 1    
   248  126  246 1    
   249  126  247 1    
@<TRIPOS>SUBSTRUCTURE
     1 UNK         1 GROUP             0       ****    0 ROOT    
