@<TRIPOS>MOLECULE
3R540
247   249    1
SMALL
USER_CHARGES


@<TRIPOS>ATOM
      1 CA         -1.7074  -10.7644  -48.4241 C.3       0 UNK        -0.1800 
      2 C          -1.8278  -12.2494  -48.1160 C.2       0 UNK         0.5000 
      3 O          -2.9090  -12.7107  -47.7493 O.2       0 UNK        -0.5000 
      4 N          -0.7190  -12.9922  -48.2474 N.am      1 UNK        -0.5000 
      5 CA         -0.5888  -14.4289  -47.9771 C.3       1 UNK         0.1400 
      6 C6         -1.2866  -15.3018  -49.0577 C.3       23 UNK        -0.0398 
      7 S7         -0.6668  -17.0201  -49.1040 S.3       23 UNK        -0.2404 
      8 C8          0.8612  -16.7986  -50.0684 C.3       23 UNK        -0.0205 
      9 C9          1.3931  -18.1074  -50.6348 C.ar      23 UNK        -0.0193 
     10 C10         1.2646  -18.3774  -52.0006 C.ar      23 UNK        -0.1150 
     11 C11         1.8251  -19.5306  -52.5568 C.ar      23 UNK        -0.0193 
     12 C12         2.5009  -20.4305  -51.7283 C.ar      23 UNK        -0.1150 
     13 C13         2.6245  -20.1823  -50.3571 C.ar      23 UNK        -0.0193 
     14 C14         2.0703  -19.0168  -49.8156 C.ar      23 UNK        -0.1150 
     15 C15         3.4020  -21.1539  -49.4806 C.3       23 UNK        -0.0205 
     16 S16         2.3593  -22.5132  -48.8667 S.3       23 UNK        -0.2404 
     17 C17         1.6701  -21.7616  -47.3570 C.3       23 UNK        -0.0398 
     18 CA          0.6615  -22.6896  -46.6365 C.3       11 UNK         0.1400 
     19 N           0.5417  -22.3783  -45.2082 N.am      11 UNK        -0.5000 
     20 C          -0.1690  -23.0922  -44.3216 C.2       10 UNK         0.5000 
     21 O          -0.7480  -24.1420  -44.5947 O.2       10 UNK        -0.5000 
     22 CA         -0.3199  -22.5000  -42.9082 C.3       10 UNK         0.1400 
     23 CB          0.9036  -22.8146  -42.0353 C.3       10 UNK        -0.1800 
     24 N          -0.5538  -21.0567  -42.9407 N.am      10 UNK        -0.5000 
     25 C          -1.6302  -20.4822  -43.4959 C.2       9 UNK         0.5000 
     26 O          -2.5822  -21.1145  -43.9536 O.2       9 UNK        -0.5000 
     27 CA         -1.6127  -18.9487  -43.6125 C.3       9 UNK         0.1400 
     28 CB         -2.0592  -18.2957  -42.2947 C.3       9 UNK        -0.1800 
     29 N          -0.3014  -18.4349  -44.0228 N.am      9 UNK        -0.5000 
     30 C           0.2651  -18.6809  -45.2144 C.2       8 UNK         0.5000 
     31 O          -0.3037  -19.2898  -46.1167 O.2       8 UNK        -0.5000 
     32 CA          1.7317  -18.2548  -45.4163 C.3       8 UNK         0.1400 
     33 CB          1.8534  -16.8413  -45.9903 C.3       8 UNK        -0.1800 
     34 N           2.5034  -18.3390  -44.1816 N.am      8 UNK        -0.5000 
     35 C           2.9083  -19.4879  -43.6271 C.2       7 UNK         0.5000 
     36 O           2.7231  -20.5927  -44.1370 O.2       7 UNK        -0.5000 
     37 CA          3.5841  -19.3751  -42.2484 C.3       7 UNK         0.1400 
     38 CB          5.0814  -19.0699  -42.4012 C.3       7 UNK        -0.1800 
     39 N           2.9592  -18.3453  -41.4132 N.am      7 UNK        -0.5000 
     40 C           1.7111  -18.4278  -40.9304 C.2       6 UNK         0.5000 
     41 O           0.9882  -19.4103  -41.0902 O.2       6 UNK        -0.5000 
     42 CA          1.1636  -17.1951  -40.1870 C.3       6 UNK         0.1400 
     43 CB          1.4813  -17.2870  -38.6874 C.3       6 UNK        -0.1800 
     44 N           1.6772  -15.9282  -40.7153 N.am      6 UNK        -0.5000 
     45 C           1.3770  -15.4224  -41.9192 C.2       5 UNK         0.5000 
     46 O           0.6381  -15.9786  -42.7330 O.2       5 UNK        -0.5000 
     47 CA          2.0824  -14.1135  -42.2915 C.3       5 UNK         0.1400 
     48 CB          3.4272  -14.4084  -42.9810 C.3       5 UNK        -0.1800 
     49 N           1.2494  -13.2909  -43.1691 N.am      5 UNK        -0.5000 
     50 C           1.3387  -11.9546  -43.2345 C.2       4 UNK         0.5000 
     51 O           2.0939  -11.2905  -42.5224 O.2       4 UNK        -0.5000 
     52 CA          0.4600  -11.2192  -44.2591 C.3       4 UNK         0.1400 
     53 CB          1.1343  -11.2158  -45.6407 C.3       4 UNK        -0.1800 
     54 N          -0.8774  -11.7986  -44.3709 N.am      4 UNK        -0.5000 
     55 C          -1.9625  -11.3328  -43.7352 C.2       3 UNK         0.5000 
     56 O          -1.9305  -10.3916  -42.9412 O.2       3 UNK        -0.5000 
     57 CA         -3.3214  -11.9947  -44.0452 C.3       3 UNK         0.1400 
     58 CB         -4.1874  -11.0652  -44.9103 C.3       3 UNK        -0.1800 
     59 N          -3.1868  -13.2814  -44.7270 N.am      3 UNK        -0.5000 
     60 C          -2.9612  -14.4428  -44.0980 C.2       2 UNK         0.5000 
     61 O          -2.9346  -14.5591  -42.8729 O.2       2 UNK        -0.5000 
     62 CA         -2.6961  -15.6805  -44.9789 C.3       2 UNK         0.1400 
     63 CB         -3.9830  -16.5004  -45.1577 C.3       2 UNK        -0.1800 
     64 N          -2.1392  -15.3812  -46.2985 N.am      2 UNK        -0.5000 
     65 C          -0.9859  -14.7367  -46.5167 C.2       1 UNK         0.5000 
     66 O          -0.2650  -14.3216  -45.6086 O.2       1 UNK        -0.5000 
     67 C          -0.7122  -22.6891  -47.3390 C.2       11 UNK         0.5000 
     68 O          -1.0529  -23.6715  -47.9962 O.2       11 UNK        -0.5000 
     69 N          -1.4926  -21.6158  -47.1412 N.am      12 UNK        -0.5000 
     70 CA         -2.8531  -21.4441  -47.6539 C.3       12 UNK         0.1400 
     71 CB         -3.3879  -20.0616  -47.2518 C.3       12 UNK        -0.1800 
     72 C          -3.8128  -22.5655  -47.2236 C.2       12 UNK         0.5000 
     73 O          -4.5744  -23.0578  -48.0551 O.2       12 UNK        -0.5000 
     74 N          -3.7283  -22.9751  -45.9519 N.am      13 UNK        -0.5000 
     75 CA         -4.4854  -24.0939  -45.3967 C.3       13 UNK         0.1400 
     76 CB         -4.3693  -24.0756  -43.8646 C.3       13 UNK        -0.1800 
     77 C          -4.0470  -25.4580  -45.9644 C.2       13 UNK         0.5000 
     78 O          -4.9045  -26.2627  -46.3301 O.2       13 UNK        -0.5000 
     79 N          -2.7302  -25.7020  -46.0117 N.am      14 UNK        -0.5000 
     80 CA         -2.1429  -26.9818  -46.4077 C.3       14 UNK         0.1400 
     81 CB         -0.6864  -27.0519  -45.9224 C.3       14 UNK        -0.1800 
     82 C          -2.2167  -27.2528  -47.9193 C.2       14 UNK         0.5000 
     83 O          -2.6166  -28.3476  -48.3182 O.2       14 UNK        -0.5000 
     84 N          -1.8061  -26.2712  -48.7324 N.am      15 UNK        -0.5000 
     85 CA         -1.6957  -26.4087  -50.1859 C.3       15 UNK         0.1400 
     86 CB         -0.6049  -25.4568  -50.7029 C.3       15 UNK        -0.1800 
     87 C          -3.0210  -26.1443  -50.9181 C.2       15 UNK         0.5000 
     88 O          -3.1503  -26.5437  -52.0761 O.2       15 UNK        -0.5000 
     89 N          -3.9607  -25.4521  -50.2560 N.am      16 UNK        -0.5000 
     90 CA         -5.2772  -24.9991  -50.7265 C.3       16 UNK         0.1400 
     91 CB         -6.1697  -26.1781  -51.1585 C.3       16 UNK        -0.1800 
     92 C          -5.2039  -23.9144  -51.8185 C.2       16 UNK         0.5000 
     93 O          -5.8247  -22.8629  -51.6705 O.2       16 UNK        -0.5000 
     94 N          -4.4205  -24.1611  -52.8764 N.am      17 UNK        -0.5000 
     95 CA         -4.1838  -23.2474  -53.9967 C.3       17 UNK         0.1400 
     96 CB         -3.3540  -23.9676  -55.0693 C.3       17 UNK        -0.1800 
     97 C          -3.4934  -21.9383  -53.5755 C.2       17 UNK         0.5000 
     98 O          -3.7526  -20.8936  -54.1724 O.2       17 UNK        -0.5000 
     99 N          -2.6625  -22.0015  -52.5263 N.am      18 UNK        -0.5000 
    100 CA        -1.9779  -20.8534  -51.9304 C.3       18 UNK         0.1400 
    101 CB        -0.9464  -21.3466  -50.9063 C.3       18 UNK        -0.1800 
    102 C         -2.9304  -19.7960  -51.3408 C.2       18 UNK         0.5000 
    103 O         -2.5770  -18.6193  -51.3318 O.2       18 UNK        -0.5000 
    104 N         -4.1552  -20.1926  -50.9586 N.am      19 UNK        -0.5000 
    105 CA        -5.2214  -19.2705  -50.5503 C.3       19 UNK         0.1400 
    106 CB        -6.3888  -20.0709  -49.9538 C.3       19 UNK        -0.1800 
    107 C         -5.7179  -18.3661  -51.7005 C.2       19 UNK         0.5000 
    108 O         -6.2448  -17.2860  -51.4339 O.2       19 UNK        -0.5000 
    109 N         -5.5149  -18.8070  -52.9498 N.am      20 UNK        -0.5000 
    110 CA        -5.7687  -18.0538  -54.1784 C.3       20 UNK         0.1400 
    111 CB        -6.5093  -18.9721  -55.1667 C.3       20 UNK        -0.1800 
    112 C         -4.4609  -17.5047  -54.7919 C.2       20 UNK         0.5000 
    113 O         -4.4789  -17.0513  -55.9364 O.2       20 UNK        -0.5000 
    114 N         -3.3558  -17.5570  -54.0305 N.am      21 UNK        -0.5000 
    115 CA        -1.9918  -17.1561  -54.3909 C.3       21 UNK         0.1400 
    116 CB        -1.9116  -15.6463  -54.6990 C.3       21 UNK        -0.1800 
    117 C         -1.3437  -18.0384  -55.4811 C.2       21 UNK         0.5000 
    118 O         -0.4550  -17.5701  -56.1954 O.2       21 UNK        -0.5000 
    119 N         -1.7627  -19.3089  -55.5540 N.am      22 UNK        -0.5000 
    120 CA        -1.2655  -20.3541  -56.4660 C.3       22 UNK         0.1400 
    121 C         -1.6139  -20.1001  -57.9665 C.2       22 UNK         0.5000 
    122 N         -1.0876  -20.8960  -58.8891 N.am      22 UNK        -0.7600 
    123 O         -2.3963  -19.2190  -58.3155 O.2       22 UNK        -0.5000 
    124 C124        0.2342  -20.7141  -56.2349 C.3       23 UNK        -0.0398 
    125 S125        0.6191  -21.1236  -54.4953 S.3       23 UNK        -0.2404 
    126 C126        1.7514  -19.7669  -54.0589 C.3       23 UNK        -0.0205 
    127 H127       -2.4454  -10.4756  -49.1724 H         1 UNK         0.0600 
    128 H128       -0.7187  -10.5078  -48.8050 H         1 UNK         0.0600 
    129 H129       -1.8869  -10.1795  -47.5221 H         1 UNK         0.0600 
    130 H130        0.1365  -12.5347  -48.5293 H         1 UNK         0.3000 
    131 H131        0.4825  -14.6247  -48.0370 H         1 UNK         0.0600 
    132 H132       -1.1231  -14.8639  -50.0431 H         1 UNK         0.0800 
    133 H133       -2.3705  -15.3108  -48.9375 H         1 UNK         0.0800 
    134 H134        1.6240  -16.3430  -49.4359 H         1 UNK         0.0800 
    135 H135        0.6797  -16.0938  -50.8811 H         1 UNK         0.0800 
    136 H136        0.7585  -17.6681  -52.6386 H         1 UNK         0.1150 
    137 H137        2.9407  -21.3211  -52.1553 H         1 UNK         0.1150 
    138 H138        2.1795  -18.8053  -48.7615 H         1 UNK         0.1150 
    139 H139        4.2239  -21.5818  -50.0566 H         1 UNK         0.0800 
    140 H140        3.8656  -20.6293  -48.6438 H         1 UNK         0.0800 
    141 H141        1.2227  -20.7992  -47.6069 H         1 UNK         0.0800 
    142 H142        2.5113  -21.5451  -46.6973 H         1 UNK         0.0800 
    143 H143        1.0480  -23.7101  -46.6853 H         1 UNK         0.0600 
    144 H144        1.0300  -21.5536  -44.8787 H         1 UNK         0.3000 
    145 H145       -1.1920  -22.9665  -42.4453 H         1 UNK         0.0600 
    146 H146        0.7730  -22.4326  -41.0226 H         1 UNK         0.0600 
    147 H147        1.8163  -22.3791  -42.4402 H         1 UNK         0.0600 
    148 H148        1.0603  -23.8913  -41.9602 H         1 UNK         0.0600 
    149 H149        0.1521  -20.4639  -42.5147 H         1 UNK         0.3000 
    150 H150       -2.3284  -18.6749  -44.3871 H         1 UNK         0.0600 
    151 H151       -3.1076  -18.5184  -42.0936 H         1 UNK         0.0600 
    152 H152       -1.9571  -17.2113  -42.3216 H         1 UNK         0.0600 
    153 H153       -1.4857  -18.6610  -41.4442 H         1 UNK         0.0600 
    154 H154        0.1924  -17.8473  -43.3606 H         1 UNK         0.3000 
    155 H155        2.1706  -18.9406  -46.1436 H         1 UNK         0.0600 
    156 H156        1.2529  -16.7350  -46.8916 H         1 UNK         0.0600 
    157 H157        2.8847  -16.6130  -46.2590 H         1 UNK         0.0600 
    158 H158        1.5238  -16.0920  -45.2732 H         1 UNK         0.0600 
    159 H159        2.6588  -17.4767  -43.6823 H         1 UNK         0.3000 
    160 H160        3.4789  -20.3384  -41.7445 H         1 UNK         0.0600 
    161 H161        5.2511  -18.1053  -42.8814 H         1 UNK         0.0600 
    162 H162        5.5740  -19.8305  -43.0086 H         1 UNK         0.0600 
    163 H163        5.5812  -19.0555  -41.4325 H         1 UNK         0.0600 
    164 H164        3.4982  -17.5129  -41.2268 H         1 UNK         0.3000 
    165 H165        0.0782  -17.1923  -40.3038 H         1 UNK         0.0600 
    166 H166        1.0301  -16.4610  -38.1373 H         1 UNK         0.0600 
    167 H167        1.0889  -18.2116  -38.2616 H         1 UNK         0.0600 
    168 H168        2.5557  -17.2693  -38.4999 H         1 UNK         0.0600 
    169 H169        2.3022  -15.4140  -40.1110 H         1 UNK         0.3000 
    170 H170        2.2718  -13.5694  -41.3635 H         1 UNK         0.0600 
    171 H171        3.2859  -14.9166  -43.9353 H         1 UNK         0.0600 
    172 H172        3.9821  -13.4900  -43.1734 H         1 UNK         0.0600 
    173 H173        4.0609  -15.0422  -42.3595 H         1 UNK         0.0600 
    174 H174        0.6128  -13.7951  -43.7798 H         1 UNK         0.3000 
    175 H175        0.3826  -10.1785  -43.9372 H         1 UNK         0.0600 
    176 H176        1.2764  -12.2242  -46.0289 H         1 UNK         0.0600 
    177 H177        0.5443  -10.6549  -46.3650 H         1 UNK         0.0600 
    178 H178        2.1173  -10.7457  -45.5911 H         1 UNK         0.0600 
    179 H179       -0.9536  -12.6342  -44.9408 H         1 UNK         0.3000 
    180 H180       -3.8381  -12.1434  -43.0946 H         1 UNK         0.0600 
    181 H181       -5.1632  -11.5081  -45.1104 H         1 UNK         0.0600 
    182 H182       -3.7150  -10.8483  -45.8684 H         1 UNK         0.0600 
    183 H183       -4.3607  -10.1126  -44.4081 H         1 UNK         0.0600 
    184 H184       -3.1895  -13.2612  -45.7417 H         1 UNK         0.3000 
    185 H185       -1.9555  -16.2843  -44.4579 H         1 UNK         0.0600 
    186 H186       -4.7619  -15.9192  -45.6529 H         1 UNK         0.0600 
    187 H187       -3.8063  -17.3951  -45.7544 H         1 UNK         0.0600 
    188 H188       -4.3766  -16.8236  -44.1932 H         1 UNK         0.0600 
    189 H189       -2.6953  -15.6617  -47.0921 H         1 UNK         0.3000 
    190 H190       -1.1113  -20.8288  -46.6192 H         1 UNK         0.3000 
    191 H191       -2.8082  -21.4700  -48.7399 H         1 UNK         0.0600 
    192 H192       -4.4004  -19.9078  -47.6233 H         1 UNK         0.0600 
    193 H193       -2.7658  -19.2651  -47.6619 H         1 UNK         0.0600 
    194 H194       -3.4186  -19.9398  -46.1703 H         1 UNK         0.0600 
    195 H195       -3.1070  -22.4797  -45.3195 H         1 UNK         0.3000 
    196 H196       -5.5366  -23.9492  -45.6551 H         1 UNK         0.0600 
    197 H197       -4.7538  -23.1425  -43.4523 H         1 UNK         0.0600 
    198 H198       -3.3349  -24.1825  -43.5365 H         1 UNK         0.0600 
    199 H199       -4.9421  -24.8899  -43.4190 H         1 UNK         0.0600 
    200 H200       -2.0839  -24.9978  -45.6647 H         1 UNK         0.3000 
    201 H201       -2.6965  -27.7770  -45.9036 H         1 UNK         0.0600 
    202 H202       -0.6290  -26.9653  -44.8372 H         1 UNK         0.0600 
    203 H203       -0.0795  -26.2544  -46.3534 H         1 UNK         0.0600 
    204 H204       -0.2261  -28.0017  -46.1974 H         1 UNK         0.0600 
    205 H205       -1.5111  -25.3784  -48.3377 H         1 UNK         0.3000 
    206 H206       -1.3865  -27.4285  -50.4248 H         1 UNK         0.0600 
    207 H207       -0.8753  -24.4125  -50.5514 H         1 UNK         0.0600 
    208 H208        0.3454  -25.6314  -50.1980 H         1 UNK         0.0600 
    209 H209       -0.4365  -25.5979  -51.7713 H         1 UNK         0.0600 
    210 H210       -3.7268  -25.1505  -49.3192 H         1 UNK         0.3000 
    211 H211       -5.7580  -24.5399  -49.8622 H         1 UNK         0.0600 
    212 H212       -5.7871  -26.6837  -52.0452 H         1 UNK         0.0600 
    213 H213       -7.1775  -25.8335  -51.3928 H         1 UNK         0.0600 
    214 H214       -6.2561  -26.9172  -50.3620 H         1 UNK         0.0600 
    215 H215       -3.9333  -25.0538  -52.8927 H         1 UNK         0.3000 
    216 H216       -5.1529  -22.9858  -54.4261 H         1 UNK         0.0600 
    217 H217       -3.1991  -23.3281  -55.9390 H         1 UNK         0.0600 
    218 H218       -3.8575  -24.8697  -55.4171 H         1 UNK         0.0600 
    219 H219       -2.3718  -24.2559  -54.6921 H         1 UNK         0.0600 
    220 H220       -2.5077  -22.8999  -52.0951 H         1 UNK         0.3000 
    221 H221       -1.4342  -20.3402  -52.7235 H         1 UNK         0.0600 
    222 H222       -1.3609  -22.1014  -50.2431 H         1 UNK         0.0600 
    223 H223       -0.0899  -21.7971  -51.4074 H         1 UNK         0.0600 
    224 H224       -0.5661  -20.5293  -50.2914 H         1 UNK         0.0600 
    225 H225       -4.4154  -21.1664  -51.0524 H         1 UNK         0.3000 
    226 H226       -4.8187  -18.6207  -49.7705 H         1 UNK         0.0600 
    227 H227       -6.0509  -20.7603  -49.1802 H         1 UNK         0.0600 
    228 H228       -7.1231  -19.4045  -49.4998 H         1 UNK         0.0600 
    229 H229       -6.9073  -20.6532  -50.7159 H         1 UNK         0.0600 
    230 H230       -5.0489  -19.6975  -53.0828 H         1 UNK         0.3000 
    231 H231       -6.4096  -17.1952  -53.9695 H         1 UNK         0.0600 
    232 H232       -6.7897  -18.4318  -56.0717 H         1 UNK         0.0600 
    233 H233       -7.4269  -19.3642  -54.7280 H         1 UNK         0.0600 
    234 H234       -5.8932  -19.8197  -55.4685 H         1 UNK         0.0600 
    235 H235       -3.4449  -17.9337  -53.0938 H         1 UNK         0.3000 
    236 H236       -1.3994  -17.3267  -53.4920 H         1 UNK         0.0600 
    237 H237       -2.4125  -15.3953  -55.6342 H         1 UNK         0.0600 
    238 H238       -2.3669  -15.0565  -53.9034 H         1 UNK         0.0600 
    239 H239       -0.8746  -15.3208  -54.7885 H         1 UNK         0.0600 
    240 H240       -2.5299  -19.6033  -54.9587 H         1 UNK         0.3000 
    241 H241       -1.8474  -21.2372  -56.2037 H         1 UNK         0.0600 
    242 H242       -1.3283  -20.7403  -59.8560 H         1 UNK         0.3800 
    243 H243       -0.4680  -21.6554  -58.6548 H         1 UNK         0.3800 
    244 H244        0.8792  -19.9066  -56.5839 H         1 UNK         0.0800 
    245 H245        0.5111  -21.5885  -56.8243 H         1 UNK         0.0800 
    246 H246        2.7469  -19.9967  -54.4412 H         1 UNK         0.0800 
    247 H247        1.4379  -18.8508  -54.5605 H         1 UNK         0.0800 
@<TRIPOS>BOND
     1    1    2 1    
     2    1  127 1    
     3    1  128 1    
     4    1  129 1    
     5    2    3 2    
     6    2    4 am   BACKBONE|DICT|INTERRES
     7    4    5 1    
     8    4  130 1    
     9    5    6 1    
    10    5   65 1    
    11    5  131 1    
    12    6    7 1    
    13    6  132 1    
    14    6  133 1    
    15    7    8 1    
    16    8    9 1    
    17    8  134 1    
    18    8  135 1    
    19    9   10 ar   
    20    9   14 ar   
    21   10   11 ar   
    22   10  136 1    
    23   11   12 ar   
    24   11  126 1    
    25   12   13 ar   
    26   12  137 1    
    27   13   14 ar   
    28   13   15 1    
    29   14  138 1    
    30   15   16 1    
    31   15  139 1    
    32   15  140 1    
    33   16   17 1    
    34   17   18 1    
    35   17  141 1    
    36   17  142 1    
    37   18   19 1    
    38   18   67 1    
    39   18  143 1    
    40   19   20 am   BACKBONE|DICT|INTERRES
    41   19  144 1    
    42   20   21 2    
    43   20   22 1    
    44   22   23 1    
    45   22   24 1    
    46   22  145 1    
    47   23  146 1    
    48   23  147 1    
    49   23  148 1    
    50   24   25 am   BACKBONE|DICT|INTERRES
    51   24  149 1    
    52   25   26 2    
    53   25   27 1    
    54   27   28 1    
    55   27   29 1    
    56   27  150 1    
    57   28  151 1    
    58   28  152 1    
    59   28  153 1    
    60   29   30 am   BACKBONE|DICT|INTERRES
    61   29  154 1    
    62   30   31 2    
    63   30   32 1    
    64   32   33 1    
    65   32   34 1    
    66   32  155 1    
    67   33  156 1    
    68   33  157 1    
    69   33  158 1    
    70   34   35 am   BACKBONE|DICT|INTERRES
    71   34  159 1    
    72   35   36 2    
    73   35   37 1    
    74   37   38 1    
    75   37   39 1    
    76   37  160 1    
    77   38  161 1    
    78   38  162 1    
    79   38  163 1    
    80   39   40 am   BACKBONE|DICT|INTERRES
    81   39  164 1    
    82   40   41 2    
    83   40   42 1    
    84   42   43 1    
    85   42   44 1    
    86   42  165 1    
    87   43  166 1    
    88   43  167 1    
    89   43  168 1    
    90   44   45 am   BACKBONE|DICT|INTERRES
    91   44  169 1    
    92   45   46 2    
    93   45   47 1    
    94   47   48 1    
    95   47   49 1    
    96   47  170 1    
    97   48  171 1    
    98   48  172 1    
    99   48  173 1    
   100   49   50 am   BACKBONE|DICT|INTERRES
   101   49  174 1    
   102   50   51 2    
   103   50   52 1    
   104   52   53 1    
   105   52   54 1    
   106   52  175 1    
   107   53  176 1    
   108   53  177 1    
   109   53  178 1    
   110   54   55 am   BACKBONE|DICT|INTERRES
   111   54  179 1    
   112   55   56 2    
   113   55   57 1    
   114   57   58 1    
   115   57   59 1    
   116   57  180 1    
   117   58  181 1    
   118   58  182 1    
   119   58  183 1    
   120   59   60 am   BACKBONE|DICT|INTERRES
   121   59  184 1    
   122   60   61 2    
   123   60   62 1    
   124   62   63 1    
   125   62   64 1    
   126   62  185 1    
   127   63  186 1    
   128   63  187 1    
   129   63  188 1    
   130   64   65 am   BACKBONE|DICT|INTERRES
   131   64  189 1    
   132   65   66 2    
   133   67   68 2    
   134   67   69 am   BACKBONE|DICT|INTERRES
   135   69   70 1    
   136   69  190 1    
   137   70   71 1    
   138   70   72 1    
   139   70  191 1    
   140   71  192 1    
   141   71  193 1    
   142   71  194 1    
   143   72   73 2    
   144   72   74 am   BACKBONE|DICT|INTERRES
   145   74   75 1    
   146   74  195 1    
   147   75   76 1    
   148   75   77 1    
   149   75  196 1    
   150   76  197 1    
   151   76  198 1    
   152   76  199 1    
   153   77   78 2    
   154   77   79 am   BACKBONE|DICT|INTERRES
   155   79   80 1    
   156   79  200 1    
   157   80   81 1    
   158   80   82 1    
   159   80  201 1    
   160   81  202 1    
   161   81  203 1    
   162   81  204 1    
   163   82   83 2    
   164   82   84 am   BACKBONE|DICT|INTERRES
   165   84   85 1    
   166   84  205 1    
   167   85   86 1    
   168   85   87 1    
   169   85  206 1    
   170   86  207 1    
   171   86  208 1    
   172   86  209 1    
   173   87   88 2    
   174   87   89 am   BACKBONE|DICT|INTERRES
   175   89   90 1    
   176   89  210 1    
   177   90   91 1    
   178   90   92 1    
   179   90  211 1    
   180   91  212 1    
   181   91  213 1    
   182   91  214 1    
   183   92   93 2    
   184   92   94 am   BACKBONE|DICT|INTERRES
   185   94   95 1    
   186   94  215 1    
   187   95   96 1    
   188   95   97 1    
   189   95  216 1    
   190   96  217 1    
   191   96  218 1    
   192   96  219 1    
   193   97   98 2    
   194   97   99 am   BACKBONE|DICT|INTERRES
   195   99  100 1    
   196   99  220 1    
   197  100  101 1    
   198  100  102 1    
   199  100  221 1    
   200  101  222 1    
   201  101  223 1    
   202  101  224 1    
   203  102  103 2    
   204  102  104 am   BACKBONE|DICT|INTERRES
   205  104  105 1    
   206  104  225 1    
   207  105  106 1    
   208  105  107 1    
   209  105  226 1    
   210  106  227 1    
   211  106  228 1    
   212  106  229 1    
   213  107  108 2    
   214  107  109 am   BACKBONE|DICT|INTERRES
   215  109  110 1    
   216  109  230 1    
   217  110  111 1    
   218  110  112 1    
   219  110  231 1    
   220  111  232 1    
   221  111  233 1    
   222  111  234 1    
   223  112  113 2    
   224  112  114 am   BACKBONE|DICT|INTERRES
   225  114  115 1    
   226  114  235 1    
   227  115  116 1    
   228  115  117 1    
   229  115  236 1    
   230  116  237 1    
   231  116  238 1    
   232  116  239 1    
   233  117  118 2    
   234  117  119 am   BACKBONE|DICT|INTERRES
   235  119  120 1    
   236  119  240 1    
   237  120  121 1    
   238  120  124 1    
   239  120  241 1    
   240  121  122 am   BACKBONE|DICT|INTERRES
   241  121  123 2    
   242  122  242 1    
   243  122  243 1    
   244  124  125 1    
   245  124  244 1    
   246  124  245 1    
   247  125  126 1    
   248  126  246 1    
   249  126  247 1    
@<TRIPOS>SUBSTRUCTURE
     1 UNK         1 GROUP             0       ****    0 ROOT    
