@<TRIPOS>MOLECULE
3R540
247   249    1
SMALL
USER_CHARGES


@<TRIPOS>ATOM
      1 CA         -2.0068  -13.3213  -47.3583 C.3       0 UNK        -0.1800 
      2 C          -0.5625  -13.0184  -47.7289 C.2       0 UNK         0.5000 
      3 O          -0.1554  -11.8571  -47.7008 O.2       0 UNK        -0.5000 
      4 N           0.2129  -14.0627  -48.0551 N.am      1 UNK        -0.5000 
      5 CA          1.6176  -14.0134  -48.4960 C.3       1 UNK         0.1400 
      6 C6          2.1244  -15.4408  -48.8209 C.3       23 UNK        -0.0398 
      7 S7          3.6544  -15.4811  -49.8191 S.3       23 UNK        -0.2404 
      8 C8          3.0134  -15.8005  -51.5009 C.3       23 UNK        -0.0205 
      9 C9          2.2385  -17.1078  -51.6755 C.ar      23 UNK        -0.0193 
     10 C10         1.2954  -17.1976  -52.7021 C.ar      23 UNK        -0.1150 
     11 C11         0.5551  -18.3666  -52.8987 C.ar      23 UNK        -0.0193 
     12 C12         0.7531  -19.4569  -52.0451 C.ar      23 UNK        -0.1150 
     13 C13         1.7014  -19.3911  -51.0185 C.ar      23 UNK        -0.0193 
     14 C14         2.4525  -18.2225  -50.8560 C.ar      23 UNK        -0.1150 
     15 C15         1.9522  -20.5957  -50.1168 C.3       23 UNK        -0.0205 
     16 S16         1.9573  -20.1722  -48.3399 S.3       23 UNK        -0.2404 
     17 C17         0.1758  -20.0328  -47.9818 C.3       23 UNK        -0.0398 
     18 CA         -0.3344  -21.2763  -47.2180 C.3       11 UNK         0.1400 
     19 N           0.1612  -21.3557  -45.8395 N.am      11 UNK        -0.5000 
     20 C           0.0332  -22.4428  -45.0639 C.2       10 UNK         0.5000 
     21 O          -0.4714  -23.4975  -45.4479 O.2       10 UNK        -0.5000 
     22 CA          0.4946  -22.3224  -43.6016 C.3       10 UNK         0.1400 
     23 CB          2.0234  -22.4274  -43.4988 C.3       10 UNK        -0.1800 
     24 N           0.0341  -21.0874  -42.9673 N.am      10 UNK        -0.5000 
     25 C          -1.2522  -20.7641  -42.7703 C.2       9 UNK         0.5000 
     26 O          -2.1933  -21.5026  -43.0585 O.2       9 UNK        -0.5000 
     27 CA         -1.5412  -19.3599  -42.2067 C.3       9 UNK         0.1400 
     28 CB         -1.3858  -19.3352  -40.6794 C.3       9 UNK        -0.1800 
     29 N          -0.6951  -18.3272  -42.8053 N.am      9 UNK        -0.5000 
     30 C          -0.6914  -18.0062  -44.1074 C.2       8 UNK         0.5000 
     31 O          -1.4299  -18.5190  -44.9473 O.2       8 UNK        -0.5000 
     32 CA          0.3575  -16.9774  -44.5538 C.3       8 UNK         0.1400 
     33 CB         -0.1190  -15.5495  -44.2518 C.3       8 UNK        -0.1800 
     34 N           1.6491  -17.2248  -43.9126 N.am      8 UNK        -0.5000 
     35 C           2.4343  -18.2729  -44.2032 C.2       7 UNK         0.5000 
     36 O           2.1647  -19.1024  -45.0713 O.2       7 UNK        -0.5000 
     37 CA          3.7048  -18.4540  -43.3506 C.3       7 UNK         0.1400 
     38 CB          4.8658  -17.6218  -43.9140 C.3       7 UNK        -0.1800 
     39 N           3.4966  -18.1131  -41.9417 N.am      7 UNK        -0.5000 
     40 C           2.7113  -18.8116  -41.1097 C.2       6 UNK         0.5000 
     41 O           2.1192  -19.8381  -41.4374 O.2       6 UNK        -0.5000 
     42 CA          2.5139  -18.2521  -39.6875 C.3       6 UNK         0.1400 
     43 CB          3.5831  -18.8137  -38.7388 C.3       6 UNK        -0.1800 
     44 N           2.5139  -16.7881  -39.6026 N.am      6 UNK        -0.5000 
     45 C           1.6989  -15.9682  -40.2805 C.2       5 UNK         0.5000 
     46 O           0.8871  -16.3599  -41.1234 O.2       5 UNK        -0.5000 
     47 CA          1.8657  -14.4635  -39.9867 C.3       5 UNK         0.1400 
     48 CB          3.2218  -13.9600  -40.5047 C.3       5 UNK        -0.1800 
     49 N           0.7979  -13.6482  -40.5719 N.am      5 UNK        -0.5000 
     50 C          -0.4674  -13.6297  -40.1249 C.2       4 UNK         0.5000 
     51 O          -0.8428  -14.2775  -39.1456 O.2       4 UNK        -0.5000 
     52 CA         -1.4864  -12.7333  -40.8584 C.3       4 UNK         0.1400 
     53 CB         -2.2384  -11.8242  -39.8699 C.3       4 UNK        -0.1800 
     54 N          -0.8624  -11.8861  -41.8758 N.am      4 UNK        -0.5000 
     55 C          -1.0861  -11.9624  -43.1927 C.2       3 UNK         0.5000 
     56 O          -1.8435  -12.7801  -43.7148 O.2       3 UNK        -0.5000 
     57 CA         -0.3360  -10.9583  -44.0924 C.3       3 UNK         0.1400 
     58 CB          0.0708   -9.6535  -43.3712 C.3       3 UNK        -0.1800 
     59 N           0.8209  -11.5733  -44.7479 N.am      3 UNK        -0.5000 
     60 C           1.8786  -12.1468  -44.1532 C.2       2 UNK         0.5000 
     61 O           2.0195  -12.2151  -42.9315 O.2       2 UNK        -0.5000 
     62 CA          2.9265  -12.7793  -45.0876 C.3       2 UNK         0.1400 
     63 CB          3.8311  -13.8004  -44.3771 C.3       2 UNK        -0.1800 
     64 N           2.2531  -13.4388  -46.2025 N.am      2 UNK        -0.5000 
     65 C           2.5542  -13.2932  -47.4965 C.2       1 UNK         0.5000 
     66 O           3.4883  -12.6056  -47.9114 O.2       1 UNK        -0.5000 
     67 C          -1.8695  -21.3823  -47.2829 C.2       11 UNK         0.5000 
     68 O          -2.3757  -22.0942  -48.1482 O.2       11 UNK        -0.5000 
     69 N          -2.5851  -20.7274  -46.3576 N.am      12 UNK        -0.5000 
     70 CA         -4.0418  -20.8152  -46.2312 C.3       12 UNK         0.1400 
     71 CB         -4.5394  -19.8093  -45.1828 C.3       12 UNK        -0.1800 
     72 C          -4.5244  -22.2416  -45.9063 C.2       12 UNK         0.5000 
     73 O          -5.4530  -22.7272  -46.5530 O.2       12 UNK        -0.5000 
     74 N          -3.8496  -22.9096  -44.9592 N.am      13 UNK        -0.5000 
     75 CA         -4.0892  -24.3079  -44.5887 C.3       13 UNK         0.1400 
     76 CB         -3.2515  -24.6589  -43.3500 C.3       13 UNK        -0.1800 
     77 C          -3.8045  -25.2970  -45.7366 C.2       13 UNK         0.5000 
     78 O          -4.5113  -26.2963  -45.8689 O.2       13 UNK        -0.5000 
     79 N          -2.8055  -24.9775  -46.5694 N.am      14 UNK        -0.5000 
     80 CA         -2.4449  -25.7064  -47.7864 C.3       14 UNK         0.1400 
     81 CB         -0.9646  -25.4331  -48.1039 C.3       14 UNK        -0.1800 
     82 C          -3.3346  -25.3645  -49.0014 C.2       14 UNK         0.5000 
     83 O          -3.0434  -25.8419  -50.0987 O.2       14 UNK        -0.5000 
     84 N          -4.3699  -24.5298  -48.8157 N.am      15 UNK        -0.5000 
     85 CA         -5.3089  -24.0434  -49.8335 C.3       15 UNK         0.1400 
     86 CB         -6.1980  -25.1925  -50.3532 C.3       15 UNK        -0.1800 
     87 C          -4.5989  -23.2721  -50.9640 C.2       15 UNK         0.5000 
     88 O          -4.8536  -23.5214  -52.1433 O.2       15 UNK        -0.5000 
     89 N          -3.6803  -22.3794  -50.5670 N.am      16 UNK        -0.5000 
     90 CA         -2.7919  -21.5775  -51.4116 C.3       16 UNK         0.1400 
     91 CB         -3.5866  -20.4928  -52.1619 C.3       16 UNK        -0.1800 
     92 C          -1.8899  -22.4534  -52.3059 C.2       16 UNK         0.5000 
     93 O          -1.7011  -22.1597  -53.4859 O.2       16 UNK        -0.5000 
     94 N          -1.3539  -23.5212  -51.6940 N.am      17 UNK        -0.5000 
     95 CA         -0.5482  -24.5871  -52.2969 C.3       17 UNK         0.1400 
     96 CB          0.7871  -24.0370  -52.8425 C.3       17 UNK        -0.1800 
     97 C          -1.3551  -25.4008  -53.3305 C.2       17 UNK         0.5000 
     98 O          -0.9023  -25.5990  -54.4595 O.2       17 UNK        -0.5000 
     99 N          -2.5435  -25.8544  -52.9021 N.am      18 UNK        -0.5000 
    100 CA        -3.5307  -26.6400  -53.6508 C.3       18 UNK         0.1400 
    101 CB        -3.0041  -28.0688  -53.8984 C.3       18 UNK        -0.1800 
    102 C         -4.0149  -25.9400  -54.9391 C.2       18 UNK         0.5000 
    103 O         -4.1407  -26.5777  -55.9868 O.2       18 UNK        -0.5000 
    104 N         -4.2730  -24.6335  -54.8354 N.am      19 UNK        -0.5000 
    105 CA        -4.6726  -23.7562  -55.9283 C.3       19 UNK         0.1400 
    106 CB        -3.4515  -23.4024  -56.8020 C.3       19 UNK        -0.1800 
    107 C         -5.3247  -22.5245  -55.2945 C.2       19 UNK         0.5000 
    108 O         -4.6709  -21.4909  -55.1643 O.2       19 UNK        -0.5000 
    109 N         -6.5768  -22.6942  -54.8440 N.am      20 UNK        -0.5000 
    110 CA        -7.3518  -21.7558  -54.0246 C.3       20 UNK         0.1400 
    111 CB        -8.8065  -22.2426  -53.9452 C.3       20 UNK        -0.1800 
    112 C         -7.2970  -20.2910  -54.5023 C.2       20 UNK         0.5000 
    113 O         -7.4741  -20.0238  -55.6941 O.2       20 UNK        -0.5000 
    114 N         -7.0138  -19.3833  -53.5560 N.am      21 UNK        -0.5000 
    115 CA        -6.8056  -17.9395  -53.7407 C.3       21 UNK         0.1400 
    116 CB        -8.1224  -17.2521  -54.1588 C.3       21 UNK        -0.1800 
    117 C         -5.6284  -17.5879  -54.6813 C.2       21 UNK         0.5000 
    118 O         -5.5993  -16.4880  -55.2359 O.2       21 UNK        -0.5000 
    119 N         -4.6894  -18.5297  -54.8477 N.am      22 UNK        -0.5000 
    120 CA        -3.5636  -18.4977  -55.7948 C.3       22 UNK         0.1400 
    121 C         -3.9975  -18.6000  -57.2907 C.2       22 UNK         0.5000 
    122 N         -5.2057  -19.0583  -57.6024 N.am      22 UNK        -0.7600 
    123 O         -3.2228  -18.2843  -58.1902 O.2       22 UNK        -0.5000 
    124 C124       -2.5493  -17.3491  -55.5277 C.3       23 UNK        -0.0398 
    125 S125       -1.8622  -17.3682  -53.8340 S.3       23 UNK        -0.2404 
    126 C126       -0.4178  -18.4531  -54.0660 C.3       23 UNK        -0.0205 
    127 H127       -2.1891  -14.3929  -47.2745 H         1 UNK         0.0600 
    128 H128       -2.6796  -12.9174  -48.1146 H         1 UNK         0.0600 
    129 H129       -2.2540  -12.8611  -46.4021 H         1 UNK         0.0600 
    130 H130       -0.2054  -14.9817  -48.0583 H         1 UNK         0.3000 
    131 H131        1.6262  -13.4307  -49.4195 H         1 UNK         0.0600 
    132 H132        2.2972  -16.0086  -47.9045 H         1 UNK         0.0800 
    133 H133        1.3504  -15.9902  -49.3573 H         1 UNK         0.0800 
    134 H134        2.3829  -14.9571  -51.7871 H         1 UNK         0.0800 
    135 H135        3.8547  -15.8059  -52.1949 H         1 UNK         0.0800 
    136 H136        1.1369  -16.3540  -53.3598 H         1 UNK         0.1150 
    137 H137        0.1896  -20.3653  -52.1995 H         1 UNK         0.1150 
    138 H138        3.1996  -18.1857  -50.0765 H         1 UNK         0.1150 
    139 H139        1.2184  -21.3829  -50.2978 H         1 UNK         0.0800 
    140 H140        2.9241  -21.0182  -50.3744 H         1 UNK         0.0800 
    141 H141       -0.3598  -19.8967  -48.9233 H         1 UNK         0.0800 
    142 H142        0.0038  -19.1259  -47.3998 H         1 UNK         0.0800 
    143 H143        0.0465  -22.1561  -47.7413 H         1 UNK         0.0600 
    144 H144        0.6290  -20.5342  -45.4725 H         1 UNK         0.3000 
    145 H145        0.0615  -23.1586  -43.0489 H         1 UNK         0.0600 
    146 H146        2.3832  -23.3487  -43.9584 H         1 UNK         0.0600 
    147 H147        2.5203  -21.5955  -43.9979 H         1 UNK         0.0600 
    148 H148        2.3482  -22.4353  -42.4583 H         1 UNK         0.0600 
    149 H149        0.7548  -20.4541  -42.6327 H         1 UNK         0.3000 
    150 H150       -2.5776  -19.1126  -42.4446 H         1 UNK         0.0600 
    151 H151       -1.5984  -18.3451  -40.2754 H         1 UNK         0.0600 
    152 H152       -0.3787  -19.6140  -40.3719 H         1 UNK         0.0600 
    153 H153       -2.0762  -20.0358  -40.2083 H         1 UNK         0.0600 
    154 H154       -0.0682  -17.8252  -42.1849 H         1 UNK         0.3000 
    155 H155        0.4889  -17.0705  -45.6341 H         1 UNK         0.0600 
    156 H156       -0.3803  -15.4151  -43.2020 H         1 UNK         0.0600 
    157 H157       -1.0057  -15.3046  -44.8377 H         1 UNK         0.0600 
    158 H158        0.6451  -14.8165  -44.4937 H         1 UNK         0.0600 
    159 H159        1.8743  -16.6509  -43.1116 H         1 UNK         0.3000 
    160 H160        3.9883  -19.5073  -43.4057 H         1 UNK         0.0600 
    161 H161        5.0297  -17.8431  -44.9697 H         1 UNK         0.0600 
    162 H162        5.7960  -17.8399  -43.3892 H         1 UNK         0.0600 
    163 H163        4.6766  -16.5526  -43.8276 H         1 UNK         0.0600 
    164 H164        3.9509  -17.2815  -41.5948 H         1 UNK         0.3000 
    165 H165        1.5386  -18.5941  -39.3371 H         1 UNK         0.0600 
    166 H166        3.3933  -18.5146  -37.7078 H         1 UNK         0.0600 
    167 H167        3.5922  -19.9044  -38.7620 H         1 UNK         0.0600 
    168 H168        4.5824  -18.4711  -39.0105 H         1 UNK         0.0600 
    169 H169        3.1622  -16.3850  -38.9417 H         1 UNK         0.3000 
    170 H170        1.8399  -14.3269  -38.9036 H         1 UNK         0.0600 
    171 H171        3.3271  -12.8843  -40.3620 H         1 UNK         0.0600 
    172 H172        4.0504  -14.4367  -39.9802 H         1 UNK         0.0600 
    173 H173        3.3441  -14.1702  -41.5658 H         1 UNK         0.0600 
    174 H174        1.0416  -13.1181  -41.4023 H         1 UNK         0.3000 
    175 H175       -2.2133  -13.4071  -41.3160 H         1 UNK         0.0600 
    176 H176       -1.5579  -11.1542  -39.3431 H         1 UNK         0.0600 
    177 H177       -2.9794  -11.2123  -40.3847 H         1 UNK         0.0600 
    178 H178       -2.7711  -12.4099  -39.1197 H         1 UNK         0.0600 
    179 H179       -0.1885  -11.2103  -41.5440 H         1 UNK         0.3000 
    180 H180       -1.0304  -10.6861  -44.8889 H         1 UNK         0.0600 
    181 H181        0.4762   -8.9314  -44.0799 H         1 UNK         0.0600 
    182 H182        0.8269   -9.8159  -42.6028 H         1 UNK         0.0600 
    183 H183       -0.7912   -9.1849  -42.8945 H         1 UNK         0.0600 
    184 H184        0.7738  -11.5971  -45.7605 H         1 UNK         0.3000 
    185 H185        3.5502  -11.9595  -45.4493 H         1 UNK         0.0600 
    186 H186        3.2475  -14.6122  -43.9429 H         1 UNK         0.0600 
    187 H187        4.5503  -14.2376  -45.0699 H         1 UNK         0.0600 
    188 H188        4.4008  -13.3292  -43.5756 H         1 UNK         0.0600 
    189 H189        1.4402  -13.9880  -45.9658 H         1 UNK         0.3000 
    190 H190       -2.1063  -20.1130  -45.7037 H         1 UNK         0.3000 
    191 H191       -4.4720  -20.5341  -47.1948 H         1 UNK         0.0600 
    192 H192       -4.1358  -20.0223  -44.1935 H         1 UNK         0.0600 
    193 H193       -5.6270  -19.8330  -45.1052 H         1 UNK         0.0600 
    194 H194       -4.2540  -18.7910  -45.4475 H         1 UNK         0.0600 
    195 H195       -3.1227  -22.4221  -44.4407 H         1 UNK         0.3000 
    196 H196       -5.1441  -24.4049  -44.3246 H         1 UNK         0.0600 
    197 H197       -3.4267  -25.6890  -43.0377 H         1 UNK         0.0600 
    198 H198       -3.5058  -24.0155  -42.5075 H         1 UNK         0.0600 
    199 H199       -2.1838  -24.5500  -43.5426 H         1 UNK         0.0600 
    200 H200       -2.2361  -24.1678  -46.3480 H         1 UNK         0.3000 
    201 H201       -2.5567  -26.7761  -47.5996 H         1 UNK         0.0600 
    202 H202       -0.3263  -25.6927  -47.2592 H         1 UNK         0.0600 
    203 H203       -0.7919  -24.3838  -48.3425 H         1 UNK         0.0600 
    204 H204       -0.6264  -26.0247  -48.9553 H         1 UNK         0.0600 
    205 H205       -4.5102  -24.1487  -47.8877 H         1 UNK         0.3000 
    206 H206       -5.9588  -23.3233  -49.3346 H         1 UNK         0.0600 
    207 H207       -6.9654  -24.8161  -51.0307 H         1 UNK         0.0600 
    208 H208       -5.6211  -25.9403  -50.8976 H         1 UNK         0.0600 
    209 H209       -6.7087  -25.6960  -49.5324 H         1 UNK         0.0600 
    210 H210       -3.4773  -22.3135  -49.5709 H         1 UNK         0.3000 
    211 H211       -2.1087  -21.0591  -50.7375 H         1 UNK         0.0600 
    212 H212       -2.9519  -19.9443  -52.8567 H         1 UNK         0.0600 
    213 H213       -4.0072  -19.7670  -51.4664 H         1 UNK         0.0600 
    214 H214       -4.4101  -20.9184  -52.7295 H         1 UNK         0.0600 
    215 H215       -1.6185  -23.6759  -50.7317 H         1 UNK         0.3000 
    216 H216       -0.3067  -25.2793  -51.4890 H         1 UNK         0.0600 
    217 H217        1.4352  -24.8498  -53.1719 H         1 UNK         0.0600 
    218 H218        1.3273  -23.4812  -52.0761 H         1 UNK         0.0600 
    219 H219        0.6393  -23.3744  -53.6955 H         1 UNK         0.0600 
    220 H220       -2.7972  -25.6655  -51.9344 H         1 UNK         0.3000 
    221 H221       -4.4055  -26.7199  -53.0042 H         1 UNK         0.0600 
    222 H222       -2.1459  -28.0729  -54.5710 H         1 UNK         0.0600 
    223 H223       -2.7013  -28.5434  -52.9650 H         1 UNK         0.0600 
    224 H224       -3.7744  -28.6980  -54.3458 H         1 UNK         0.0600 
    225 H225       -4.2119  -24.1893  -53.9218 H         1 UNK         0.3000 
    226 H226       -5.4189  -24.2554  -56.5496 H         1 UNK         0.0600 
    227 H227       -3.0513  -24.2842  -57.3021 H         1 UNK         0.0600 
    228 H228       -3.7208  -22.6825  -57.5758 H         1 UNK         0.0600 
    229 H229       -2.6482  -22.9639  -56.2077 H         1 UNK         0.0600 
    230 H230       -7.0094  -23.5928  -54.9972 H         1 UNK         0.3000 
    231 H231       -6.9268  -21.8048  -53.0203 H         1 UNK         0.0600 
    232 H232       -9.2703  -22.2793  -54.9318 H         1 UNK         0.0600 
    233 H233       -8.8672  -23.2389  -53.5068 H         1 UNK         0.0600 
    234 H234       -9.4087  -21.5785  -53.3237 H         1 UNK         0.0600 
    235 H235       -6.8823  -19.7115  -52.6095 H         1 UNK         0.3000 
    236 H236       -6.5281  -17.5474  -52.7613 H         1 UNK         0.0600 
    237 H237       -8.4264  -17.5381  -55.1661 H         1 UNK         0.0600 
    238 H238       -8.9344  -17.5074  -53.4779 H         1 UNK         0.0600 
    239 H239       -8.0202  -16.1664  -54.1451 H         1 UNK         0.0600 
    240 H240       -4.8302  -19.4318  -54.4111 H         1 UNK         0.3000 
    241 H241       -3.0238  -19.4284  -55.6180 H         1 UNK         0.0600 
    242 H242       -5.4743  -19.1281  -58.5707 H         1 UNK         0.3800 
    243 H243       -5.8521  -19.3531  -56.8792 H         1 UNK         0.3800 
    244 H244       -1.7206  -17.3963  -56.2355 H         1 UNK         0.0800 
    245 H245       -3.0188  -16.3794  -55.6949 H         1 UNK         0.0800 
    246 H246        0.1119  -18.1730  -54.9775 H         1 UNK         0.0800 
    247 H247       -0.7610  -19.4790  -54.2105 H         1 UNK         0.0800 
@<TRIPOS>BOND
     1    1    2 1    
     2    1  127 1    
     3    1  128 1    
     4    1  129 1    
     5    2    3 2    
     6    2    4 am   BACKBONE|DICT|INTERRES
     7    4    5 1    
     8    4  130 1    
     9    5    6 1    
    10    5   65 1    
    11    5  131 1    
    12    6    7 1    
    13    6  132 1    
    14    6  133 1    
    15    7    8 1    
    16    8    9 1    
    17    8  134 1    
    18    8  135 1    
    19    9   10 ar   
    20    9   14 ar   
    21   10   11 ar   
    22   10  136 1    
    23   11   12 ar   
    24   11  126 1    
    25   12   13 ar   
    26   12  137 1    
    27   13   14 ar   
    28   13   15 1    
    29   14  138 1    
    30   15   16 1    
    31   15  139 1    
    32   15  140 1    
    33   16   17 1    
    34   17   18 1    
    35   17  141 1    
    36   17  142 1    
    37   18   19 1    
    38   18   67 1    
    39   18  143 1    
    40   19   20 am   BACKBONE|DICT|INTERRES
    41   19  144 1    
    42   20   21 2    
    43   20   22 1    
    44   22   23 1    
    45   22   24 1    
    46   22  145 1    
    47   23  146 1    
    48   23  147 1    
    49   23  148 1    
    50   24   25 am   BACKBONE|DICT|INTERRES
    51   24  149 1    
    52   25   26 2    
    53   25   27 1    
    54   27   28 1    
    55   27   29 1    
    56   27  150 1    
    57   28  151 1    
    58   28  152 1    
    59   28  153 1    
    60   29   30 am   BACKBONE|DICT|INTERRES
    61   29  154 1    
    62   30   31 2    
    63   30   32 1    
    64   32   33 1    
    65   32   34 1    
    66   32  155 1    
    67   33  156 1    
    68   33  157 1    
    69   33  158 1    
    70   34   35 am   BACKBONE|DICT|INTERRES
    71   34  159 1    
    72   35   36 2    
    73   35   37 1    
    74   37   38 1    
    75   37   39 1    
    76   37  160 1    
    77   38  161 1    
    78   38  162 1    
    79   38  163 1    
    80   39   40 am   BACKBONE|DICT|INTERRES
    81   39  164 1    
    82   40   41 2    
    83   40   42 1    
    84   42   43 1    
    85   42   44 1    
    86   42  165 1    
    87   43  166 1    
    88   43  167 1    
    89   43  168 1    
    90   44   45 am   BACKBONE|DICT|INTERRES
    91   44  169 1    
    92   45   46 2    
    93   45   47 1    
    94   47   48 1    
    95   47   49 1    
    96   47  170 1    
    97   48  171 1    
    98   48  172 1    
    99   48  173 1    
   100   49   50 am   BACKBONE|DICT|INTERRES
   101   49  174 1    
   102   50   51 2    
   103   50   52 1    
   104   52   53 1    
   105   52   54 1    
   106   52  175 1    
   107   53  176 1    
   108   53  177 1    
   109   53  178 1    
   110   54   55 am   BACKBONE|DICT|INTERRES
   111   54  179 1    
   112   55   56 2    
   113   55   57 1    
   114   57   58 1    
   115   57   59 1    
   116   57  180 1    
   117   58  181 1    
   118   58  182 1    
   119   58  183 1    
   120   59   60 am   BACKBONE|DICT|INTERRES
   121   59  184 1    
   122   60   61 2    
   123   60   62 1    
   124   62   63 1    
   125   62   64 1    
   126   62  185 1    
   127   63  186 1    
   128   63  187 1    
   129   63  188 1    
   130   64   65 am   BACKBONE|DICT|INTERRES
   131   64  189 1    
   132   65   66 2    
   133   67   68 2    
   134   67   69 am   BACKBONE|DICT|INTERRES
   135   69   70 1    
   136   69  190 1    
   137   70   71 1    
   138   70   72 1    
   139   70  191 1    
   140   71  192 1    
   141   71  193 1    
   142   71  194 1    
   143   72   73 2    
   144   72   74 am   BACKBONE|DICT|INTERRES
   145   74   75 1    
   146   74  195 1    
   147   75   76 1    
   148   75   77 1    
   149   75  196 1    
   150   76  197 1    
   151   76  198 1    
   152   76  199 1    
   153   77   78 2    
   154   77   79 am   BACKBONE|DICT|INTERRES
   155   79   80 1    
   156   79  200 1    
   157   80   81 1    
   158   80   82 1    
   159   80  201 1    
   160   81  202 1    
   161   81  203 1    
   162   81  204 1    
   163   82   83 2    
   164   82   84 am   BACKBONE|DICT|INTERRES
   165   84   85 1    
   166   84  205 1    
   167   85   86 1    
   168   85   87 1    
   169   85  206 1    
   170   86  207 1    
   171   86  208 1    
   172   86  209 1    
   173   87   88 2    
   174   87   89 am   BACKBONE|DICT|INTERRES
   175   89   90 1    
   176   89  210 1    
   177   90   91 1    
   178   90   92 1    
   179   90  211 1    
   180   91  212 1    
   181   91  213 1    
   182   91  214 1    
   183   92   93 2    
   184   92   94 am   BACKBONE|DICT|INTERRES
   185   94   95 1    
   186   94  215 1    
   187   95   96 1    
   188   95   97 1    
   189   95  216 1    
   190   96  217 1    
   191   96  218 1    
   192   96  219 1    
   193   97   98 2    
   194   97   99 am   BACKBONE|DICT|INTERRES
   195   99  100 1    
   196   99  220 1    
   197  100  101 1    
   198  100  102 1    
   199  100  221 1    
   200  101  222 1    
   201  101  223 1    
   202  101  224 1    
   203  102  103 2    
   204  102  104 am   BACKBONE|DICT|INTERRES
   205  104  105 1    
   206  104  225 1    
   207  105  106 1    
   208  105  107 1    
   209  105  226 1    
   210  106  227 1    
   211  106  228 1    
   212  106  229 1    
   213  107  108 2    
   214  107  109 am   BACKBONE|DICT|INTERRES
   215  109  110 1    
   216  109  230 1    
   217  110  111 1    
   218  110  112 1    
   219  110  231 1    
   220  111  232 1    
   221  111  233 1    
   222  111  234 1    
   223  112  113 2    
   224  112  114 am   BACKBONE|DICT|INTERRES
   225  114  115 1    
   226  114  235 1    
   227  115  116 1    
   228  115  117 1    
   229  115  236 1    
   230  116  237 1    
   231  116  238 1    
   232  116  239 1    
   233  117  118 2    
   234  117  119 am   BACKBONE|DICT|INTERRES
   235  119  120 1    
   236  119  240 1    
   237  120  121 1    
   238  120  124 1    
   239  120  241 1    
   240  121  122 am   BACKBONE|DICT|INTERRES
   241  121  123 2    
   242  122  242 1    
   243  122  243 1    
   244  124  125 1    
   245  124  244 1    
   246  124  245 1    
   247  125  126 1    
   248  126  246 1    
   249  126  247 1    
@<TRIPOS>SUBSTRUCTURE
     1 UNK         1 GROUP             0       ****    0 ROOT    
