@<TRIPOS>MOLECULE
3R540
247   249    1
SMALL
USER_CHARGES


@<TRIPOS>ATOM
      1 CA          4.1092  -11.6567  -49.5810 C.3       0 UNK        -0.1800 
      2 C           3.7501  -12.6647  -48.4992 C.2       0 UNK         0.5000 
      3 O           4.2806  -12.5902  -47.3920 O.2       0 UNK        -0.5000 
      4 N           2.8435  -13.6015  -48.8079 N.am      1 UNK        -0.5000 
      5 CA          2.3715  -14.6499  -47.8921 C.3       1 UNK         0.1400 
      6 C6          1.5352  -15.7146  -48.6475 C.3       23 UNK        -0.0398 
      7 S7          1.5345  -17.3367  -47.8141 S.3       23 UNK        -0.2404 
      8 C8          1.3401  -18.4761  -49.2301 C.3       23 UNK        -0.0205 
      9 C9          0.0147  -18.3483  -49.9803 C.ar      23 UNK        -0.0193 
     10 C10        -0.0243  -18.6230  -51.3510 C.ar      23 UNK        -0.1150 
     11 C11        -1.2246  -18.5430  -52.0637 C.ar      23 UNK        -0.0193 
     12 C12        -2.3992  -18.1906  -51.3915 C.ar      23 UNK        -0.1150 
     13 C13        -2.3776  -17.9067  -50.0231 C.ar      23 UNK        -0.0193 
     14 C14        -1.1699  -17.9918  -49.3259 C.ar      23 UNK        -0.1150 
     15 C15        -3.6477  -17.4723  -49.3040 C.3       23 UNK        -0.0205 
     16 S16        -4.5648  -18.8739  -48.5886 S.3       23 UNK        -0.2404 
     17 C17        -3.4955  -19.3779  -47.2030 C.3       23 UNK        -0.0398 
     18 CA         -2.6886  -20.6641  -47.5056 C.3       11 UNK         0.1400 
     19 N          -1.4652  -20.7322  -46.6976 N.am      11 UNK        -0.5000 
     20 C          -0.5274  -21.6873  -46.8005 C.2       10 UNK         0.5000 
     21 O          -0.5614  -22.5794  -47.6470 O.2       10 UNK        -0.5000 
     22 CA          0.5998  -21.7155  -45.7503 C.3       10 UNK         0.1400 
     23 CB          1.9017  -21.1582  -46.3390 C.3       10 UNK        -0.1800 
     24 N           0.2771  -21.0070  -44.5103 N.am      10 UNK        -0.5000 
     25 C          -0.7274  -21.3231  -43.6764 C.2       9 UNK         0.5000 
     26 O          -1.4678  -22.2939  -43.8469 O.2       9 UNK        -0.5000 
     27 CA         -1.0032  -20.3607  -42.5011 C.3       9 UNK         0.1400 
     28 CB         -0.2985  -20.8545  -41.2298 C.3       9 UNK        -0.1800 
     29 N          -0.6020  -18.9754  -42.7603 N.am      9 UNK        -0.5000 
     30 C          -1.0060  -18.2247  -43.7953 C.2       8 UNK         0.5000 
     31 O          -1.8528  -18.5919  -44.6090 O.2       8 UNK        -0.5000 
     32 CA         -0.3072  -16.8684  -43.9986 C.3       8 UNK         0.1400 
     33 CB         -1.1718  -15.7312  -43.4371 C.3       8 UNK        -0.1800 
     34 N           1.0361  -16.7880  -43.4183 N.am      8 UNK        -0.5000 
     35 C           2.0786  -17.5667  -43.7449 C.2       7 UNK         0.5000 
     36 O           2.0056  -18.5280  -44.5082 O.2       7 UNK        -0.5000 
     37 CA          3.4122  -17.2607  -43.0453 C.3       7 UNK         0.1400 
     38 CB          4.0835  -16.0077  -43.6306 C.3       7 UNK        -0.1800 
     39 N           3.2142  -17.0960  -41.6072 N.am      7 UNK        -0.5000 
     40 C           3.0562  -18.1139  -40.7491 C.2       6 UNK         0.5000 
     41 O           3.1656  -19.2988  -41.0642 O.2       6 UNK        -0.5000 
     42 CA          2.6975  -17.7501  -39.2959 C.3       6 UNK         0.1400 
     43 CB          3.9698  -17.6032  -38.4476 C.3       6 UNK        -0.1800 
     44 N           1.9098  -16.5209  -39.1936 N.am      6 UNK        -0.5000 
     45 C           0.6469  -16.3840  -39.6224 C.2       5 UNK         0.5000 
     46 O          -0.0118  -17.2972  -40.1205 O.2       5 UNK        -0.5000 
     47 CA          0.0400  -14.9715  -39.5137 C.3       5 UNK         0.1400 
     48 CB         -0.6086  -14.7672  -38.1366 C.3       5 UNK        -0.1800 
     49 N           1.0180  -13.9040  -39.7546 N.am      5 UNK        -0.5000 
     50 C           1.6525  -13.7117  -40.9180 C.2       4 UNK         0.5000 
     51 O           1.4891  -14.4239  -41.9100 O.2       4 UNK        -0.5000 
     52 CA          2.6803  -12.5780  -40.9702 C.3       4 UNK         0.1400 
     53 CB          4.0566  -13.0717  -40.4903 C.3       4 UNK        -0.1800 
     54 N           2.7777  -12.1032  -42.3460 N.am      4 UNK        -0.5000 
     55 C           3.1351  -10.8676  -42.7112 C.2       3 UNK         0.5000 
     56 O           3.4830   -9.9975  -41.9111 O.2       3 UNK        -0.5000 
     57 CA          3.1006  -10.5291  -44.2161 C.3       3 UNK         0.1400 
     58 CB          4.5163  -10.5975  -44.8080 C.3       3 UNK        -0.1800 
     59 N           2.2035  -11.3663  -45.0208 N.am      3 UNK        -0.5000 
     60 C           0.8676  -11.4048  -44.8993 C.2       2 UNK         0.5000 
     61 O           0.2529  -10.7631  -44.0463 O.2       2 UNK        -0.5000 
     62 CA          0.0675  -12.2699  -45.8991 C.3       2 UNK         0.1400 
     63 CB         -0.9818  -11.4228  -46.6388 C.3       2 UNK        -0.1800 
     64 N           0.8862  -12.9581  -46.8996 N.am      2 UNK        -0.5000 
     65 C           1.5985  -14.0719  -46.6830 C.2       1 UNK         0.5000 
     66 O           1.6865  -14.6101  -45.5825 O.2       1 UNK        -0.5000 
     67 C          -3.5698  -21.9257  -47.3443 C.2       11 UNK         0.5000 
     68 O          -4.1962  -22.3669  -48.3106 O.2       11 UNK        -0.5000 
     69 N          -3.5690  -22.5013  -46.1350 N.am      12 UNK        -0.5000 
     70 CA         -4.2232  -23.7653  -45.8210 C.3       12 UNK         0.1400 
     71 CB         -4.8790  -23.6644  -44.4350 C.3       12 UNK        -0.1800 
     72 C          -3.2164  -24.9249  -45.8623 C.2       12 UNK         0.5000 
     73 O          -3.5035  -25.9507  -46.4774 O.2       12 UNK        -0.5000 
     74 N          -2.0648  -24.7514  -45.1987 N.am      13 UNK        -0.5000 
     75 CA         -1.1107  -25.8267  -44.9233 C.3       13 UNK         0.1400 
     76 CB         -0.1772  -25.3912  -43.7828 C.3       13 UNK        -0.1800 
     77 C          -0.2933  -26.3048  -46.1377 C.2       13 UNK         0.5000 
     78 O           0.1162  -27.4667  -46.1468 O.2       13 UNK        -0.5000 
     79 N          -0.0502  -25.4245  -47.1182 N.am      14 UNK        -0.5000 
     80 CA          0.7762  -25.7158  -48.2926 C.3       14 UNK         0.1400 
     81 CB          2.0176  -24.8086  -48.2869 C.3       14 UNK        -0.1800 
     82 C          -0.0188  -25.5462  -49.5939 C.2       14 UNK         0.5000 
     83 O           0.0234  -26.4328  -50.4474 O.2       14 UNK        -0.5000 
     84 N          -0.7336  -24.4206  -49.7267 N.am      15 UNK        -0.5000 
     85 CA         -1.5113  -24.0758  -50.9183 C.3       15 UNK         0.1400 
     86 CB         -1.7349  -22.5559  -50.9562 C.3       15 UNK        -0.1800 
     87 C          -2.8474  -24.8377  -51.0179 C.2       15 UNK         0.5000 
     88 O          -3.4272  -24.8717  -52.1014 O.2       15 UNK        -0.5000 
     89 N          -3.3060  -25.4420  -49.9099 N.am      16 UNK        -0.5000 
     90 CA         -4.5138  -26.2684  -49.7997 C.3       16 UNK         0.1400 
     91 CB         -4.3345  -27.5918  -50.5732 C.3       16 UNK        -0.1800 
     92 C          -5.7878  -25.4979  -50.2013 C.2       16 UNK         0.5000 
     93 O          -6.4792  -25.8857  -51.1446 O.2       16 UNK        -0.5000 
     94 N          -6.0432  -24.4022  -49.4735 N.am      17 UNK        -0.5000 
     95 CA         -7.1101  -23.4190  -49.6768 C.3       17 UNK         0.1400 
     96 CB         -8.5142  -24.0605  -49.7158 C.3       17 UNK        -0.1800 
     97 C          -6.8000  -22.5149  -50.8822 C.2       17 UNK         0.5000 
     98 O          -7.5568  -22.4683  -51.8538 O.2       17 UNK        -0.5000 
     99 N          -5.6673  -21.8083  -50.7715 N.am      18 UNK        -0.5000 
    100 CA        -5.1935  -20.7266  -51.6424 C.3       18 UNK         0.1400 
    101 CB        -6.2155  -19.5684  -51.6803 C.3       18 UNK        -0.1800 
    102 C         -4.7878  -21.1408  -53.0681 C.2       18 UNK         0.5000 
    103 O         -4.5381  -20.2540  -53.8832 O.2       18 UNK        -0.5000 
    104 N         -4.7274  -22.4471  -53.3639 N.am      19 UNK        -0.5000 
    105 CA        -4.3476  -23.0435  -54.6526 C.3       19 UNK         0.1400 
    106 CB        -2.8232  -22.9258  -54.8642 C.3       19 UNK        -0.1800 
    107 C         -5.1607  -22.4978  -55.8484 C.2       19 UNK         0.5000 
    108 O         -4.5974  -22.2486  -56.9160 O.2       19 UNK        -0.5000 
    109 N         -6.4668  -22.2797  -55.6258 N.am      20 UNK        -0.5000 
    110 CA        -7.4246  -21.6659  -56.5550 C.3       20 UNK         0.1400 
    111 CB        -7.6997  -22.6018  -57.7509 C.3       20 UNK        -0.1800 
    112 C         -7.0045  -20.2401  -56.9808 C.2       20 UNK         0.5000 
    113 O         -7.0394  -19.9103  -58.1675 O.2       20 UNK        -0.5000 
    114 N         -6.5996  -19.4369  -55.9855 N.am      21 UNK        -0.5000 
    115 CA        -6.0307  -18.0893  -56.0956 C.3       21 UNK         0.1400 
    116 CB        -7.0235  -17.0990  -56.7415 C.3       21 UNK        -0.1800 
    117 C         -4.6417  -18.1052  -56.7661 C.2       21 UNK         0.5000 
    118 O         -4.3853  -17.3397  -57.6978 O.2       21 UNK        -0.5000 
    119 N         -3.7716  -18.9804  -56.2481 N.am      22 UNK        -0.5000 
    120 CA        -2.3638  -19.1602  -56.6341 C.3       22 UNK         0.1400 
    121 C         -2.1697  -19.6405  -58.1032 C.2       22 UNK         0.5000 
    122 N         -2.9749  -20.5810  -58.5802 N.am      22 UNK        -0.7600 
    123 O         -1.2822  -19.1781  -58.8161 O.2       22 UNK        -0.5000 
    124 C124       -1.4660  -17.9455  -56.2561 C.3       23 UNK        -0.0398 
    125 S125       -1.6374  -17.3532  -54.5322 S.3       23 UNK        -0.2404 
    126 C126       -1.2553  -18.8437  -53.5558 C.3       23 UNK        -0.0205 
    127 H127        3.8834  -10.6461  -49.2406 H         1 UNK         0.0600 
    128 H128        3.5568  -11.8369  -50.5035 H         1 UNK         0.0600 
    129 H129        5.1743  -11.7119  -49.8056 H         1 UNK         0.0600 
    130 H130        2.4441  -13.6111  -49.7358 H         1 UNK         0.3000 
    131 H131        3.2653  -15.1371  -47.4956 H         1 UNK         0.0600 
    132 H132        0.5057  -15.3856  -48.8008 H         1 UNK         0.0800 
    133 H133        1.9501  -15.8651  -49.6452 H         1 UNK         0.0800 
    134 H134        2.1776  -18.3246  -49.9127 H         1 UNK         0.0800 
    135 H135        1.4227  -19.5009  -48.8682 H         1 UNK         0.0800 
    136 H136        0.8842  -18.9035  -51.8654 H         1 UNK         0.1150 
    137 H137       -3.3266  -18.1217  -51.9426 H         1 UNK         0.1150 
    138 H138       -1.1528  -17.7749  -48.2687 H         1 UNK         0.1150 
    139 H139       -3.4125  -16.7486  -48.5221 H         1 UNK         0.0800 
    140 H140       -4.3034  -16.9529  -50.0045 H         1 UNK         0.0800 
    141 H141       -4.1056  -19.4930  -46.3051 H         1 UNK         0.0800 
    142 H142       -2.8251  -18.5488  -46.9837 H         1 UNK         0.0800 
    143 H143       -2.3588  -20.6233  -48.5447 H         1 UNK         0.0600 
    144 H144       -1.3830  -20.0431  -45.9571 H         1 UNK         0.3000 
    145 H145        0.7725  -22.7619  -45.4977 H         1 UNK         0.0600 
    146 H146        2.7270  -21.2544  -45.6334 H         1 UNK         0.0600 
    147 H147        2.1864  -21.6889  -47.2476 H         1 UNK         0.0600 
    148 H148        1.8031  -20.1042  -46.5944 H         1 UNK         0.0600 
    149 H149        0.8205  -20.1684  -44.3260 H         1 UNK         0.3000 
    150 H150       -2.0802  -20.3626  -42.3232 H         1 UNK         0.0600 
    151 H151       -0.6006  -21.8738  -40.9854 H         1 UNK         0.0600 
    152 H152       -0.5450  -20.2273  -40.3727 H         1 UNK         0.0600 
    153 H153        0.7860  -20.8511  -41.3461 H         1 UNK         0.0600 
    154 H154        0.0626  -18.5672  -42.1159 H         1 UNK         0.3000 
    155 H155       -0.2008  -16.7171  -45.0746 H         1 UNK         0.0600 
    156 H156       -0.7079  -14.7603  -43.6103 H         1 UNK         0.0600 
    157 H157       -1.3280  -15.8430  -42.3644 H         1 UNK         0.0600 
    158 H158       -2.1528  -15.7141  -43.9133 H         1 UNK         0.0600 
    159 H159        1.2058  -15.9903  -42.8103 H         1 UNK         0.3000 
    160 H160        4.0826  -18.1058  -43.2165 H         1 UNK         0.0600 
    161 H161        3.4809  -15.1120  -43.4828 H         1 UNK         0.0600 
    162 H162        4.2390  -16.1179  -44.7046 H         1 UNK         0.0600 
    163 H163        5.0583  -15.8334  -43.1753 H         1 UNK         0.0600 
    164 H164        3.0544  -16.1558  -41.2778 H         1 UNK         0.3000 
    165 H165        2.1039  -18.5701  -38.8860 H         1 UNK         0.0600 
    166 H166        3.7271  -17.4177  -37.4011 H         1 UNK         0.0600 
    167 H167        4.5703  -18.5132  -38.4842 H         1 UNK         0.0600 
    168 H168        4.5961  -16.7821  -38.7988 H         1 UNK         0.0600 
    169 H169        2.3696  -15.7174  -38.7920 H         1 UNK         0.3000 
    170 H170       -0.7410  -14.8869  -40.2713 H         1 UNK         0.0600 
    171 H171       -1.3561  -15.5369  -37.9395 H         1 UNK         0.0600 
    172 H172        0.1274  -14.8108  -37.3328 H         1 UNK         0.0600 
    173 H173       -1.1142  -13.8031  -38.0778 H         1 UNK         0.0600 
    174 H174        1.2095  -13.2847  -38.9800 H         1 UNK         0.3000 
    175 H175        2.3326  -11.7677  -40.3258 H         1 UNK         0.0600 
    176 H176        4.4363  -13.8774  -41.1201 H         1 UNK         0.0600 
    177 H177        4.7908  -12.2661  -40.5018 H         1 UNK         0.0600 
    178 H178        4.0059  -13.4476  -39.4678 H         1 UNK         0.0600 
    179 H179        2.4555  -12.7606  -43.0458 H         1 UNK         0.3000 
    180 H180        2.7500   -9.4987  -44.3023 H         1 UNK         0.0600 
    181 H181        4.9096  -11.6148  -44.7880 H         1 UNK         0.0600 
    182 H182        5.2080   -9.9664  -44.2484 H         1 UNK         0.0600 
    183 H183        4.5289  -10.2523  -45.8420 H         1 UNK         0.0600 
    184 H184        2.6389  -11.9287  -45.7400 H         1 UNK         0.3000 
    185 H185       -0.4628  -13.0223  -45.3124 H         1 UNK         0.0600 
    186 H186       -1.6641  -10.9389  -45.9387 H         1 UNK         0.0600 
    187 H187       -0.5156  -10.6395  -47.2376 H         1 UNK         0.0600 
    188 H188       -1.5887  -12.0382  -47.3032 H         1 UNK         0.0600 
    189 H189        0.9008  -12.5532  -47.8243 H         1 UNK         0.3000 
    190 H190       -2.9908  -22.1015  -45.4065 H         1 UNK         0.3000 
    191 H191       -5.0121  -23.9767  -46.5457 H         1 UNK         0.0600 
    192 H192       -5.6391  -22.8832  -44.4179 H         1 UNK         0.0600 
    193 H193       -5.3692  -24.6008  -44.1656 H         1 UNK         0.0600 
    194 H194       -4.1507  -23.4376  -43.6551 H         1 UNK         0.0600 
    195 H195       -1.9006  -23.8734  -44.7122 H         1 UNK         0.3000 
    196 H196       -1.6809  -26.6876  -44.5672 H         1 UNK         0.0600 
    197 H197        0.5057  -26.1959  -43.5075 H         1 UNK         0.0600 
    198 H198       -0.7430  -25.1267  -42.8892 H         1 UNK         0.0600 
    199 H199        0.4289  -24.5298  -44.0603 H         1 UNK         0.0600 
    200 H200       -0.4396  -24.4909  -47.0596 H         1 UNK         0.3000 
    201 H201        1.1287  -26.7490  -48.2708 H         1 UNK         0.0600 
    202 H202        2.5966  -24.9388  -47.3726 H         1 UNK         0.0600 
    203 H203        1.7524  -23.7551  -48.3682 H         1 UNK         0.0600 
    204 H204        2.6747  -25.0444  -49.1249 H         1 UNK         0.0600 
    205 H205       -0.6955  -23.7183  -48.9894 H         1 UNK         0.3000 
    206 H206       -0.9217  -24.3430  -51.7978 H         1 UNK         0.0600 
    207 H207       -0.7990  -22.0095  -50.8363 H         1 UNK         0.0600 
    208 H208       -2.1682  -22.2477  -51.9071 H         1 UNK         0.0600 
    209 H209       -2.4139  -22.2332  -50.1717 H         1 UNK         0.0600 
    210 H210       -2.7613  -25.3457  -49.0650 H         1 UNK         0.3000 
    211 H211       -4.6292  -26.5258  -48.7470 H         1 UNK         0.0600 
    212 H212       -4.2324  -27.4278  -51.6464 H         1 UNK         0.0600 
    213 H213       -5.1917  -28.2491  -50.4235 H         1 UNK         0.0600 
    214 H214       -3.4497  -28.1290  -50.2317 H         1 UNK         0.0600 
    215 H215       -5.3468  -24.1235  -48.7929 H         1 UNK         0.3000 
    216 H216       -7.0868  -22.7721  -48.7981 H         1 UNK         0.0600 
    217 H217       -9.2867  -23.2910  -49.7030 H         1 UNK         0.0600 
    218 H218       -8.6797  -24.7018  -48.8502 H         1 UNK         0.0600 
    219 H219       -8.6741  -24.6576  -50.6135 H         1 UNK         0.0600 
    220 H220       -5.1075  -21.9619  -49.9357 H         1 UNK         0.3000 
    221 H221       -4.2823  -20.3567  -51.1728 H         1 UNK         0.0600 
    222 H222       -6.5617  -19.3043  -50.6820 H         1 UNK         0.0600 
    223 H223       -5.7758  -18.6711  -52.1168 H         1 UNK         0.0600 
    224 H224       -7.0926  -19.8226  -52.2761 H         1 UNK         0.0600 
    225 H225       -4.9361  -23.1104  -52.6294 H         1 UNK         0.3000 
    226 H226       -4.5897  -24.1050  -54.5858 H         1 UNK         0.0600 
    227 H227       -2.2751  -23.4309  -54.0702 H         1 UNK         0.0600 
    228 H228       -2.5147  -23.3857  -55.8037 H         1 UNK         0.0600 
    229 H229       -2.4977  -21.8877  -54.8811 H         1 UNK         0.0600 
    230 H230       -6.8251  -22.4966  -54.7051 H         1 UNK         0.3000 
    231 H231       -8.3599  -21.5552  -56.0045 H         1 UNK         0.0600 
    232 H232       -6.8186  -22.7271  -58.3810 H         1 UNK         0.0600 
    233 H233       -8.4972  -22.2058  -58.3805 H         1 UNK         0.0600 
    234 H234       -8.0139  -23.5896  -57.4139 H         1 UNK         0.0600 
    235 H235       -6.5427  -19.8419  -55.0613 H         1 UNK         0.3000 
    236 H236       -5.8634  -17.7523  -55.0713 H         1 UNK         0.0600 
    237 H237       -7.9867  -17.1173  -56.2319 H         1 UNK         0.0600 
    238 H238       -6.6441  -16.0783  -56.6818 H         1 UNK         0.0600 
    239 H239       -7.1958  -17.3179  -57.7954 H         1 UNK         0.0600 
    240 H240       -4.0810  -19.5432  -55.4577 H         1 UNK         0.3000 
    241 H241       -2.0059  -20.0008  -56.0438 H         1 UNK         0.0600 
    242 H242       -2.8579  -20.8985  -59.5287 H         1 UNK         0.3800 
    243 H243       -3.6658  -21.0319  -57.9834 H         1 UNK         0.3800 
    244 H244       -0.4155  -18.1906  -56.4204 H         1 UNK         0.0800 
    245 H245       -1.6836  -17.1041  -56.9157 H         1 UNK         0.0800 
    246 H246       -2.0063  -19.6105  -53.7399 H         1 UNK         0.0800 
    247 H247       -0.3009  -19.2555  -53.8872 H         1 UNK         0.0800 
@<TRIPOS>BOND
     1    1    2 1    
     2    1  127 1    
     3    1  128 1    
     4    1  129 1    
     5    2    3 2    
     6    2    4 am   BACKBONE|DICT|INTERRES
     7    4    5 1    
     8    4  130 1    
     9    5    6 1    
    10    5   65 1    
    11    5  131 1    
    12    6    7 1    
    13    6  132 1    
    14    6  133 1    
    15    7    8 1    
    16    8    9 1    
    17    8  134 1    
    18    8  135 1    
    19    9   10 ar   
    20    9   14 ar   
    21   10   11 ar   
    22   10  136 1    
    23   11   12 ar   
    24   11  126 1    
    25   12   13 ar   
    26   12  137 1    
    27   13   14 ar   
    28   13   15 1    
    29   14  138 1    
    30   15   16 1    
    31   15  139 1    
    32   15  140 1    
    33   16   17 1    
    34   17   18 1    
    35   17  141 1    
    36   17  142 1    
    37   18   19 1    
    38   18   67 1    
    39   18  143 1    
    40   19   20 am   BACKBONE|DICT|INTERRES
    41   19  144 1    
    42   20   21 2    
    43   20   22 1    
    44   22   23 1    
    45   22   24 1    
    46   22  145 1    
    47   23  146 1    
    48   23  147 1    
    49   23  148 1    
    50   24   25 am   BACKBONE|DICT|INTERRES
    51   24  149 1    
    52   25   26 2    
    53   25   27 1    
    54   27   28 1    
    55   27   29 1    
    56   27  150 1    
    57   28  151 1    
    58   28  152 1    
    59   28  153 1    
    60   29   30 am   BACKBONE|DICT|INTERRES
    61   29  154 1    
    62   30   31 2    
    63   30   32 1    
    64   32   33 1    
    65   32   34 1    
    66   32  155 1    
    67   33  156 1    
    68   33  157 1    
    69   33  158 1    
    70   34   35 am   BACKBONE|DICT|INTERRES
    71   34  159 1    
    72   35   36 2    
    73   35   37 1    
    74   37   38 1    
    75   37   39 1    
    76   37  160 1    
    77   38  161 1    
    78   38  162 1    
    79   38  163 1    
    80   39   40 am   BACKBONE|DICT|INTERRES
    81   39  164 1    
    82   40   41 2    
    83   40   42 1    
    84   42   43 1    
    85   42   44 1    
    86   42  165 1    
    87   43  166 1    
    88   43  167 1    
    89   43  168 1    
    90   44   45 am   BACKBONE|DICT|INTERRES
    91   44  169 1    
    92   45   46 2    
    93   45   47 1    
    94   47   48 1    
    95   47   49 1    
    96   47  170 1    
    97   48  171 1    
    98   48  172 1    
    99   48  173 1    
   100   49   50 am   BACKBONE|DICT|INTERRES
   101   49  174 1    
   102   50   51 2    
   103   50   52 1    
   104   52   53 1    
   105   52   54 1    
   106   52  175 1    
   107   53  176 1    
   108   53  177 1    
   109   53  178 1    
   110   54   55 am   BACKBONE|DICT|INTERRES
   111   54  179 1    
   112   55   56 2    
   113   55   57 1    
   114   57   58 1    
   115   57   59 1    
   116   57  180 1    
   117   58  181 1    
   118   58  182 1    
   119   58  183 1    
   120   59   60 am   BACKBONE|DICT|INTERRES
   121   59  184 1    
   122   60   61 2    
   123   60   62 1    
   124   62   63 1    
   125   62   64 1    
   126   62  185 1    
   127   63  186 1    
   128   63  187 1    
   129   63  188 1    
   130   64   65 am   BACKBONE|DICT|INTERRES
   131   64  189 1    
   132   65   66 2    
   133   67   68 2    
   134   67   69 am   BACKBONE|DICT|INTERRES
   135   69   70 1    
   136   69  190 1    
   137   70   71 1    
   138   70   72 1    
   139   70  191 1    
   140   71  192 1    
   141   71  193 1    
   142   71  194 1    
   143   72   73 2    
   144   72   74 am   BACKBONE|DICT|INTERRES
   145   74   75 1    
   146   74  195 1    
   147   75   76 1    
   148   75   77 1    
   149   75  196 1    
   150   76  197 1    
   151   76  198 1    
   152   76  199 1    
   153   77   78 2    
   154   77   79 am   BACKBONE|DICT|INTERRES
   155   79   80 1    
   156   79  200 1    
   157   80   81 1    
   158   80   82 1    
   159   80  201 1    
   160   81  202 1    
   161   81  203 1    
   162   81  204 1    
   163   82   83 2    
   164   82   84 am   BACKBONE|DICT|INTERRES
   165   84   85 1    
   166   84  205 1    
   167   85   86 1    
   168   85   87 1    
   169   85  206 1    
   170   86  207 1    
   171   86  208 1    
   172   86  209 1    
   173   87   88 2    
   174   87   89 am   BACKBONE|DICT|INTERRES
   175   89   90 1    
   176   89  210 1    
   177   90   91 1    
   178   90   92 1    
   179   90  211 1    
   180   91  212 1    
   181   91  213 1    
   182   91  214 1    
   183   92   93 2    
   184   92   94 am   BACKBONE|DICT|INTERRES
   185   94   95 1    
   186   94  215 1    
   187   95   96 1    
   188   95   97 1    
   189   95  216 1    
   190   96  217 1    
   191   96  218 1    
   192   96  219 1    
   193   97   98 2    
   194   97   99 am   BACKBONE|DICT|INTERRES
   195   99  100 1    
   196   99  220 1    
   197  100  101 1    
   198  100  102 1    
   199  100  221 1    
   200  101  222 1    
   201  101  223 1    
   202  101  224 1    
   203  102  103 2    
   204  102  104 am   BACKBONE|DICT|INTERRES
   205  104  105 1    
   206  104  225 1    
   207  105  106 1    
   208  105  107 1    
   209  105  226 1    
   210  106  227 1    
   211  106  228 1    
   212  106  229 1    
   213  107  108 2    
   214  107  109 am   BACKBONE|DICT|INTERRES
   215  109  110 1    
   216  109  230 1    
   217  110  111 1    
   218  110  112 1    
   219  110  231 1    
   220  111  232 1    
   221  111  233 1    
   222  111  234 1    
   223  112  113 2    
   224  112  114 am   BACKBONE|DICT|INTERRES
   225  114  115 1    
   226  114  235 1    
   227  115  116 1    
   228  115  117 1    
   229  115  236 1    
   230  116  237 1    
   231  116  238 1    
   232  116  239 1    
   233  117  118 2    
   234  117  119 am   BACKBONE|DICT|INTERRES
   235  119  120 1    
   236  119  240 1    
   237  120  121 1    
   238  120  124 1    
   239  120  241 1    
   240  121  122 am   BACKBONE|DICT|INTERRES
   241  121  123 2    
   242  122  242 1    
   243  122  243 1    
   244  124  125 1    
   245  124  244 1    
   246  124  245 1    
   247  125  126 1    
   248  126  246 1    
   249  126  247 1    
@<TRIPOS>SUBSTRUCTURE
     1 UNK         1 GROUP             0       ****    0 ROOT    
