@<TRIPOS>MOLECULE
3R540
247   249    1
SMALL
USER_CHARGES


@<TRIPOS>ATOM
      1 CA          0.6653  -13.2818  -50.8423 C.3       0 UNK        -0.1800 
      2 C           0.3257  -13.3306  -49.3593 C.2       0 UNK         0.5000 
      3 O           1.2247  -13.2537  -48.5219 O.2       0 UNK        -0.5000 
      4 N          -0.9642  -13.4739  -49.0349 N.am      1 UNK        -0.5000 
      5 CA         -1.4778  -13.5197  -47.6639 C.3       1 UNK         0.1400 
      6 C6         -2.8923  -14.1435  -47.5970 C.3       23 UNK        -0.0398 
      7 S7         -2.8142  -15.9485  -47.8054 S.3       23 UNK        -0.2404 
      8 C8         -3.3701  -16.1674  -49.5198 C.3       23 UNK        -0.0205 
      9 C9         -3.0810  -17.5891  -49.9622 C.ar      23 UNK        -0.0193 
     10 C10        -1.9116  -17.8799  -50.6696 C.ar      23 UNK        -0.1150 
     11 C11        -1.5971  -19.1992  -51.0048 C.ar      23 UNK        -0.0193 
     12 C12        -2.4703  -20.2263  -50.6382 C.ar      23 UNK        -0.1150 
     13 C13        -3.6445  -19.9469  -49.9341 C.ar      23 UNK        -0.0193 
     14 C14        -3.9509  -18.6238  -49.6088 C.ar      23 UNK        -0.1150 
     15 C15        -4.5535  -21.0843  -49.4910 C.3       23 UNK        -0.0205 
     16 S16        -4.7265  -21.2220  -47.6758 S.3       23 UNK        -0.2404 
     17 C17        -3.0124  -21.1033  -47.0431 C.3       23 UNK        -0.0398 
     18 CA         -2.3751  -22.4323  -46.5697 C.3       11 UNK         0.1400 
     19 N          -0.9612  -22.2379  -46.2376 N.am      11 UNK        -0.5000 
     20 C          -0.0941  -23.2092  -45.9220 C.2       10 UNK         0.5000 
     21 O          -0.3723  -24.4087  -45.9356 O.2       10 UNK        -0.5000 
     22 CA          1.3107  -22.7623  -45.4762 C.3       10 UNK         0.1400 
     23 CB          2.2123  -22.4992  -46.6908 C.3       10 UNK        -0.1800 
     24 N           1.2868  -21.5761  -44.6164 N.am      10 UNK        -0.5000 
     25 C           0.7334  -21.5390  -43.3956 C.2       9 UNK         0.5000 
     26 O           0.1935  -22.5068  -42.8642 O.2       9 UNK        -0.5000 
     27 CA          0.7318  -20.1874  -42.6609 C.3       9 UNK         0.1400 
     28 CB          2.1191  -19.8671  -42.0855 C.3       9 UNK        -0.1800 
     29 N           0.2824  -19.0886  -43.5124 N.am      9 UNK        -0.5000 
     30 C          -0.9326  -19.0058  -44.0728 C.2       8 UNK         0.5000 
     31 O          -1.8295  -19.8312  -43.8971 O.2       8 UNK        -0.5000 
     32 CA         -1.1617  -17.8284  -45.0349 C.3       8 UNK         0.1400 
     33 CB         -1.4726  -16.5353  -44.2630 C.3       8 UNK        -0.1800 
     34 N          -0.0150  -17.6130  -45.9173 N.am      8 UNK        -0.5000 
     35 C           0.3947  -18.4789  -46.8558 C.2       7 UNK         0.5000 
     36 O          -0.1514  -19.5570  -47.0846 O.2       7 UNK        -0.5000 
     37 CA          1.6697  -18.0955  -47.6262 C.3       7 UNK         0.1400 
     38 CB          1.3591  -17.0353  -48.6929 C.3       7 UNK        -0.1800 
     39 N           2.7223  -17.5982  -46.7396 N.am      7 UNK        -0.5000 
     40 C           3.3282  -18.3296  -45.7927 C.2       6 UNK         0.5000 
     41 O           3.0984  -19.5219  -45.5952 O.2       6 UNK        -0.5000 
     42 CA          4.3226  -17.5888  -44.8796 C.3       6 UNK         0.1400 
     43 CB          5.7236  -17.5696  -45.5085 C.3       6 UNK        -0.1800 
     44 N           3.9072  -16.2175  -44.5707 N.am      6 UNK        -0.5000 
     45 C           2.7913  -15.8964  -43.9032 C.2       5 UNK         0.5000 
     46 O           1.9784  -16.7261  -43.4888 O.2       5 UNK        -0.5000 
     47 CA          2.5046  -14.3942  -43.7374 C.3       5 UNK         0.1400 
     48 CB          1.6844  -13.8926  -44.9339 C.3       5 UNK        -0.1800 
     49 N           1.7797  -14.1045  -42.4987 N.am      5 UNK        -0.5000 
     50 C           2.3028  -14.2366  -41.2703 C.2       4 UNK         0.5000 
     51 O           3.4795  -14.5450  -41.0689 O.2       4 UNK        -0.5000 
     52 CA          1.3581  -13.9965  -40.0699 C.3       4 UNK         0.1400 
     53 CB          2.1118  -13.6180  -38.7769 C.3       4 UNK        -0.1800 
     54 N           0.2772  -13.0414  -40.3415 N.am      4 UNK        -0.5000 
     55 C           0.3966  -11.7432  -40.6544 C.2       3 UNK         0.5000 
     56 O           1.4683  -11.1407  -40.7439 O.2       3 UNK        -0.5000 
     57 CA         -0.9220  -11.0025  -40.9563 C.3       3 UNK         0.1400 
     58 CB         -1.0474   -9.7210  -40.1162 C.3       3 UNK        -0.1800 
     59 N          -1.0484  -10.6616  -42.3749 N.am      3 UNK        -0.5000 
     60 C          -1.0253  -11.5420  -43.3832 C.2       2 UNK         0.5000 
     61 O          -0.9225  -12.7646  -43.2230 O.2       2 UNK        -0.5000 
     62 CA         -1.1324  -10.9682  -44.8070 C.3       2 UNK         0.1400 
     63 CB          0.0588  -10.0468  -45.1420 C.3       2 UNK        -0.1800 
     64 N          -1.1789  -12.1076  -45.7133 N.am      2 UNK        -0.5000 
     65 C          -1.4657  -12.1218  -47.0160 C.2       1 UNK         0.5000 
     66 O          -1.7445  -11.1205  -47.6802 O.2       1 UNK        -0.5000 
     67 C          -3.1485  -23.0854  -45.4030 C.2       11 UNK         0.5000 
     68 O          -3.9053  -24.0309  -45.6269 O.2       11 UNK        -0.5000 
     69 N          -2.9150  -22.5947  -44.1776 N.am      12 UNK        -0.5000 
     70 CA         -3.5107  -23.1213  -42.9518 C.3       12 UNK         0.1400 
     71 CB         -3.3157  -22.1044  -41.8163 C.3       12 UNK        -0.1800 
     72 C          -2.9530  -24.5005  -42.5517 C.2       12 UNK         0.5000 
     73 O          -3.7309  -25.3837  -42.1882 O.2       12 UNK        -0.5000 
     74 N          -1.6227  -24.6550  -42.5985 N.am      13 UNK        -0.5000 
     75 CA         -0.9136  -25.8540  -42.1485 C.3       13 UNK         0.1400 
     76 CB          0.5743  -25.5252  -41.9508 C.3       13 UNK        -0.1800 
     77 C          -1.0680  -27.0583  -43.0920 C.2       13 UNK         0.5000 
     78 O          -1.1452  -28.1897  -42.6099 O.2       13 UNK        -0.5000 
     79 N          -1.0892  -26.8028  -44.4047 N.am      14 UNK        -0.5000 
     80 CA         -1.1736  -27.8165  -45.4487 C.3       14 UNK         0.1400 
     81 CB          0.1791  -27.8990  -46.1858 C.3       14 UNK        -0.1800 
     82 C          -2.3625  -27.4879  -46.3620 C.2       14 UNK         0.5000 
     83 O          -3.4905  -27.8642  -46.0397 O.2       14 UNK        -0.5000 
     84 N          -2.0940  -26.8039  -47.4781 N.am      15 UNK        -0.5000 
     85 CA         -3.0789  -26.3875  -48.4731 C.3       15 UNK         0.1400 
     86 CB         -3.5696  -27.5838  -49.3114 C.3       15 UNK        -0.1800 
     87 C          -2.4770  -25.3022  -49.3700 C.2       15 UNK         0.5000 
     88 O          -3.1249  -24.2832  -49.5913 O.2       15 UNK        -0.5000 
     89 N          -1.2378  -25.5296  -49.8395 N.am      16 UNK        -0.5000 
     90 CA         -0.4156  -24.6012  -50.6293 C.3       16 UNK         0.1400 
     91 CB          0.0469  -23.4234  -49.7452 C.3       16 UNK        -0.1800 
     92 C          -1.0930  -24.1354  -51.9374 C.2       16 UNK         0.5000 
     93 O          -0.9991  -22.9619  -52.2914 O.2       16 UNK        -0.5000 
     94 N          -1.7741  -25.0685  -52.6193 N.am      17 UNK        -0.5000 
     95 CA         -2.6653  -24.8465  -53.7620 C.3       17 UNK         0.1400 
     96 CB         -1.9208  -24.2455  -54.9784 C.3       17 UNK        -0.1800 
     97 C          -3.9166  -24.0592  -53.3232 C.2       17 UNK         0.5000 
     98 O          -4.7616  -24.6311  -52.6322 O.2       17 UNK        -0.5000 
     99 N          -4.0270  -22.7891  -53.7243 N.am      18 UNK        -0.5000 
    100 CA        -5.1253  -21.8882  -53.3962 C.3       18 UNK         0.1400 
    101 CB        -6.3642  -22.2298  -54.2463 C.3       18 UNK        -0.1800 
    102 C         -4.6785  -20.4478  -53.6663 C.2       18 UNK         0.5000 
    103 O         -3.7701  -20.2310  -54.4724 O.2       18 UNK        -0.5000 
    104 N         -5.3718  -19.4814  -53.0496 N.am      19 UNK        -0.5000 
    105 CA        -5.1282  -18.0433  -53.2110 C.3       19 UNK         0.1400 
    106 CB        -6.0872  -17.2609  -52.3010 C.3       19 UNK        -0.1800 
    107 C         -5.2637  -17.5565  -54.6673 C.2       19 UNK         0.5000 
    108 O         -4.5328  -16.6568  -55.0800 O.2       19 UNK        -0.5000 
    109 N         -6.1641  -18.1935  -55.4290 N.am      20 UNK        -0.5000 
    110 CA        -6.3750  -17.9560  -56.8574 C.3       20 UNK         0.1400 
    111 CB        -7.6554  -18.6818  -57.2979 C.3       20 UNK        -0.1800 
    112 C         -5.1829  -18.3865  -57.7361 C.2       20 UNK         0.5000 
    113 O         -4.9907  -17.8106  -58.8077 O.2       20 UNK        -0.5000 
    114 N         -4.4067  -19.3778  -57.2752 N.am      21 UNK        -0.5000 
    115 CA        -3.1754  -19.8248  -57.9242 C.3       21 UNK         0.1400 
    116 CB        -2.9355  -21.3116  -57.6121 C.3       21 UNK        -0.1800 
    117 C         -1.9786  -18.9679  -57.4788 C.2       21 UNK         0.5000 
    118 O         -1.1498  -18.6042  -58.3145 O.2       21 UNK        -0.5000 
    119 N         -1.9134  -18.6614  -56.1766 N.am      22 UNK        -0.5000 
    120 CA        -0.8554  -17.8446  -55.5616 C.3       22 UNK         0.1400 
    121 C         -0.8962  -16.3423  -55.9586 C.2       22 UNK         0.5000 
    122 N         -2.0634  -15.7414  -56.1502 N.am      22 UNK        -0.7600 
    123 O          0.1493  -15.7141  -56.1001 O.2       22 UNK        -0.5000 
    124 C124       -0.8351  -17.9967  -54.0221 C.3       23 UNK        -0.0398 
    125 S125       -0.5142  -19.7163  -53.5102 S.3       23 UNK        -0.2404 
    126 C126       -0.2924  -19.5239  -51.7163 C.3       23 UNK        -0.0205 
    127 H127        1.3445  -14.0954  -51.0970 H         1 UNK         0.0600 
    128 H128       -0.2242  -13.3743  -51.4660 H         1 UNK         0.0600 
    129 H129        1.1546  -12.3384  -51.0843 H         1 UNK         0.0600 
    130 H130       -1.6599  -13.4860  -49.7652 H         1 UNK         0.3000 
    131 H131       -0.8019  -14.1516  -47.0821 H         1 UNK         0.0600 
    132 H132       -3.3530  -13.9655  -46.6233 H         1 UNK         0.0800 
    133 H133       -3.5618  -13.6980  -48.3347 H         1 UNK         0.0800 
    134 H134       -4.4379  -15.9561  -49.5930 H         1 UNK         0.0800 
    135 H135       -2.8607  -15.4577  -50.1726 H         1 UNK         0.0800 
    136 H136       -1.2322  -17.0820  -50.9329 H         1 UNK         0.1150 
    137 H137       -2.2232  -21.2486  -50.8836 H         1 UNK         0.1150 
    138 H138       -4.8455  -18.4044  -49.0433 H         1 UNK         0.1150 
    139 H139       -5.5431  -20.9333  -49.9232 H         1 UNK         0.0800 
    140 H140       -4.1950  -22.0334  -49.8861 H         1 UNK         0.0800 
    141 H141       -3.0158  -20.3778  -46.2294 H         1 UNK         0.0800 
    142 H142       -2.3768  -20.6661  -47.8103 H         1 UNK         0.0800 
    143 H143       -2.4033  -23.1295  -47.4052 H         1 UNK         0.0600 
    144 H144       -0.6264  -21.2789  -46.2596 H         1 UNK         0.3000 
    145 H145        1.7494  -23.5798  -44.9006 H         1 UNK         0.0600 
    146 H146        3.2189  -22.2188  -46.3802 H         1 UNK         0.0600 
    147 H147        2.3041  -23.3920  -47.3096 H         1 UNK         0.0600 
    148 H148        1.8203  -21.6971  -47.3178 H         1 UNK         0.0600 
    149 H149        1.7454  -20.7438  -44.9778 H         1 UNK         0.3000 
    150 H150        0.0305  -20.2644  -41.8274 H         1 UNK         0.0600 
    151 H151        2.4501  -20.6540  -41.4067 H         1 UNK         0.0600 
    152 H152        2.1066  -18.9337  -41.5222 H         1 UNK         0.0600 
    153 H153        2.8699  -19.7734  -42.8696 H         1 UNK         0.0600 
    154 H154        0.9452  -18.3350  -43.6737 H         1 UNK         0.3000 
    155 H155       -2.0248  -18.0696  -45.6588 H         1 UNK         0.0600 
    156 H156       -1.6754  -15.7068  -44.9410 H         1 UNK         0.0600 
    157 H157       -0.6500  -16.2396  -43.6117 H         1 UNK         0.0600 
    158 H158       -2.3554  -16.6623  -43.6354 H         1 UNK         0.0600 
    159 H159        0.5326  -16.7830  -45.7544 H         1 UNK         0.3000 
    160 H160        2.0416  -18.9913  -48.1281 H         1 UNK         0.0600 
    161 H161        0.9914  -16.1105  -48.2473 H         1 UNK         0.0600 
    162 H162        0.5935  -17.3925  -49.3802 H         1 UNK         0.0600 
    163 H163        2.2421  -16.7962  -49.2855 H         1 UNK         0.0600 
    164 H164        2.9779  -16.6267  -46.8333 H         1 UNK         0.3000 
    165 H165        4.3800  -18.1391  -43.9384 H         1 UNK         0.0600 
    166 H166        5.7400  -17.0052  -46.4417 H         1 UNK         0.0600 
    167 H167        6.4534  -17.1236  -44.8326 H         1 UNK         0.0600 
    168 H168        6.0649  -18.5816  -45.7308 H         1 UNK         0.0600 
    169 H169        4.5198  -15.4801  -44.8884 H         1 UNK         0.3000 
    170 H170        3.4535  -13.8544  -43.7127 H         1 UNK         0.0600 
    171 H171        2.1949  -14.0900  -45.8775 H         1 UNK         0.0600 
    172 H172        0.7079  -14.3746  -44.9814 H         1 UNK         0.0600 
    173 H173        1.5295  -12.8172  -44.8744 H         1 UNK         0.0600 
    174 H174        0.8063  -13.8382  -42.5913 H         1 UNK         0.3000 
    175 H175        0.8692  -14.9548  -39.8893 H         1 UNK         0.0600 
    176 H176        1.4215  -13.4712  -37.9463 H         1 UNK         0.0600 
    177 H177        2.8060  -14.4060  -38.4828 H         1 UNK         0.0600 
    178 H178        2.6910  -12.7023  -38.8983 H         1 UNK         0.0600 
    179 H179       -0.6517  -13.4398  -40.3453 H         1 UNK         0.3000 
    180 H180       -1.7591  -11.6540  -40.6967 H         1 UNK         0.0600 
    181 H181       -0.2710   -8.9965  -40.3657 H         1 UNK         0.0600 
    182 H182       -0.9592   -9.9429  -39.0518 H         1 UNK         0.0600 
    183 H183       -2.0148   -9.2420  -40.2683 H         1 UNK         0.0600 
    184 H184       -1.1130   -9.6775  -42.5900 H         1 UNK         0.3000 
    185 H185       -2.0684  -10.4125  -44.8882 H         1 UNK         0.0600 
    186 H186       -0.0039   -9.6650  -46.1608 H         1 UNK         0.0600 
    187 H187        0.0850   -9.1797  -44.4816 H         1 UNK         0.0600 
    188 H188        1.0130  -10.5629  -45.0396 H         1 UNK         0.0600 
    189 H189       -1.0171  -12.9789  -45.2213 H         1 UNK         0.3000 
    190 H190       -2.3022  -21.7915  -44.0767 H         1 UNK         0.3000 
    191 H191       -4.5840  -23.2336  -43.1192 H         1 UNK         0.0600 
    192 H192       -3.7858  -21.1509  -42.0576 H         1 UNK         0.0600 
    193 H193       -3.7629  -22.4630  -40.8884 H         1 UNK         0.0600 
    194 H194       -2.2596  -21.9143  -41.6214 H         1 UNK         0.0600 
    195 H195       -1.0424  -23.8605  -42.8606 H         1 UNK         0.3000 
    196 H196       -1.3226  -26.1426  -41.1778 H         1 UNK         0.0600 
    197 H197        1.1247  -26.3965  -41.5937 H         1 UNK         0.0600 
    198 H198        0.7085  -24.7326  -41.2146 H         1 UNK         0.0600 
    199 H199        1.0404  -25.2005  -42.8821 H         1 UNK         0.0600 
    200 H200       -1.0255  -25.8417  -44.7285 H         1 UNK         0.3000 
    201 H201       -1.3785  -28.8007  -45.0224 H         1 UNK         0.0600 
    202 H202        0.9601  -28.2605  -45.5168 H         1 UNK         0.0600 
    203 H203        0.5028  -26.9311  -46.5697 H         1 UNK         0.0600 
    204 H204        0.1283  -28.5939  -47.0251 H         1 UNK         0.0600 
    205 H205       -1.1580  -26.4432  -47.6021 H         1 UNK         0.3000 
    206 H206       -3.9319  -25.9470  -47.9518 H         1 UNK         0.0600 
    207 H207       -4.1096  -28.3054  -48.6986 H         1 UNK         0.0600 
    208 H208       -4.2522  -27.2547  -50.0963 H         1 UNK         0.0600 
    209 H209       -2.7425  -28.1070  -49.7919 H         1 UNK         0.0600 
    210 H210       -0.8148  -26.4280  -49.6546 H         1 UNK         0.3000 
    211 H211        0.4746  -25.1549  -50.9307 H         1 UNK         0.0600 
    212 H212        0.5330  -23.7863  -48.8416 H         1 UNK         0.0600 
    213 H213       -0.7866  -22.7877  -49.4440 H         1 UNK         0.0600 
    214 H214        0.7659  -22.7938  -50.2703 H         1 UNK         0.0600 
    215 H215       -1.8087  -25.9965  -52.2228 H         1 UNK         0.3000 
    216 H216       -3.0207  -25.8330  -54.0634 H         1 UNK         0.0600 
    217 H217       -1.0861  -24.8805  -55.2748 H         1 UNK         0.0600 
    218 H218       -1.5228  -23.2492  -54.7854 H         1 UNK         0.0600 
    219 H219       -2.5864  -24.1678  -55.8390 H         1 UNK         0.0600 
    220 H220       -3.2663  -22.3504  -54.2291 H         1 UNK         0.3000 
    221 H221       -5.3622  -21.9858  -52.3351 H         1 UNK         0.0600 
    222 H222       -6.1499  -22.1557  -55.3134 H         1 UNK         0.0600 
    223 H223       -6.7189  -23.2411  -54.0474 H         1 UNK         0.0600 
    224 H224       -7.1915  -21.5533  -54.0289 H         1 UNK         0.0600 
    225 H225       -6.1169  -19.7379  -52.4190 H         1 UNK         0.3000 
    226 H226       -4.1053  -17.8445  -52.8863 H         1 UNK         0.0600 
    227 H227       -5.9824  -17.5597  -51.2589 H         1 UNK         0.0600 
    228 H228       -5.8847  -16.1903  -52.3518 H         1 UNK         0.0600 
    229 H229       -7.1284  -17.4128  -52.5878 H         1 UNK         0.0600 
    230 H230       -6.7215  -18.9186  -55.0030 H         1 UNK         0.3000 
    231 H231       -6.5209  -16.8836  -57.0033 H         1 UNK         0.0600 
    232 H232       -8.5218  -18.3294  -56.7378 H         1 UNK         0.0600 
    233 H233       -7.5766  -19.7602  -57.1535 H         1 UNK         0.0600 
    234 H234       -7.8602  -18.5062  -58.3548 H         1 UNK         0.0600 
    235 H235       -4.5893  -19.7571  -56.3550 H         1 UNK         0.3000 
    236 H236       -3.2793  -19.7259  -59.0070 H         1 UNK         0.0600 
    237 H237       -3.7817  -21.9226  -57.9265 H         1 UNK         0.0600 
    238 H238       -2.0544  -21.6800  -58.1388 H         1 UNK         0.0600 
    239 H239       -2.7733  -21.4863  -56.5487 H         1 UNK         0.0600 
    240 H240       -2.6006  -19.0585  -55.5440 H         1 UNK         0.3000 
    241 H241        0.0966  -18.2286  -55.9341 H         1 UNK         0.0600 
    242 H242       -2.0793  -14.7699  -56.4151 H         1 UNK         0.3800 
    243 H243       -2.9390  -16.2135  -55.9375 H         1 UNK         0.3800 
    244 H244       -0.0616  -17.3634  -53.5837 H         1 UNK         0.0800 
    245 H245       -1.7850  -17.6715  -53.5962 H         1 UNK         0.0800 
    246 H246        0.4579  -18.7571  -51.5191 H         1 UNK         0.0800 
    247 H247        0.1129  -20.4543  -51.3159 H         1 UNK         0.0800 
@<TRIPOS>BOND
     1    1    2 1    
     2    1  127 1    
     3    1  128 1    
     4    1  129 1    
     5    2    3 2    
     6    2    4 am   BACKBONE|DICT|INTERRES
     7    4    5 1    
     8    4  130 1    
     9    5    6 1    
    10    5   65 1    
    11    5  131 1    
    12    6    7 1    
    13    6  132 1    
    14    6  133 1    
    15    7    8 1    
    16    8    9 1    
    17    8  134 1    
    18    8  135 1    
    19    9   10 ar   
    20    9   14 ar   
    21   10   11 ar   
    22   10  136 1    
    23   11   12 ar   
    24   11  126 1    
    25   12   13 ar   
    26   12  137 1    
    27   13   14 ar   
    28   13   15 1    
    29   14  138 1    
    30   15   16 1    
    31   15  139 1    
    32   15  140 1    
    33   16   17 1    
    34   17   18 1    
    35   17  141 1    
    36   17  142 1    
    37   18   19 1    
    38   18   67 1    
    39   18  143 1    
    40   19   20 am   BACKBONE|DICT|INTERRES
    41   19  144 1    
    42   20   21 2    
    43   20   22 1    
    44   22   23 1    
    45   22   24 1    
    46   22  145 1    
    47   23  146 1    
    48   23  147 1    
    49   23  148 1    
    50   24   25 am   BACKBONE|DICT|INTERRES
    51   24  149 1    
    52   25   26 2    
    53   25   27 1    
    54   27   28 1    
    55   27   29 1    
    56   27  150 1    
    57   28  151 1    
    58   28  152 1    
    59   28  153 1    
    60   29   30 am   BACKBONE|DICT|INTERRES
    61   29  154 1    
    62   30   31 2    
    63   30   32 1    
    64   32   33 1    
    65   32   34 1    
    66   32  155 1    
    67   33  156 1    
    68   33  157 1    
    69   33  158 1    
    70   34   35 am   BACKBONE|DICT|INTERRES
    71   34  159 1    
    72   35   36 2    
    73   35   37 1    
    74   37   38 1    
    75   37   39 1    
    76   37  160 1    
    77   38  161 1    
    78   38  162 1    
    79   38  163 1    
    80   39   40 am   BACKBONE|DICT|INTERRES
    81   39  164 1    
    82   40   41 2    
    83   40   42 1    
    84   42   43 1    
    85   42   44 1    
    86   42  165 1    
    87   43  166 1    
    88   43  167 1    
    89   43  168 1    
    90   44   45 am   BACKBONE|DICT|INTERRES
    91   44  169 1    
    92   45   46 2    
    93   45   47 1    
    94   47   48 1    
    95   47   49 1    
    96   47  170 1    
    97   48  171 1    
    98   48  172 1    
    99   48  173 1    
   100   49   50 am   BACKBONE|DICT|INTERRES
   101   49  174 1    
   102   50   51 2    
   103   50   52 1    
   104   52   53 1    
   105   52   54 1    
   106   52  175 1    
   107   53  176 1    
   108   53  177 1    
   109   53  178 1    
   110   54   55 am   BACKBONE|DICT|INTERRES
   111   54  179 1    
   112   55   56 2    
   113   55   57 1    
   114   57   58 1    
   115   57   59 1    
   116   57  180 1    
   117   58  181 1    
   118   58  182 1    
   119   58  183 1    
   120   59   60 am   BACKBONE|DICT|INTERRES
   121   59  184 1    
   122   60   61 2    
   123   60   62 1    
   124   62   63 1    
   125   62   64 1    
   126   62  185 1    
   127   63  186 1    
   128   63  187 1    
   129   63  188 1    
   130   64   65 am   BACKBONE|DICT|INTERRES
   131   64  189 1    
   132   65   66 2    
   133   67   68 2    
   134   67   69 am   BACKBONE|DICT|INTERRES
   135   69   70 1    
   136   69  190 1    
   137   70   71 1    
   138   70   72 1    
   139   70  191 1    
   140   71  192 1    
   141   71  193 1    
   142   71  194 1    
   143   72   73 2    
   144   72   74 am   BACKBONE|DICT|INTERRES
   145   74   75 1    
   146   74  195 1    
   147   75   76 1    
   148   75   77 1    
   149   75  196 1    
   150   76  197 1    
   151   76  198 1    
   152   76  199 1    
   153   77   78 2    
   154   77   79 am   BACKBONE|DICT|INTERRES
   155   79   80 1    
   156   79  200 1    
   157   80   81 1    
   158   80   82 1    
   159   80  201 1    
   160   81  202 1    
   161   81  203 1    
   162   81  204 1    
   163   82   83 2    
   164   82   84 am   BACKBONE|DICT|INTERRES
   165   84   85 1    
   166   84  205 1    
   167   85   86 1    
   168   85   87 1    
   169   85  206 1    
   170   86  207 1    
   171   86  208 1    
   172   86  209 1    
   173   87   88 2    
   174   87   89 am   BACKBONE|DICT|INTERRES
   175   89   90 1    
   176   89  210 1    
   177   90   91 1    
   178   90   92 1    
   179   90  211 1    
   180   91  212 1    
   181   91  213 1    
   182   91  214 1    
   183   92   93 2    
   184   92   94 am   BACKBONE|DICT|INTERRES
   185   94   95 1    
   186   94  215 1    
   187   95   96 1    
   188   95   97 1    
   189   95  216 1    
   190   96  217 1    
   191   96  218 1    
   192   96  219 1    
   193   97   98 2    
   194   97   99 am   BACKBONE|DICT|INTERRES
   195   99  100 1    
   196   99  220 1    
   197  100  101 1    
   198  100  102 1    
   199  100  221 1    
   200  101  222 1    
   201  101  223 1    
   202  101  224 1    
   203  102  103 2    
   204  102  104 am   BACKBONE|DICT|INTERRES
   205  104  105 1    
   206  104  225 1    
   207  105  106 1    
   208  105  107 1    
   209  105  226 1    
   210  106  227 1    
   211  106  228 1    
   212  106  229 1    
   213  107  108 2    
   214  107  109 am   BACKBONE|DICT|INTERRES
   215  109  110 1    
   216  109  230 1    
   217  110  111 1    
   218  110  112 1    
   219  110  231 1    
   220  111  232 1    
   221  111  233 1    
   222  111  234 1    
   223  112  113 2    
   224  112  114 am   BACKBONE|DICT|INTERRES
   225  114  115 1    
   226  114  235 1    
   227  115  116 1    
   228  115  117 1    
   229  115  236 1    
   230  116  237 1    
   231  116  238 1    
   232  116  239 1    
   233  117  118 2    
   234  117  119 am   BACKBONE|DICT|INTERRES
   235  119  120 1    
   236  119  240 1    
   237  120  121 1    
   238  120  124 1    
   239  120  241 1    
   240  121  122 am   BACKBONE|DICT|INTERRES
   241  121  123 2    
   242  122  242 1    
   243  122  243 1    
   244  124  125 1    
   245  124  244 1    
   246  124  245 1    
   247  125  126 1    
   248  126  246 1    
   249  126  247 1    
@<TRIPOS>SUBSTRUCTURE
     1 UNK         1 GROUP             0       ****    0 ROOT    
