@<TRIPOS>MOLECULE
3R540
247   249    1
SMALL
USER_CHARGES


@<TRIPOS>ATOM
      1 CA          2.2683  -13.9292  -46.0206 C.3       0 UNK        -0.1800 
      2 C           3.1619  -14.3579  -47.1756 C.2       0 UNK         0.5000 
      3 O           3.9281  -13.5445  -47.6916 O.2       0 UNK        -0.5000 
      4 N           3.0624  -15.6291  -47.5871 N.am      1 UNK        -0.5000 
      5 CA          3.8304  -16.2144  -48.6938 C.3       1 UNK         0.1400 
      6 C6          3.1551  -17.5099  -49.2154 C.3       23 UNK        -0.0398 
      7 S7          3.5863  -17.9432  -50.9395 S.3       23 UNK        -0.2404 
      8 C8          2.8444  -16.5969  -51.9246 C.3       23 UNK        -0.0205 
      9 C9          1.3537  -16.4363  -51.6715 C.ar      23 UNK        -0.0193 
     10 C10         0.4354  -17.2742  -52.3105 C.ar      23 UNK        -0.1150 
     11 C11        -0.9335  -17.1445  -52.0607 C.ar      23 UNK        -0.0193 
     12 C12        -1.3806  -16.1578  -51.1786 C.ar      23 UNK        -0.1150 
     13 C13        -0.4712  -15.3240  -50.5237 C.ar      23 UNK        -0.0193 
     14 C14         0.8937  -15.4573  -50.7858 C.ar      23 UNK        -0.1150 
     15 C15        -0.9578  -14.3031  -49.5076 C.3       23 UNK        -0.0205 
     16 S16        -0.8152  -14.9342  -47.8037 S.3       23 UNK        -0.2404 
     17 C17        -2.0323  -16.2945  -47.8002 C.3       23 UNK        -0.0398 
     18 CA         -1.3490  -17.6799  -47.8902 C.3       11 UNK         0.1400 
     19 N          -0.5593  -17.9867  -46.6926 N.am      11 UNK        -0.5000 
     20 C           0.3221  -18.9914  -46.6093 C.2       10 UNK         0.5000 
     21 O           0.5832  -19.7487  -47.5415 O.2       10 UNK        -0.5000 
     22 CA          1.0047  -19.2110  -45.2480 C.3       10 UNK         0.1400 
     23 CB          2.2488  -18.3201  -45.1244 C.3       10 UNK        -0.1800 
     24 N           0.1385  -18.9862  -44.0877 N.am      10 UNK        -0.5000 
     25 C          -1.0265  -19.6062  -43.8419 C.2       9 UNK         0.5000 
     26 O          -1.5770  -20.3604  -44.6448 O.2       9 UNK        -0.5000 
     27 CA         -1.6750  -19.3254  -42.4677 C.3       9 UNK         0.1400 
     28 CB         -2.6970  -20.4044  -42.0531 C.3       9 UNK        -0.1800 
     29 N          -0.6821  -19.0979  -41.4055 N.am      9 UNK        -0.5000 
     30 C           0.2469  -19.9719  -40.9844 C.2       8 UNK         0.5000 
     31 O           0.3257  -21.1336  -41.3852 O.2       8 UNK        -0.5000 
     32 CA          1.3007  -19.4682  -39.9851 C.3       8 UNK         0.1400 
     33 CB          2.6578  -19.3287  -40.6912 C.3       8 UNK        -0.1800 
     34 N           0.9741  -18.1749  -39.3835 N.am      8 UNK        -0.5000 
     35 C           0.4655  -18.0232  -38.1546 C.2       7 UNK         0.5000 
     36 O           0.0517  -18.9546  -37.4632 O.2       7 UNK        -0.5000 
     37 CA          0.4446  -16.5949  -37.5902 C.3       7 UNK         0.1400 
     38 CB          1.8738  -16.1178  -37.2809 C.3       7 UNK        -0.1800 
     39 N          -0.1774  -15.6575  -38.5221 N.am      7 UNK        -0.5000 
     40 C          -1.3990  -15.1284  -38.3665 C.2       6 UNK         0.5000 
     41 O          -2.1507  -15.4040  -37.4303 O.2       6 UNK        -0.5000 
     42 CA         -1.8640  -14.1010  -39.4192 C.3       6 UNK         0.1400 
     43 CB         -1.6780  -12.6711  -38.8881 C.3       6 UNK        -0.1800 
     44 N          -1.1689  -14.2194  -40.7013 N.am      6 UNK        -0.5000 
     45 C          -1.3267  -15.2357  -41.5585 C.2       5 UNK         0.5000 
     46 O          -2.1019  -16.1714  -41.3719 O.2       5 UNK        -0.5000 
     47 CA         -0.4353  -15.2313  -42.8135 C.3       5 UNK         0.1400 
     48 CB         -1.1620  -14.5574  -43.9850 C.3       5 UNK        -0.1800 
     49 N           0.8660  -14.5869  -42.6125 N.am      5 UNK        -0.5000 
     50 C           1.8089  -15.0197  -41.7654 C.2       4 UNK         0.5000 
     51 O           1.6601  -15.9839  -41.0102 O.2       4 UNK        -0.5000 
     52 CA          3.1210  -14.2182  -41.7226 C.3       4 UNK         0.1400 
     53 CB          3.2192  -13.4274  -40.4092 C.3       4 UNK        -0.1800 
     54 N           4.2912  -15.0865  -41.8524 N.am      4 UNK        -0.5000 
     55 C           4.5905  -15.7895  -42.9513 C.2       3 UNK         0.5000 
     56 O           3.9150  -15.7646  -43.9836 O.2       3 UNK        -0.5000 
     57 CA          5.8512  -16.6721  -42.8848 C.3       3 UNK         0.1400 
     58 CB          5.5855  -17.9524  -42.0800 C.3       3 UNK        -0.1800 
     59 N           6.2691  -17.0506  -44.2325 N.am      3 UNK        -0.5000 
     60 C           6.9642  -16.2606  -45.0590 C.2       2 UNK         0.5000 
     61 O           7.5013  -15.2050  -44.7212 O.2       2 UNK        -0.5000 
     62 CA          6.9903  -16.6980  -46.5256 C.3       2 UNK         0.1400 
     63 CB          7.5337  -18.1289  -46.7103 C.3       2 UNK        -0.1800 
     64 N           5.6330  -16.5806  -47.0517 N.am      2 UNK        -0.5000 
     65 C           5.3220  -16.4303  -48.3449 C.2       1 UNK         0.5000 
     66 O           6.1620  -16.4295  -49.2460 O.2       1 UNK        -0.5000 
     67 C          -2.3835  -18.7830  -48.1961 C.2       11 UNK         0.5000 
     68 O          -2.5528  -19.1476  -49.3588 O.2       11 UNK        -0.5000 
     69 N          -3.0319  -19.3214  -47.1527 N.am      12 UNK        -0.5000 
     70 CA         -3.9942  -20.4198  -47.2663 C.3       12 UNK         0.1400 
     71 CB         -4.8217  -20.5240  -45.9771 C.3       12 UNK        -0.1800 
     72 C          -3.3057  -21.7575  -47.5841 C.2       12 UNK         0.5000 
     73 O          -3.8417  -22.5457  -48.3645 O.2       12 UNK        -0.5000 
     74 N          -2.1163  -21.9700  -47.0043 N.am      13 UNK        -0.5000 
     75 CA         -1.2444  -23.1098  -47.2812 C.3       13 UNK         0.1400 
     76 CB         -0.0790  -23.1246  -46.2810 C.3       13 UNK        -0.1800 
     77 C          -0.7318  -23.1051  -48.7324 C.2       13 UNK         0.5000 
     78 O          -0.7972  -24.1375  -49.3988 O.2       13 UNK        -0.5000 
     79 N          -0.2892  -21.9356  -49.2170 N.am      14 UNK        -0.5000 
     80 CA          0.1365  -21.7129  -50.6010 C.3       14 UNK         0.1400 
     81 CB          0.7806  -20.3265  -50.7179 C.3       14 UNK        -0.1800 
     82 C          -1.0091  -21.8696  -51.6187 C.2       14 UNK         0.5000 
     83 O          -0.7776  -22.3631  -52.7216 O.2       14 UNK        -0.5000 
     84 N          -2.2307  -21.4923  -51.2168 N.am      15 UNK        -0.5000 
     85 CA         -3.4652  -21.7202  -51.9701 C.3       15 UNK         0.1400 
     86 CB         -4.5563  -20.7700  -51.4511 C.3       15 UNK        -0.1800 
     87 C          -3.9664  -23.1771  -51.9056 C.2       15 UNK         0.5000 
     88 O          -4.9709  -23.4790  -52.5470 O.2       15 UNK        -0.5000 
     89 N          -3.3112  -24.0357  -51.1082 N.am      16 UNK        -0.5000 
     90 CA         -3.6457  -25.4381  -50.8418 C.3       16 UNK         0.1400 
     91 CB         -3.3698  -26.3051  -52.0867 C.3       16 UNK        -0.1800 
     92 C          -5.0718  -25.6084  -50.2781 C.2       16 UNK         0.5000 
     93 O          -5.8231  -26.4689  -50.7393 O.2       16 UNK        -0.5000 
     94 N          -5.4131  -24.7560  -49.2993 N.am      17 UNK        -0.5000 
     95 CA         -6.7274  -24.6177  -48.6648 C.3       17 UNK         0.1400 
     96 CB         -7.1321  -25.9032  -47.9121 C.3       17 UNK        -0.1800 
     97 C          -7.7981  -24.1161  -49.6565 C.2       17 UNK         0.5000 
     98 O          -8.9033  -24.6586  -49.7103 O.2       17 UNK        -0.5000 
     99 N          -7.4325  -23.0686  -50.4105 N.am      18 UNK        -0.5000 
    100 CA        -8.2430  -22.3556  -51.4032 C.3       18 UNK         0.1400 
    101 CB        -9.4457  -21.6558  -50.7353 C.3       18 UNK        -0.1800 
    102 C         -8.6396  -23.2345  -52.6066 C.2       18 UNK         0.5000 
    103 O         -9.8011  -23.2409  -53.0207 O.2       18 UNK        -0.5000 
    104 N         -7.6555  -23.9362  -53.1821 N.am      19 UNK        -0.5000 
    105 CA        -7.7831  -24.7643  -54.3825 C.3       19 UNK         0.1400 
    106 CB        -6.6694  -25.8255  -54.3747 C.3       19 UNK        -0.1800 
    107 C         -7.7753  -23.9073  -55.6678 C.2       19 UNK         0.5000 
    108 O         -6.9288  -24.0986  -56.5420 O.2       19 UNK        -0.5000 
    109 N         -8.7180  -22.9591  -55.7427 N.am      20 UNK        -0.5000 
    110 CA        -9.0216  -22.0178  -56.8286 C.3       20 UNK         0.1400 
    111 CB        -9.3863  -22.7651  -58.1259 C.3       20 UNK        -0.1800 
    112 C         -7.9631  -20.9283  -57.1025 C.2       20 UNK         0.5000 
    113 O         -8.3478  -19.8197  -57.4782 O.2       20 UNK        -0.5000 
    114 N         -6.6720  -21.2273  -56.9235 N.am      21 UNK        -0.5000 
    115 CA        -5.5564  -20.3263  -57.2059 C.3       21 UNK         0.1400 
    116 CB        -5.2565  -20.3393  -58.7183 C.3       21 UNK        -0.1800 
    117 C         -4.3136  -20.7238  -56.3944 C.2       21 UNK         0.5000 
    118 O         -4.2734  -21.8070  -55.8073 O.2       21 UNK        -0.5000 
    119 N         -3.3128  -19.8357  -56.4010 N.am      22 UNK        -0.5000 
    120 CA        -2.0026  -20.0130  -55.7476 C.3       22 UNK         0.1400 
    121 C         -1.0023  -20.9132  -56.5347 C.2       22 UNK         0.5000 
    122 N         -1.3342  -21.4080  -57.7211 N.am      22 UNK        -0.7600 
    123 O          0.1018  -21.1671  -56.0622 O.2       22 UNK        -0.5000 
    124 C124       -1.3515  -18.6494  -55.3881 C.3       23 UNK        -0.0398 
    125 S125       -2.4311  -17.5951  -54.3599 S.3       23 UNK        -0.2404 
    126 C126       -1.9339  -18.1011  -52.6869 C.3       23 UNK        -0.0205 
    127 H127        1.7512  -14.7800  -45.5775 H         1 UNK         0.0600 
    128 H128        1.5210  -13.2154  -46.3668 H         1 UNK         0.0600 
    129 H129        2.8644  -13.4538  -45.2419 H         1 UNK         0.0600 
    130 H130        2.4020  -16.2397  -47.1311 H         1 UNK         0.3000 
    131 H131        3.8133  -15.4764  -49.4964 H         1 UNK         0.0600 
    132 H132        3.3997  -18.3592  -48.5751 H         1 UNK         0.0800 
    133 H133        2.0690  -17.4236  -49.1633 H         1 UNK         0.0800 
    134 H134        3.0083  -16.8116  -52.9816 H         1 UNK         0.0800 
    135 H135        3.3697  -15.6614  -51.7303 H         1 UNK         0.0800 
    136 H136        0.7914  -18.0414  -52.9823 H         1 UNK         0.1150 
    137 H137       -2.4382  -16.0620  -50.9781 H         1 UNK         0.1150 
    138 H138        1.5978  -14.8140  -50.2774 H         1 UNK         0.1150 
    139 H139       -0.3671  -13.3901  -49.5957 H         1 UNK         0.0800 
    140 H140       -1.9913  -14.0176  -49.7097 H         1 UNK         0.0800 
    141 H141       -2.7334  -16.1454  -48.6224 H         1 UNK         0.0800 
    142 H142       -2.6273  -16.2198  -46.8886 H         1 UNK         0.0800 
    143 H143       -0.6606  -17.6611  -48.7383 H         1 UNK         0.0600 
    144 H144       -0.7143  -17.4057  -45.8833 H         1 UNK         0.3000 
    145 H145        1.3290  -20.2526  -45.2107 H         1 UNK         0.0600 
    146 H146        2.8048  -18.5419  -44.2134 H         1 UNK         0.0600 
    147 H147        2.9297  -18.4733  -45.9625 H         1 UNK         0.0600 
    148 H148        1.9814  -17.2635  -45.1013 H         1 UNK         0.0600 
    149 H149        0.5201  -18.4055  -43.3570 H         1 UNK         0.3000 
    150 H150       -2.2269  -18.3949  -42.5903 H         1 UNK         0.0600 
    151 H151       -3.5240  -20.4513  -42.7619 H         1 UNK         0.0600 
    152 H152       -3.1239  -20.1867  -41.0742 H         1 UNK         0.0600 
    153 H153       -2.2487  -21.3973  -42.0117 H         1 UNK         0.0600 
    154 H154       -0.6893  -18.1775  -40.9872 H         1 UNK         0.3000 
    155 H155        1.4032  -20.2301  -39.2094 H         1 UNK         0.0600 
    156 H156        2.6199  -18.5795  -41.4829 H         1 UNK         0.0600 
    157 H157        2.9694  -20.2711  -41.1434 H         1 UNK         0.0600 
    158 H158        3.4362  -19.0348  -39.9873 H         1 UNK         0.0600 
    159 H159        1.2801  -17.3535  -39.9020 H         1 UNK         0.3000 
    160 H160       -0.1048  -16.6196  -36.6467 H         1 UNK         0.0600 
    161 H161        2.4900  -16.0664  -38.1794 H         1 UNK         0.0600 
    162 H162        2.3683  -16.7938  -36.5822 H         1 UNK         0.0600 
    163 H163        1.8667  -15.1277  -36.8248 H         1 UNK         0.0600 
    164 H164        0.3575  -15.4163  -39.3458 H         1 UNK         0.3000 
    165 H165       -2.9298  -14.2664  -39.5910 H         1 UNK         0.0600 
    166 H166       -2.0695  -11.9348  -39.5903 H         1 UNK         0.0600 
    167 H167       -2.2085  -12.5319  -37.9450 H         1 UNK         0.0600 
    168 H168       -0.6266  -12.4415  -38.7101 H         1 UNK         0.0600 
    169 H169       -0.5115  -13.4897  -40.9336 H         1 UNK         0.3000 
    170 H170       -0.2485  -16.2716  -43.0841 H         1 UNK         0.0600 
    171 H171       -2.1144  -15.0476  -44.1912 H         1 UNK         0.0600 
    172 H172       -1.3702  -13.5067  -43.7799 H         1 UNK         0.0600 
    173 H173       -0.5687  -14.6080  -44.8960 H         1 UNK         0.0600 
    174 H174        1.0580  -13.7787  -43.1862 H         1 UNK         0.3000 
    175 H175        3.1330  -13.5093  -42.5531 H         1 UNK         0.0600 
    176 H176        3.2461  -14.0871  -39.5411 H         1 UNK         0.0600 
    177 H177        4.1169  -12.8093  -40.3876 H         1 UNK         0.0600 
    178 H178        2.3644  -12.7607  -40.2878 H         1 UNK         0.0600 
    179 H179        4.8719  -15.1827  -41.0326 H         1 UNK         0.3000 
    180 H180        6.6490  -16.1072  -42.3978 H         1 UNK         0.0600 
    181 H181        4.8121  -18.5648  -42.5439 H         1 UNK         0.0600 
    182 H182        5.2627  -17.7197  -41.0648 H         1 UNK         0.0600 
    183 H183        6.4873  -18.5597  -42.0004 H         1 UNK         0.0600 
    184 H184        5.8414  -17.8828  -44.6093 H         1 UNK         0.3000 
    185 H185        7.6439  -16.0052  -47.0604 H         1 UNK         0.0600 
    186 H186        8.5074  -18.2411  -46.2319 H         1 UNK         0.0600 
    187 H187        6.8669  -18.8793  -46.2849 H         1 UNK         0.0600 
    188 H188        7.6646  -18.3654  -47.7663 H         1 UNK         0.0600 
    189 H189        4.8999  -16.4807  -46.3607 H         1 UNK         0.3000 
    190 H190       -2.7826  -19.0351  -46.2171 H         1 UNK         0.3000 
    191 H191       -4.6780  -20.1933  -48.0870 H         1 UNK         0.0600 
    192 H192       -4.2005  -20.7678  -45.1154 H         1 UNK         0.0600 
    193 H193       -5.5792  -21.3040  -46.0644 H         1 UNK         0.0600 
    194 H194       -5.3407  -19.5894  -45.7642 H         1 UNK         0.0600 
    195 H195       -1.7884  -21.2971  -46.3171 H         1 UNK         0.3000 
    196 H196       -1.8294  -24.0203  -47.1349 H         1 UNK         0.0600 
    197 H197        0.5485  -24.0044  -46.4281 H         1 UNK         0.0600 
    198 H198       -0.4413  -23.1495  -45.2530 H         1 UNK         0.0600 
    199 H199        0.5574  -22.2469  -46.3894 H         1 UNK         0.0600 
    200 H200       -0.2103  -21.1393  -48.5899 H         1 UNK         0.3000 
    201 H201        0.8953  -22.4604  -50.8412 H         1 UNK         0.0600 
    202 H202        1.6500  -20.2417  -50.0663 H         1 UNK         0.0600 
    203 H203        0.0825  -19.5342  -50.4460 H         1 UNK         0.0600 
    204 H204        1.1203  -20.1376  -51.7366 H         1 UNK         0.0600 
    205 H205       -2.3268  -21.0259  -50.3219 H         1 UNK         0.3000 
    206 H206       -3.2832  -21.4861  -53.0196 H         1 UNK         0.0600 
    207 H207       -4.2217  -19.7359  -51.4419 H         1 UNK         0.0600 
    208 H208       -5.4371  -20.8091  -52.0910 H         1 UNK         0.0600 
    209 H209       -4.8667  -21.0251  -50.4381 H         1 UNK         0.0600 
    210 H210       -2.5091  -23.6883  -50.5972 H         1 UNK         0.3000 
    211 H211       -2.9685  -25.7714  -50.0545 H         1 UNK         0.0600 
    212 H212       -4.0233  -26.0413  -52.9170 H         1 UNK         0.0600 
    213 H213       -3.5249  -27.3626  -51.8702 H         1 UNK         0.0600 
    214 H214       -2.3394  -26.1907  -52.4233 H         1 UNK         0.0600 
    215 H215       -4.7251  -24.0623  -49.0112 H         1 UNK         0.3000 
    216 H216       -6.6167  -23.8299  -47.9180 H         1 UNK         0.0600 
    217 H217       -8.0371  -25.7401  -47.3259 H         1 UNK         0.0600 
    218 H218       -6.3505  -26.2175  -47.2206 H         1 UNK         0.0600 
    219 H219       -7.3322  -26.7313  -48.5923 H         1 UNK         0.0600 
    220 H220       -6.4824  -22.7430  -50.3127 H         1 UNK         0.3000 
    221 H221       -7.6064  -21.5704  -51.8100 H         1 UNK         0.0600 
    222 H222      -10.1694  -22.3716  -50.3447 H         1 UNK         0.0600 
    223 H223       -9.1237  -21.0200  -49.9106 H         1 UNK         0.0600 
    224 H224       -9.9709  -21.0190  -51.4481 H         1 UNK         0.0600 
    225 H225       -6.7052  -23.8276  -52.8282 H         1 UNK         0.3000 
    226 H226       -8.7394  -25.2901  -54.3473 H         1 UNK         0.0600 
    227 H227       -6.6893  -26.4140  -53.4572 H         1 UNK         0.0600 
    228 H228       -6.7827  -26.5183  -55.2092 H         1 UNK         0.0600 
    229 H229       -5.6833  -25.3680  -54.4590 H         1 UNK         0.0600 
    230 H230       -9.3275  -22.8838  -54.9337 H         1 UNK         0.3000 
    231 H231       -9.9182  -21.4895  -56.5004 H         1 UNK         0.0600 
    232 H232      -10.1907  -23.4810  -57.9568 H         1 UNK         0.0600 
    233 H233       -8.5344  -23.3067  -58.5378 H         1 UNK         0.0600 
    234 H234       -9.7279  -22.0685  -58.8925 H         1 UNK         0.0600 
    235 H235       -6.4165  -22.1596  -56.6088 H         1 UNK         0.3000 
    236 H236       -5.8314  -19.3142  -56.9011 H         1 UNK         0.0600 
    237 H237       -4.4341  -19.6687  -58.9691 H         1 UNK         0.0600 
    238 H238       -4.9848  -21.3381  -59.0621 H         1 UNK         0.0600 
    239 H239       -6.1201  -20.0122  -59.2975 H         1 UNK         0.0600 
    240 H240       -3.4318  -18.9694  -56.9056 H         1 UNK         0.3000 
    241 H241       -2.1742  -20.5399  -54.8085 H         1 UNK         0.0600 
    242 H242       -2.2358  -21.2151  -58.1251 H         1 UNK         0.3800 
    243 H243       -0.6759  -21.9887  -58.2169 H         1 UNK         0.3800 
    244 H244       -0.4035  -18.7966  -54.8691 H         1 UNK         0.0800 
    245 H245       -1.1111  -18.0968  -56.2977 H         1 UNK         0.0800 
    246 H246       -2.8273  -18.1379  -52.0654 H         1 UNK         0.0800 
    247 H247       -1.5324  -19.1141  -52.6963 H         1 UNK         0.0800 
@<TRIPOS>BOND
     1    1    2 1    
     2    1  127 1    
     3    1  128 1    
     4    1  129 1    
     5    2    3 2    
     6    2    4 am   BACKBONE|DICT|INTERRES
     7    4    5 1    
     8    4  130 1    
     9    5    6 1    
    10    5   65 1    
    11    5  131 1    
    12    6    7 1    
    13    6  132 1    
    14    6  133 1    
    15    7    8 1    
    16    8    9 1    
    17    8  134 1    
    18    8  135 1    
    19    9   10 ar   
    20    9   14 ar   
    21   10   11 ar   
    22   10  136 1    
    23   11   12 ar   
    24   11  126 1    
    25   12   13 ar   
    26   12  137 1    
    27   13   14 ar   
    28   13   15 1    
    29   14  138 1    
    30   15   16 1    
    31   15  139 1    
    32   15  140 1    
    33   16   17 1    
    34   17   18 1    
    35   17  141 1    
    36   17  142 1    
    37   18   19 1    
    38   18   67 1    
    39   18  143 1    
    40   19   20 am   BACKBONE|DICT|INTERRES
    41   19  144 1    
    42   20   21 2    
    43   20   22 1    
    44   22   23 1    
    45   22   24 1    
    46   22  145 1    
    47   23  146 1    
    48   23  147 1    
    49   23  148 1    
    50   24   25 am   BACKBONE|DICT|INTERRES
    51   24  149 1    
    52   25   26 2    
    53   25   27 1    
    54   27   28 1    
    55   27   29 1    
    56   27  150 1    
    57   28  151 1    
    58   28  152 1    
    59   28  153 1    
    60   29   30 am   BACKBONE|DICT|INTERRES
    61   29  154 1    
    62   30   31 2    
    63   30   32 1    
    64   32   33 1    
    65   32   34 1    
    66   32  155 1    
    67   33  156 1    
    68   33  157 1    
    69   33  158 1    
    70   34   35 am   BACKBONE|DICT|INTERRES
    71   34  159 1    
    72   35   36 2    
    73   35   37 1    
    74   37   38 1    
    75   37   39 1    
    76   37  160 1    
    77   38  161 1    
    78   38  162 1    
    79   38  163 1    
    80   39   40 am   BACKBONE|DICT|INTERRES
    81   39  164 1    
    82   40   41 2    
    83   40   42 1    
    84   42   43 1    
    85   42   44 1    
    86   42  165 1    
    87   43  166 1    
    88   43  167 1    
    89   43  168 1    
    90   44   45 am   BACKBONE|DICT|INTERRES
    91   44  169 1    
    92   45   46 2    
    93   45   47 1    
    94   47   48 1    
    95   47   49 1    
    96   47  170 1    
    97   48  171 1    
    98   48  172 1    
    99   48  173 1    
   100   49   50 am   BACKBONE|DICT|INTERRES
   101   49  174 1    
   102   50   51 2    
   103   50   52 1    
   104   52   53 1    
   105   52   54 1    
   106   52  175 1    
   107   53  176 1    
   108   53  177 1    
   109   53  178 1    
   110   54   55 am   BACKBONE|DICT|INTERRES
   111   54  179 1    
   112   55   56 2    
   113   55   57 1    
   114   57   58 1    
   115   57   59 1    
   116   57  180 1    
   117   58  181 1    
   118   58  182 1    
   119   58  183 1    
   120   59   60 am   BACKBONE|DICT|INTERRES
   121   59  184 1    
   122   60   61 2    
   123   60   62 1    
   124   62   63 1    
   125   62   64 1    
   126   62  185 1    
   127   63  186 1    
   128   63  187 1    
   129   63  188 1    
   130   64   65 am   BACKBONE|DICT|INTERRES
   131   64  189 1    
   132   65   66 2    
   133   67   68 2    
   134   67   69 am   BACKBONE|DICT|INTERRES
   135   69   70 1    
   136   69  190 1    
   137   70   71 1    
   138   70   72 1    
   139   70  191 1    
   140   71  192 1    
   141   71  193 1    
   142   71  194 1    
   143   72   73 2    
   144   72   74 am   BACKBONE|DICT|INTERRES
   145   74   75 1    
   146   74  195 1    
   147   75   76 1    
   148   75   77 1    
   149   75  196 1    
   150   76  197 1    
   151   76  198 1    
   152   76  199 1    
   153   77   78 2    
   154   77   79 am   BACKBONE|DICT|INTERRES
   155   79   80 1    
   156   79  200 1    
   157   80   81 1    
   158   80   82 1    
   159   80  201 1    
   160   81  202 1    
   161   81  203 1    
   162   81  204 1    
   163   82   83 2    
   164   82   84 am   BACKBONE|DICT|INTERRES
   165   84   85 1    
   166   84  205 1    
   167   85   86 1    
   168   85   87 1    
   169   85  206 1    
   170   86  207 1    
   171   86  208 1    
   172   86  209 1    
   173   87   88 2    
   174   87   89 am   BACKBONE|DICT|INTERRES
   175   89   90 1    
   176   89  210 1    
   177   90   91 1    
   178   90   92 1    
   179   90  211 1    
   180   91  212 1    
   181   91  213 1    
   182   91  214 1    
   183   92   93 2    
   184   92   94 am   BACKBONE|DICT|INTERRES
   185   94   95 1    
   186   94  215 1    
   187   95   96 1    
   188   95   97 1    
   189   95  216 1    
   190   96  217 1    
   191   96  218 1    
   192   96  219 1    
   193   97   98 2    
   194   97   99 am   BACKBONE|DICT|INTERRES
   195   99  100 1    
   196   99  220 1    
   197  100  101 1    
   198  100  102 1    
   199  100  221 1    
   200  101  222 1    
   201  101  223 1    
   202  101  224 1    
   203  102  103 2    
   204  102  104 am   BACKBONE|DICT|INTERRES
   205  104  105 1    
   206  104  225 1    
   207  105  106 1    
   208  105  107 1    
   209  105  226 1    
   210  106  227 1    
   211  106  228 1    
   212  106  229 1    
   213  107  108 2    
   214  107  109 am   BACKBONE|DICT|INTERRES
   215  109  110 1    
   216  109  230 1    
   217  110  111 1    
   218  110  112 1    
   219  110  231 1    
   220  111  232 1    
   221  111  233 1    
   222  111  234 1    
   223  112  113 2    
   224  112  114 am   BACKBONE|DICT|INTERRES
   225  114  115 1    
   226  114  235 1    
   227  115  116 1    
   228  115  117 1    
   229  115  236 1    
   230  116  237 1    
   231  116  238 1    
   232  116  239 1    
   233  117  118 2    
   234  117  119 am   BACKBONE|DICT|INTERRES
   235  119  120 1    
   236  119  240 1    
   237  120  121 1    
   238  120  124 1    
   239  120  241 1    
   240  121  122 am   BACKBONE|DICT|INTERRES
   241  121  123 2    
   242  122  242 1    
   243  122  243 1    
   244  124  125 1    
   245  124  244 1    
   246  124  245 1    
   247  125  126 1    
   248  126  246 1    
   249  126  247 1    
@<TRIPOS>SUBSTRUCTURE
     1 UNK         1 GROUP             0       ****    0 ROOT    
