@<TRIPOS>MOLECULE
3R540
247   249    1
SMALL
USER_CHARGES


@<TRIPOS>ATOM
      1 CA         -3.5425  -10.5203  -48.3840 C.3       0 UNK        -0.1800 
      2 C          -2.4470  -11.3684  -49.0143 C.2       0 UNK         0.5000 
      3 O          -2.1716  -11.2274  -50.2056 O.2       0 UNK        -0.5000 
      4 N          -1.8230  -12.2475  -48.2201 N.am      1 UNK        -0.5000 
      5 CA         -0.7601  -13.1634  -48.6559 C.3       1 UNK         0.1400 
      6 C6         -0.5413  -14.3198  -47.6461 C.3       23 UNK        -0.0398 
      7 S7         -2.0318  -15.2827  -47.2075 S.3       23 UNK        -0.2404 
      8 C8         -2.8194  -15.6406  -48.8157 C.3       23 UNK        -0.0205 
      9 C9         -1.9390  -16.3615  -49.8355 C.ar      23 UNK        -0.0193 
     10 C10        -2.1909  -16.1596  -51.1967 C.ar      23 UNK        -0.1150 
     11 C11        -1.4425  -16.8265  -52.1696 C.ar      23 UNK        -0.0193 
     12 C12        -0.4256  -17.6980  -51.7715 C.ar      23 UNK        -0.1150 
     13 C13        -0.1525  -17.9046  -50.4184 C.ar      23 UNK        -0.0193 
     14 C14        -0.9185  -17.2437  -49.4543 C.ar      23 UNK        -0.1150 
     15 C15         0.9766  -18.8371  -50.0117 C.3       23 UNK        -0.0205 
     16 S16         0.3693  -20.5170  -49.6718 S.3       23 UNK        -0.2404 
     17 C17         0.1338  -20.4396  -47.8669 C.3       23 UNK        -0.0398 
     18 CA         -0.1314  -21.8362  -47.2553 C.3       11 UNK         0.1400 
     19 N           0.3160  -21.9257  -45.8621 N.am      11 UNK        -0.5000 
     20 C           0.3370  -23.0534  -45.1374 C.2       10 UNK         0.5000 
     21 O          -0.0014  -24.1520  -45.5761 O.2       10 UNK        -0.5000 
     22 CA          0.7465  -22.9270  -43.6600 C.3       10 UNK         0.1400 
     23 CB          2.2722  -22.8260  -43.5172 C.3       10 UNK        -0.1800 
     24 N           0.1042  -21.7889  -43.0024 N.am      10 UNK        -0.5000 
     25 C          -1.2190  -21.6776  -42.8135 C.2       9 UNK         0.5000 
     26 O          -2.0284  -22.5539  -43.1162 O.2       9 UNK        -0.5000 
     27 CA         -1.7323  -20.3525  -42.2233 C.3       9 UNK         0.1400 
     28 CB         -1.5948  -20.3511  -40.6937 C.3       9 UNK        -0.1800 
     29 N          -1.0607  -19.1780  -42.7815 N.am      9 UNK        -0.5000 
     30 C          -1.1004  -18.8158  -44.0727 C.2       8 UNK         0.5000 
     31 O          -1.7258  -19.4271  -44.9392 O.2       8 UNK        -0.5000 
     32 CA         -0.2488  -17.5977  -44.4727 C.3       8 UNK         0.1400 
     33 CB         -0.8994  -16.2913  -43.9944 C.3       8 UNK        -0.1800 
     34 N           1.1151  -17.6779  -43.9522 N.am      8 UNK        -0.5000 
     35 C           1.9903  -18.6543  -44.2277 C.2       7 UNK         0.5000 
     36 O           1.7663  -19.5769  -45.0099 O.2       7 UNK        -0.5000 
     37 CA          3.3170  -18.6257  -43.4517 C.3       7 UNK         0.1400 
     38 CB          4.3057  -17.6310  -44.0788 C.3       7 UNK        -0.1800 
     39 N           3.1124  -18.2986  -42.0405 N.am      7 UNK        -0.5000 
     40 C           2.5112  -19.1069  -41.1558 C.2       6 UNK         0.5000 
     41 O           2.0925  -20.2310  -41.4304 O.2       6 UNK        -0.5000 
     42 CA          2.3128  -18.5486  -39.7348 C.3       6 UNK         0.1400 
     43 CB          3.5920  -18.7176  -38.9018 C.3       6 UNK        -0.1800 
     44 N           1.9162  -17.1397  -39.7360 N.am      6 UNK        -0.5000 
     45 C           0.7389  -16.6885  -40.1909 C.2       5 UNK         0.5000 
     46 O          -0.1511  -17.4187  -40.6251 O.2       5 UNK        -0.5000 
     47 CA          0.5425  -15.1605  -40.2090 C.3       5 UNK         0.1400 
     48 CB          0.0284  -14.6668  -38.8485 C.3       5 UNK        -0.1800 
     49 N           1.7506  -14.4125  -40.5740 N.am      5 UNK        -0.5000 
     50 C           2.4132  -14.5510  -41.7300 C.2       4 UNK         0.5000 
     51 O           2.1115  -15.3773  -42.5936 O.2       4 UNK        -0.5000 
     52 CA          3.6503  -13.6539  -41.9259 C.3       4 UNK         0.1400 
     53 CB          4.8689  -14.2805  -41.2297 C.3       4 UNK        -0.1800 
     54 N           3.9752  -13.4507  -43.3395 N.am      4 UNK        -0.5000 
     55 C           3.1923  -12.8225  -44.2253 C.2       3 UNK         0.5000 
     56 O           2.1301  -12.2639  -43.9326 O.2       3 UNK        -0.5000 
     57 CA          3.6798  -12.8274  -45.6827 C.3       3 UNK         0.1400 
     58 CB          3.6407  -14.2467  -46.2818 C.3       3 UNK        -0.1800 
     59 N           2.8182  -11.9527  -46.4680 N.am      3 UNK        -0.5000 
     60 C           3.1625  -11.2755  -47.5684 C.2       2 UNK         0.5000 
     61 O           4.2980  -11.2793  -48.0480 O.2       2 UNK        -0.5000 
     62 CA          2.0196  -10.4871  -48.2467 C.3       2 UNK         0.1400 
     63 CB          2.3934   -9.9444  -49.6421 C.3       2 UNK        -0.1800 
     64 N           0.7742  -11.2663  -48.2981 N.am      2 UNK        -0.5000 
     65 C           0.5855  -12.4493  -48.9084 C.2       1 UNK         0.5000 
     66 O           1.4287  -13.0011  -49.6160 O.2       1 UNK        -0.5000 
     67 C          -1.6080  -22.2504  -47.4143 C.2       11 UNK         0.5000 
     68 O          -1.9198  -23.0473  -48.2980 O.2       11 UNK        -0.5000 
     69 N          -2.4662  -21.7491  -46.5133 N.am      12 UNK        -0.5000 
     70 CA         -3.8965  -22.0512  -46.4454 C.3       12 UNK         0.1400 
     71 CB         -4.5679  -21.0814  -45.4620 C.3       12 UNK        -0.1800 
     72 C          -4.2286  -23.5117  -46.0808 C.2       12 UNK         0.5000 
     73 O          -5.3441  -23.9569  -46.3617 O.2       12 UNK        -0.5000 
     74 N          -3.2752  -24.2202  -45.4624 N.am      13 UNK        -0.5000 
     75 CA         -3.3550  -25.6497  -45.1773 C.3       13 UNK         0.1400 
     76 CB         -2.5847  -25.9551  -43.8832 C.3       13 UNK        -0.1800 
     77 C          -2.8110  -26.4868  -46.3487 C.2       13 UNK         0.5000 
     78 O          -3.4031  -27.5152  -46.6777 O.2       13 UNK        -0.5000 
     79 N          -1.6979  -26.0415  -46.9524 N.am      14 UNK        -0.5000 
     80 CA         -1.0229  -26.6982  -48.0757 C.3       14 UNK         0.1400 
     81 CB          0.3201  -26.0018  -48.3445 C.3       14 UNK        -0.1800 
     82 C          -1.8785  -26.7425  -49.3546 C.2       14 UNK         0.5000 
     83 O          -1.9329  -27.7809  -50.0153 O.2       14 UNK        -0.5000 
     84 N          -2.5531  -25.6298  -49.6549 N.am      15 UNK        -0.5000 
     85 CA         -3.5965  -25.5189  -50.6652 C.3       15 UNK         0.1400 
     86 CB         -3.0956  -24.6475  -51.8278 C.3       15 UNK        -0.1800 
     87 C          -4.7905  -24.8693  -49.9639 C.2       15 UNK         0.5000 
     88 O          -4.5982  -23.8454  -49.3109 O.2       15 UNK        -0.5000 
     89 N          -5.9824  -25.4686  -50.0828 N.am      16 UNK        -0.5000 
     90 CA         -7.2088  -25.0774  -49.3779 C.3       16 UNK         0.1400 
     91 CB         -8.3684  -25.9622  -49.8634 C.3       16 UNK        -0.1800 
     92 C          -7.5477  -23.5819  -49.5355 C.2       16 UNK         0.5000 
     93 O          -7.9446  -23.1597  -50.6221 O.2       16 UNK        -0.5000 
     94 N          -7.3148  -22.8075  -48.4652 N.am      17 UNK        -0.5000 
     95 CA         -7.4535  -21.3463  -48.3883 C.3       17 UNK         0.1400 
     96 CB         -8.9356  -20.9338  -48.5070 C.3       17 UNK        -0.1800 
     97 C          -6.5388  -20.5807  -49.3748 C.2       17 UNK         0.5000 
     98 O          -6.8697  -19.4650  -49.7781 O.2       17 UNK        -0.5000 
     99 N          -5.4085  -21.2023  -49.7436 N.am      18 UNK        -0.5000 
    100 CA        -4.3909  -20.7514  -50.6954 C.3       18 UNK         0.1400 
    101 CB        -3.7016  -19.4622  -50.2085 C.3       18 UNK        -0.1800 
    102 C         -4.9040  -20.6606  -52.1488 C.2       18 UNK         0.5000 
    103 O         -4.3268  -19.9303  -52.9576 O.2       18 UNK        -0.5000 
    104 N         -5.9660  -21.4161  -52.4723 N.am      19 UNK        -0.5000 
    105 CA        -6.5649  -21.4976  -53.8043 C.3       19 UNK         0.1400 
    106 CB        -7.8092  -22.3968  -53.7566 C.3       19 UNK        -0.1800 
    107 C         -5.5583  -22.0063  -54.8518 C.2       19 UNK         0.5000 
    108 O         -5.0671  -23.1300  -54.7312 O.2       19 UNK        -0.5000 
    109 N         -5.2571  -21.1457  -55.8335 N.am      20 UNK        -0.5000 
    110 CA        -4.3055  -21.3373  -56.9345 C.3       20 UNK         0.1400 
    111 CB        -4.7324  -22.5128  -57.8385 C.3       20 UNK        -0.1800 
    112 C         -2.8249  -21.4406  -56.5031 C.2       20 UNK         0.5000 
    113 O         -1.9802  -21.7588  -57.3422 O.2       20 UNK        -0.5000 
    114 N         -2.5052  -21.1218  -55.2381 N.am      21 UNK        -0.5000 
    115 CA        -1.1423  -21.1659  -54.6904 C.3       21 UNK         0.1400 
    116 CB        -1.2029  -21.0068  -53.1646 C.3       21 UNK        -0.1800 
    117 C         -0.1944  -20.1178  -55.3101 C.2       21 UNK         0.5000 
    118 O          1.0207  -20.3174  -55.3090 O.2       21 UNK        -0.5000 
    119 N         -0.7765  -19.0406  -55.8477 N.am      22 UNK        -0.5000 
    120 CA        -0.1005  -17.9826  -56.6127 C.3       22 UNK         0.1400 
    121 C         -0.0829  -18.2526  -58.1482 C.2       22 UNK         0.5000 
    122 N         -0.5758  -19.3829  -58.6443 N.am      22 UNK        -0.7600 
    123 O          0.4048  -17.4245  -58.9127 O.2       22 UNK        -0.5000 
    124 C124       -0.6949  -16.5874  -56.2766 C.3       23 UNK        -0.0398 
    125 S125       -0.2930  -16.0633  -54.5752 S.3       23 UNK        -0.2404 
    126 C126       -1.7521  -16.6403  -53.6478 C.3       23 UNK        -0.0205 
    127 H127       -3.2933   -9.4625  -48.4678 H         1 UNK         0.0600 
    128 H128       -3.6803  -10.7549  -47.3282 H         1 UNK         0.0600 
    129 H129       -4.4895  -10.6904  -48.8960 H         1 UNK         0.0600 
    130 H130       -2.1108  -12.3384  -47.2559 H         1 UNK         0.3000 
    131 H131       -1.0592  -13.5957  -49.6125 H         1 UNK         0.0600 
    132 H132        0.2026  -15.0194  -48.0316 H         1 UNK         0.0800 
    133 H133       -0.1257  -13.9336  -46.7134 H         1 UNK         0.0800 
    134 H134       -3.1927  -14.7044  -49.2332 H         1 UNK         0.0800 
    135 H135       -3.6976  -16.2607  -48.6322 H         1 UNK         0.0800 
    136 H136       -2.9862  -15.4932  -51.4999 H         1 UNK         0.1150 
    137 H137        0.1543  -18.2180  -52.5213 H         1 UNK         0.1150 
    138 H138       -0.7174  -17.4229  -48.4085 H         1 UNK         0.1150 
    139 H139        1.7154  -18.8935  -50.8127 H         1 UNK         0.0800 
    140 H140        1.5053  -18.4343  -49.1466 H         1 UNK         0.0800 
    141 H141       -0.6572  -19.7289  -47.6206 H         1 UNK         0.0800 
    142 H142        1.0520  -20.0261  -47.4502 H         1 UNK         0.0800 
    143 H143        0.4688  -22.5662  -47.8027 H         1 UNK         0.0600 
    144 H144        0.6456  -21.0639  -45.4347 H         1 UNK         0.3000 
    145 H145        0.4204  -23.8348  -43.1479 H         1 UNK         0.0600 
    146 H146        2.5694  -22.8200  -42.4685 H         1 UNK         0.0600 
    147 H147        2.7653  -23.6763  -43.9900 H         1 UNK         0.0600 
    148 H148        2.6638  -21.9204  -43.9802 H         1 UNK         0.0600 
    149 H149        0.7141  -21.0469  -42.6749 H         1 UNK         0.3000 
    150 H150       -2.7934  -20.2721  -42.4676 H         1 UNK         0.0600 
    151 H151       -2.0928  -21.2167  -40.2550 H         1 UNK         0.0600 
    152 H152       -2.0484  -19.4605  -40.2587 H         1 UNK         0.0600 
    153 H153       -0.5498  -20.3797  -40.3836 H         1 UNK         0.0600 
    154 H154       -0.5495  -18.5963  -42.1235 H         1 UNK         0.3000 
    155 H155       -0.1908  -17.5732  -45.5629 H         1 UNK         0.0600 
    156 H156       -0.9336  -16.2300  -42.9077 H         1 UNK         0.0600 
    157 H157       -1.9250  -16.2102  -44.3554 H         1 UNK         0.0600 
    158 H158       -0.3523  -15.4221  -44.3603 H         1 UNK         0.0600 
    159 H159        1.4097  -16.9278  -43.3307 H         1 UNK         0.3000 
    160 H160        3.7588  -19.6227  -43.5095 H         1 UNK         0.0600 
    161 H161        5.2680  -17.6565  -43.5674 H         1 UNK         0.0600 
    162 H162        3.9328  -16.6081  -44.0388 H         1 UNK         0.0600 
    163 H163        4.4876  -17.8717  -45.1269 H         1 UNK         0.0600 
    164 H164        3.3635  -17.3654  -41.7510 H         1 UNK         0.3000 
    165 H165        1.5172  -19.1259  -39.2588 H         1 UNK         0.0600 
    166 H166        3.4366  -18.3967  -37.8716 H         1 UNK         0.0600 
    167 H167        3.9023  -19.7630  -38.8721 H         1 UNK         0.0600 
    168 H168        4.4215  -18.1403  -39.3121 H         1 UNK         0.0600 
    169 H169        2.5916  -16.4708  -39.3975 H         1 UNK         0.3000 
    170 H170       -0.2187  -14.9376  -40.9590 H         1 UNK         0.0600 
    171 H171       -0.8822  -15.1942  -38.5607 H         1 UNK         0.0600 
    172 H172        0.7630  -14.8246  -38.0579 H         1 UNK         0.0600 
    173 H173       -0.2102  -13.6035  -38.8788 H         1 UNK         0.0600 
    174 H174        2.0694  -13.7245  -39.9071 H         1 UNK         0.3000 
    175 H175        3.4471  -12.6784  -41.4795 H         1 UNK         0.0600 
    176 H176        5.1164  -15.2558  -41.6514 H         1 UNK         0.0600 
    177 H177        5.7479  -13.6423  -41.3233 H         1 UNK         0.0600 
    178 H178        4.6860  -14.4208  -40.1636 H         1 UNK         0.0600 
    179 H179        4.8183  -13.8967  -43.6687 H         1 UNK         0.3000 
    180 H180        4.7029  -12.4460  -45.7003 H         1 UNK         0.0600 
    181 H181        2.6459  -14.6880  -46.2043 H         1 UNK         0.0600 
    182 H182        4.3369  -14.9108  -45.7696 H         1 UNK         0.0600 
    183 H183        3.9209  -14.2403  -47.3353 H         1 UNK         0.0600 
    184 H184        1.8900  -11.8377  -46.0818 H         1 UNK         0.3000 
    185 H185        1.8200   -9.6279  -47.6048 H         1 UNK         0.0600 
    186 H186        3.2402   -9.2601  -49.5794 H         1 UNK         0.0600 
    187 H187        2.6711  -10.7432  -50.3302 H         1 UNK         0.0600 
    188 H188        1.5638   -9.3937  -50.0853 H         1 UNK         0.0600 
    189 H189        0.0068  -10.9013  -47.7518 H         1 UNK         0.3000 
    190 H190       -2.1204  -21.0732  -45.8363 H         1 UNK         0.3000 
    191 H191       -4.3116  -21.8697  -47.4347 H         1 UNK         0.0600 
    192 H192       -4.1505  -21.1784  -44.4594 H         1 UNK         0.0600 
    193 H193       -5.6396  -21.2694  -45.3903 H         1 UNK         0.0600 
    194 H194       -4.4390  -20.0465  -45.7801 H         1 UNK         0.0600 
    195 H195       -2.4090  -23.7554  -45.2248 H         1 UNK         0.3000 
    196 H196       -4.3981  -25.9313  -45.0182 H         1 UNK         0.0600 
    197 H197       -2.6492  -27.0144  -43.6318 H         1 UNK         0.0600 
    198 H198       -2.9932  -25.3945  -43.0421 H         1 UNK         0.0600 
    199 H199       -1.5279  -25.7016  -43.9689 H         1 UNK         0.0600 
    200 H200       -1.2412  -25.2135  -46.5813 H         1 UNK         0.3000 
    201 H201       -0.8165  -27.7287  -47.7798 H         1 UNK         0.0600 
    202 H202        0.9676  -26.0423  -47.4685 H         1 UNK         0.0600 
    203 H203        0.1827  -24.9533  -48.6107 H         1 UNK         0.0600 
    204 H204        0.8529  -26.4827  -49.1657 H         1 UNK         0.0600 
    205 H205       -2.4607  -24.8137  -49.0520 H         1 UNK         0.3000 
    206 H206       -3.8881  -26.5005  -51.0443 H         1 UNK         0.0600 
    207 H207       -3.8814  -24.4909  -52.5678 H         1 UNK         0.0600 
    208 H208       -2.7682  -23.6674  -51.4805 H         1 UNK         0.0600 
    209 H209       -2.2543  -25.1177  -52.3368 H         1 UNK         0.0600 
    210 H210       -6.0531  -26.2930  -50.6608 H         1 UNK         0.3000 
    211 H211       -7.0525  -25.2850  -48.3173 H         1 UNK         0.0600 
    212 H212       -8.5352  -25.8549  -50.9361 H         1 UNK         0.0600 
    213 H213       -9.2985  -25.6978  -49.3587 H         1 UNK         0.0600 
    214 H214       -8.1759  -27.0152  -49.6569 H         1 UNK         0.0600 
    215 H215       -6.8912  -23.2472  -47.6540 H         1 UNK         0.3000 
    216 H216       -7.1155  -21.0647  -47.3907 H         1 UNK         0.0600 
    217 H217       -9.0651  -19.8717  -48.2957 H         1 UNK         0.0600 
    218 H218       -9.5555  -21.4813  -47.7972 H         1 UNK         0.0600 
    219 H219       -9.3283  -21.1173  -49.5075 H         1 UNK         0.0600 
    220 H220       -5.2475  -22.1456  -49.3920 H         1 UNK         0.3000 
    221 H221       -3.6304  -21.5330  -50.7001 H         1 UNK         0.0600 
    222 H222       -4.3703  -18.6021  -50.2415 H         1 UNK         0.0600 
    223 H223       -3.3361  -19.5693  -49.1870 H         1 UNK         0.0600 
    224 H224       -2.8399  -19.2272  -50.8327 H         1 UNK         0.0600 
    225 H225       -6.3954  -21.9866  -51.7544 H         1 UNK         0.3000 
    226 H226       -6.8890  -20.4921  -54.0801 H         1 UNK         0.0600 
    227 H227       -8.2727  -22.4766  -54.7406 H         1 UNK         0.0600 
    228 H228       -7.5633  -23.4068  -53.4254 H         1 UNK         0.0600 
    229 H229       -8.5597  -21.9948  -53.0757 H         1 UNK         0.0600 
    230 H230       -5.6964  -20.2356  -55.8085 H         1 UNK         0.3000 
    231 H231       -4.3688  -20.4298  -57.5365 H         1 UNK         0.0600 
    232 H232       -5.7734  -22.4162  -58.1468 H         1 UNK         0.0600 
    233 H233       -4.6178  -23.4741  -57.3373 H         1 UNK         0.0600 
    234 H234       -4.1298  -22.5476  -58.7468 H         1 UNK         0.0600 
    235 H235       -3.2410  -20.8356  -54.6020 H         1 UNK         0.3000 
    236 H236       -0.7255  -22.1508  -54.9105 H         1 UNK         0.0600 
    237 H237       -1.8061  -21.7908  -52.7084 H         1 UNK         0.0600 
    238 H238       -0.2069  -21.0654  -52.7241 H         1 UNK         0.0600 
    239 H239       -1.6306  -20.0462  -52.8791 H         1 UNK         0.0600 
    240 H240       -1.7829  -18.9866  -55.8127 H         1 UNK         0.3000 
    241 H241        0.9521  -17.9637  -56.3240 H         1 UNK         0.0600 
    242 H242       -0.9516  -20.1088  -58.0461 H         1 UNK         0.3800 
    243 H243       -0.5435  -19.5336  -59.6403 H         1 UNK         0.3800 
    244 H244       -0.2861  -15.8229  -56.9394 H         1 UNK         0.0800 
    245 H245       -1.7751  -16.5721  -56.4298 H         1 UNK         0.0800 
    246 H246       -2.5654  -15.9275  -53.7919 H         1 UNK         0.0800 
    247 H247       -2.1059  -17.5931  -54.0398 H         1 UNK         0.0800 
@<TRIPOS>BOND
     1    1    2 1    
     2    1  127 1    
     3    1  128 1    
     4    1  129 1    
     5    2    3 2    
     6    2    4 am   BACKBONE|DICT|INTERRES
     7    4    5 1    
     8    4  130 1    
     9    5    6 1    
    10    5   65 1    
    11    5  131 1    
    12    6    7 1    
    13    6  132 1    
    14    6  133 1    
    15    7    8 1    
    16    8    9 1    
    17    8  134 1    
    18    8  135 1    
    19    9   10 ar   
    20    9   14 ar   
    21   10   11 ar   
    22   10  136 1    
    23   11   12 ar   
    24   11  126 1    
    25   12   13 ar   
    26   12  137 1    
    27   13   14 ar   
    28   13   15 1    
    29   14  138 1    
    30   15   16 1    
    31   15  139 1    
    32   15  140 1    
    33   16   17 1    
    34   17   18 1    
    35   17  141 1    
    36   17  142 1    
    37   18   19 1    
    38   18   67 1    
    39   18  143 1    
    40   19   20 am   BACKBONE|DICT|INTERRES
    41   19  144 1    
    42   20   21 2    
    43   20   22 1    
    44   22   23 1    
    45   22   24 1    
    46   22  145 1    
    47   23  146 1    
    48   23  147 1    
    49   23  148 1    
    50   24   25 am   BACKBONE|DICT|INTERRES
    51   24  149 1    
    52   25   26 2    
    53   25   27 1    
    54   27   28 1    
    55   27   29 1    
    56   27  150 1    
    57   28  151 1    
    58   28  152 1    
    59   28  153 1    
    60   29   30 am   BACKBONE|DICT|INTERRES
    61   29  154 1    
    62   30   31 2    
    63   30   32 1    
    64   32   33 1    
    65   32   34 1    
    66   32  155 1    
    67   33  156 1    
    68   33  157 1    
    69   33  158 1    
    70   34   35 am   BACKBONE|DICT|INTERRES
    71   34  159 1    
    72   35   36 2    
    73   35   37 1    
    74   37   38 1    
    75   37   39 1    
    76   37  160 1    
    77   38  161 1    
    78   38  162 1    
    79   38  163 1    
    80   39   40 am   BACKBONE|DICT|INTERRES
    81   39  164 1    
    82   40   41 2    
    83   40   42 1    
    84   42   43 1    
    85   42   44 1    
    86   42  165 1    
    87   43  166 1    
    88   43  167 1    
    89   43  168 1    
    90   44   45 am   BACKBONE|DICT|INTERRES
    91   44  169 1    
    92   45   46 2    
    93   45   47 1    
    94   47   48 1    
    95   47   49 1    
    96   47  170 1    
    97   48  171 1    
    98   48  172 1    
    99   48  173 1    
   100   49   50 am   BACKBONE|DICT|INTERRES
   101   49  174 1    
   102   50   51 2    
   103   50   52 1    
   104   52   53 1    
   105   52   54 1    
   106   52  175 1    
   107   53  176 1    
   108   53  177 1    
   109   53  178 1    
   110   54   55 am   BACKBONE|DICT|INTERRES
   111   54  179 1    
   112   55   56 2    
   113   55   57 1    
   114   57   58 1    
   115   57   59 1    
   116   57  180 1    
   117   58  181 1    
   118   58  182 1    
   119   58  183 1    
   120   59   60 am   BACKBONE|DICT|INTERRES
   121   59  184 1    
   122   60   61 2    
   123   60   62 1    
   124   62   63 1    
   125   62   64 1    
   126   62  185 1    
   127   63  186 1    
   128   63  187 1    
   129   63  188 1    
   130   64   65 am   BACKBONE|DICT|INTERRES
   131   64  189 1    
   132   65   66 2    
   133   67   68 2    
   134   67   69 am   BACKBONE|DICT|INTERRES
   135   69   70 1    
   136   69  190 1    
   137   70   71 1    
   138   70   72 1    
   139   70  191 1    
   140   71  192 1    
   141   71  193 1    
   142   71  194 1    
   143   72   73 2    
   144   72   74 am   BACKBONE|DICT|INTERRES
   145   74   75 1    
   146   74  195 1    
   147   75   76 1    
   148   75   77 1    
   149   75  196 1    
   150   76  197 1    
   151   76  198 1    
   152   76  199 1    
   153   77   78 2    
   154   77   79 am   BACKBONE|DICT|INTERRES
   155   79   80 1    
   156   79  200 1    
   157   80   81 1    
   158   80   82 1    
   159   80  201 1    
   160   81  202 1    
   161   81  203 1    
   162   81  204 1    
   163   82   83 2    
   164   82   84 am   BACKBONE|DICT|INTERRES
   165   84   85 1    
   166   84  205 1    
   167   85   86 1    
   168   85   87 1    
   169   85  206 1    
   170   86  207 1    
   171   86  208 1    
   172   86  209 1    
   173   87   88 2    
   174   87   89 am   BACKBONE|DICT|INTERRES
   175   89   90 1    
   176   89  210 1    
   177   90   91 1    
   178   90   92 1    
   179   90  211 1    
   180   91  212 1    
   181   91  213 1    
   182   91  214 1    
   183   92   93 2    
   184   92   94 am   BACKBONE|DICT|INTERRES
   185   94   95 1    
   186   94  215 1    
   187   95   96 1    
   188   95   97 1    
   189   95  216 1    
   190   96  217 1    
   191   96  218 1    
   192   96  219 1    
   193   97   98 2    
   194   97   99 am   BACKBONE|DICT|INTERRES
   195   99  100 1    
   196   99  220 1    
   197  100  101 1    
   198  100  102 1    
   199  100  221 1    
   200  101  222 1    
   201  101  223 1    
   202  101  224 1    
   203  102  103 2    
   204  102  104 am   BACKBONE|DICT|INTERRES
   205  104  105 1    
   206  104  225 1    
   207  105  106 1    
   208  105  107 1    
   209  105  226 1    
   210  106  227 1    
   211  106  228 1    
   212  106  229 1    
   213  107  108 2    
   214  107  109 am   BACKBONE|DICT|INTERRES
   215  109  110 1    
   216  109  230 1    
   217  110  111 1    
   218  110  112 1    
   219  110  231 1    
   220  111  232 1    
   221  111  233 1    
   222  111  234 1    
   223  112  113 2    
   224  112  114 am   BACKBONE|DICT|INTERRES
   225  114  115 1    
   226  114  235 1    
   227  115  116 1    
   228  115  117 1    
   229  115  236 1    
   230  116  237 1    
   231  116  238 1    
   232  116  239 1    
   233  117  118 2    
   234  117  119 am   BACKBONE|DICT|INTERRES
   235  119  120 1    
   236  119  240 1    
   237  120  121 1    
   238  120  124 1    
   239  120  241 1    
   240  121  122 am   BACKBONE|DICT|INTERRES
   241  121  123 2    
   242  122  242 1    
   243  122  243 1    
   244  124  125 1    
   245  124  244 1    
   246  124  245 1    
   247  125  126 1    
   248  126  246 1    
   249  126  247 1    
@<TRIPOS>SUBSTRUCTURE
     1 UNK         1 GROUP             0       ****    0 ROOT    
