@<TRIPOS>MOLECULE
3R540
247   249    1
SMALL
USER_CHARGES


@<TRIPOS>ATOM
      1 CA          6.8401  -14.0948  -46.5153 C.3       0 UNK        -0.1800 
      2 C           5.5000  -13.3897  -46.6596 C.2       0 UNK         0.5000 
      3 O           5.0888  -12.6687  -45.7473 O.2       0 UNK        -0.5000 
      4 N           4.8257  -13.5798  -47.8033 N.am      1 UNK        -0.5000 
      5 CA          3.5165  -13.0077  -48.1441 C.3       1 UNK         0.1400 
      6 C6          2.7944  -13.8446  -49.2304 C.3       23 UNK        -0.0398 
      7 S7          0.9980  -13.5177  -49.2835 S.3       23 UNK        -0.2404 
      8 C8          0.3383  -14.7955  -48.1640 C.3       23 UNK        -0.0205 
      9 C9          0.3857  -16.1896  -48.7702 C.ar      23 UNK        -0.0193 
     10 C10        -0.3495  -16.4787  -49.9225 C.ar      23 UNK        -0.1150 
     11 C11        -0.3334  -17.7620  -50.4741 C.ar      23 UNK        -0.0193 
     12 C12         0.4108  -18.7696  -49.8536 C.ar      23 UNK        -0.1150 
     13 C13         1.1474  -18.4935  -48.6970 C.ar      23 UNK        -0.0193 
     14 C14         1.1374  -17.2002  -48.1653 C.ar      23 UNK        -0.1150 
     15 C15         1.9674  -19.5825  -48.0227 C.3       23 UNK        -0.0205 
     16 S16         1.1992  -20.1386  -46.4702 S.3       23 UNK        -0.2404 
     17 C17        -0.1702  -21.1814  -47.0793 C.3       23 UNK        -0.0398 
     18 CA          0.0510  -22.6880  -46.8000 C.3       11 UNK         0.1400 
     19 N           0.3515  -22.9654  -45.3922 N.am      11 UNK        -0.5000 
     20 C           0.8945  -24.1029  -44.9374 C.2       10 UNK         0.5000 
     21 O           1.2076  -25.0424  -45.6657 O.2       10 UNK        -0.5000 
     22 CA          1.0795  -24.2331  -43.4127 C.3       10 UNK         0.1400 
     23 CB          2.4461  -23.6739  -42.9909 C.3       10 UNK        -0.1800 
     24 N           0.0294  -23.5589  -42.6489 N.am      10 UNK        -0.5000 
     25 C          -1.2733  -23.8755  -42.6852 C.2       9 UNK         0.5000 
     26 O          -1.7226  -24.8341  -43.3120 O.2       9 UNK        -0.5000 
     27 CA         -2.2398  -22.9149  -41.9622 C.3       9 UNK         0.1400 
     28 CB         -2.4969  -23.3898  -40.5249 C.3       9 UNK        -0.1800 
     29 N          -1.7598  -21.5275  -41.9389 N.am      9 UNK        -0.5000 
     30 C          -1.5289  -20.7875  -43.0322 C.2       8 UNK         0.5000 
     31 O          -1.7551  -21.1842  -44.1775 O.2       8 UNK        -0.5000 
     32 CA         -0.8428  -19.4302  -42.8004 C.3       8 UNK         0.1400 
     33 CB          0.6354  -19.6410  -42.4305 C.3       8 UNK        -0.1800 
     34 N          -0.8948  -18.5814  -43.9882 N.am      8 UNK        -0.5000 
     35 C          -1.9465  -17.8419  -44.3529 C.2       7 UNK         0.5000 
     36 O          -3.0097  -17.7972  -43.7282 O.2       7 UNK        -0.5000 
     37 CA         -1.7710  -17.0018  -45.6331 C.3       7 UNK         0.1400 
     38 CB         -2.4363  -17.6885  -46.8347 C.3       7 UNK        -0.1800 
     39 N          -2.3141  -15.6498  -45.4874 N.am      7 UNK        -0.5000 
     40 C          -1.8434  -14.7347  -44.6306 C.2       6 UNK         0.5000 
     41 O          -0.9020  -14.9334  -43.8589 O.2       6 UNK        -0.5000 
     42 CA         -2.5278  -13.3581  -44.6359 C.3       6 UNK         0.1400 
     43 CB         -3.2901  -13.1164  -43.3235 C.3       6 UNK        -0.1800 
     44 N          -1.4994  -12.3336  -44.7918 N.am      6 UNK        -0.5000 
     45 C          -1.0400  -11.9023  -45.9729 C.2       5 UNK         0.5000 
     46 O          -1.5862  -12.1554  -47.0465 O.2       5 UNK        -0.5000 
     47 CA          0.2523  -11.0591  -45.9653 C.3       5 UNK         0.1400 
     48 CB         -0.0708   -9.5672  -46.1334 C.3       5 UNK        -0.1800 
     49 N           1.0845  -11.2339  -44.7697 N.am      5 UNK        -0.5000 
     50 C           1.7202  -12.3647  -44.4320 C.2       4 UNK         0.5000 
     51 O           1.6607  -13.4020  -45.0899 O.2       4 UNK        -0.5000 
     52 CA          2.6213  -12.2813  -43.1911 C.3       4 UNK         0.1400 
     53 CB          3.1537  -13.6562  -42.7482 C.3       4 UNK        -0.1800 
     54 N           3.7503  -11.4261  -43.5346 N.am      4 UNK        -0.5000 
     55 C           3.9923  -10.2058  -43.0417 C.2       3 UNK         0.5000 
     56 O           3.3301   -9.6789  -42.1474 O.2       3 UNK        -0.5000 
     57 CA          5.1425   -9.4279  -43.7058 C.3       3 UNK         0.1400 
     58 CB          6.5062   -9.9512  -43.2281 C.3       3 UNK        -0.1800 
     59 N           5.0682   -9.5265  -45.1642 N.am      3 UNK        -0.5000 
     60 C           4.1881   -8.8585  -45.9264 C.2       2 UNK         0.5000 
     61 O           3.4214   -7.9966  -45.4977 O.2       2 UNK        -0.5000 
     62 CA          4.1123   -9.2786  -47.3999 C.3       2 UNK         0.1400 
     63 CB          5.3379   -8.7890  -48.1929 C.3       2 UNK        -0.1800 
     64 N           3.9996  -10.7305  -47.4443 N.am      2 UNK        -0.5000 
     65 C           3.6145  -11.4960  -48.4656 C.2       1 UNK         0.5000 
     66 O           3.3640  -11.0633  -49.5914 O.2       1 UNK        -0.5000 
     67 C          -1.1668  -23.5040  -47.2759 C.2       11 UNK         0.5000 
     68 O          -1.2163  -23.9049  -48.4398 O.2       11 UNK        -0.5000 
     69 N          -2.1263  -23.7437  -46.3708 N.am      12 UNK        -0.5000 
     70 CA         -3.2787  -24.6103  -46.6085 C.3       12 UNK         0.1400 
     71 CB         -4.3783  -24.3184  -45.5781 C.3       12 UNK        -0.1800 
     72 C          -2.8748  -26.0941  -46.6033 C.2       12 UNK         0.5000 
     73 O          -3.3180  -26.8394  -47.4751 O.2       12 UNK        -0.5000 
     74 N          -1.9922  -26.4852  -45.6716 N.am      13 UNK        -0.5000 
     75 CA         -1.3987  -27.8246  -45.5895 C.3       13 UNK         0.1400 
     76 CB         -0.5779  -27.9443  -44.2973 C.3       13 UNK        -0.1800 
     77 C          -0.5371  -28.1799  -46.8186 C.2       13 UNK         0.5000 
     78 O          -0.5445  -29.3309  -47.2554 O.2       13 UNK        -0.5000 
     79 N           0.1440  -27.1738  -47.3850 N.am      14 UNK        -0.5000 
     80 CA          0.8805  -27.2469  -48.6502 C.3       14 UNK         0.1400 
     81 CB          1.8477  -26.0543  -48.7277 C.3       14 UNK        -0.1800 
     82 C          -0.0275  -27.2850  -49.8999 C.2       14 UNK         0.5000 
     83 O           0.4889  -27.4394  -51.0071 O.2       14 UNK        -0.5000 
     84 N          -1.3471  -27.1339  -49.7094 N.am      15 UNK        -0.5000 
     85 CA         -2.4110  -27.1323  -50.7167 C.3       15 UNK         0.1400 
     86 CB         -2.4680  -28.4730  -51.4785 C.3       15 UNK        -0.1800 
     87 C          -2.3877  -25.9060  -51.6517 C.2       15 UNK         0.5000 
     88 O          -2.9718  -25.9610  -52.7346 O.2       15 UNK        -0.5000 
     89 N          -1.7519  -24.8103  -51.2128 N.am      16 UNK        -0.5000 
     90 CA         -1.7647  -23.5238  -51.9037 C.3       16 UNK         0.1400 
     91 CB         -0.4756  -22.7415  -51.5898 C.3       16 UNK        -0.1800 
     92 C          -3.0279  -22.7548  -51.4963 C.2       16 UNK         0.5000 
     93 O          -3.9540  -22.6267  -52.2951 O.2       16 UNK        -0.5000 
     94 N          -3.0815  -22.3315  -50.2262 N.am      17 UNK        -0.5000 
     95 CA         -4.1762  -21.5407  -49.6507 C.3       17 UNK         0.1400 
     96 CB         -3.6954  -20.8918  -48.3448 C.3       17 UNK        -0.1800 
     97 C          -5.4846  -22.3299  -49.4399 C.2       17 UNK         0.5000 
     98 O          -6.4971  -21.7368  -49.0672 O.2       17 UNK        -0.5000 
     99 N          -5.4513  -23.6449  -49.6964 N.am      18 UNK        -0.5000 
    100 CA        -6.6274  -24.5085  -49.7825 C.3       18 UNK         0.1400 
    101 CB        -6.1706  -25.9746  -49.7967 C.3       18 UNK        -0.1800 
    102 C         -7.4936  -24.2011  -51.0218 C.2       18 UNK         0.5000 
    103 O         -8.7039  -24.4254  -50.9789 O.2       18 UNK        -0.5000 
    104 N         -6.8713  -23.6865  -52.0925 N.am      19 UNK        -0.5000 
    105 CA        -7.5540  -23.1861  -53.2812 C.3       19 UNK         0.1400 
    106 CB        -6.6332  -23.3628  -54.4989 C.3       19 UNK        -0.1800 
    107 C         -7.8972  -21.7015  -53.0879 C.2       19 UNK         0.5000 
    108 O         -7.0901  -20.9574  -52.5266 O.2       19 UNK        -0.5000 
    109 N         -9.0568  -21.2772  -53.6068 N.am      20 UNK        -0.5000 
    110 CA        -9.5403  -19.8918  -53.5415 C.3       20 UNK         0.1400 
    111 CB       -10.9847  -19.8380  -54.0618 C.3       20 UNK        -0.1800 
    112 C         -8.6524  -18.8891  -54.3072 C.2       20 UNK         0.5000 
    113 O         -8.5829  -17.7202  -53.9263 O.2       20 UNK        -0.5000 
    114 N         -7.9719  -19.3739  -55.3542 N.am      21 UNK        -0.5000 
    115 CA        -6.9898  -18.6258  -56.1403 C.3       21 UNK         0.1400 
    116 CB        -6.9044  -19.2603  -57.5382 C.3       21 UNK        -0.1800 
    117 C         -5.5929  -18.5760  -55.4840 C.2       21 UNK         0.5000 
    118 O         -4.7273  -17.8546  -55.9807 O.2       21 UNK        -0.5000 
    119 N         -5.3831  -19.3465  -54.4060 N.am      22 UNK        -0.5000 
    120 CA        -4.1064  -19.5169  -53.6909 C.3       22 UNK         0.1400 
    121 C         -3.0208  -20.3144  -54.4835 C.2       22 UNK         0.5000 
    122 N         -3.3658  -21.0162  -55.5570 N.am      22 UNK        -0.7600 
    123 O         -1.8497  -20.3215  -54.1186 O.2       22 UNK        -0.5000 
    124 C124       -3.5818  -18.1841  -53.0812 C.3       23 UNK        -0.0398 
    125 S125       -2.8561  -18.3815  -51.4159 S.3       23 UNK        -0.2404 
    126 C126       -1.1025  -18.0412  -51.7538 C.3       23 UNK        -0.0205 
    127 H127        7.6347  -13.3622  -46.3742 H         1 UNK         0.0600 
    128 H128        7.0804  -14.6945  -47.3934 H         1 UNK         0.0600 
    129 H129        6.8236  -14.7530  -45.6468 H         1 UNK         0.0600 
    130 H130        5.2450  -14.1534  -48.5212 H         1 UNK         0.3000 
    131 H131        2.9076  -13.0848  -47.2446 H         1 UNK         0.0600 
    132 H132        3.2199  -13.6583  -50.2177 H         1 UNK         0.0800 
    133 H133        2.9406  -14.9090  -49.0425 H         1 UNK         0.0800 
    134 H134        0.8755  -14.7614  -47.2156 H         1 UNK         0.0800 
    135 H135       -0.7003  -14.5569  -47.9334 H         1 UNK         0.0800 
    136 H136       -0.9324  -15.6997  -50.3938 H         1 UNK         0.1150 
    137 H137        0.4217  -19.7642  -50.2768 H         1 UNK         0.1150 
    138 H138        1.7057  -16.9872  -47.2706 H         1 UNK         0.1150 
    139 H139        2.1142  -20.4350  -48.6879 H         1 UNK         0.0800 
    140 H140        2.9626  -19.1939  -47.8021 H         1 UNK         0.0800 
    141 H141       -0.3073  -21.0139  -48.1483 H         1 UNK         0.0800 
    142 H142       -1.0868  -20.8311  -46.6054 H         1 UNK         0.0800 
    143 H143        0.9085  -23.0112  -47.3940 H         1 UNK         0.0600 
    144 H144        0.0659  -22.2526  -44.7344 H         1 UNK         0.3000 
    145 H145        1.0501  -25.2945  -43.1604 H         1 UNK         0.0600 
    146 H146        2.6227  -23.8243  -41.9257 H         1 UNK         0.0600 
    147 H147        3.2541  -24.1739  -43.5268 H         1 UNK         0.0600 
    148 H148        2.5264  -22.6059  -43.1982 H         1 UNK         0.0600 
    149 H149        0.3108  -22.7608  -42.0998 H         1 UNK         0.3000 
    150 H150       -3.1871  -22.9329  -42.5053 H         1 UNK         0.0600 
    151 H151       -1.5866  -23.3704  -39.9245 H         1 UNK         0.0600 
    152 H152       -2.8757  -24.4128  -40.5142 H         1 UNK         0.0600 
    153 H153       -3.2403  -22.7647  -40.0298 H         1 UNK         0.0600 
    154 H154       -1.5469  -21.1416  -41.0301 H         1 UNK         0.3000 
    155 H155       -1.3454  -18.9225  -41.9745 H         1 UNK         0.0600 
    156 H156        1.1766  -20.1717  -43.2152 H         1 UNK         0.0600 
    157 H157        0.7378  -20.2192  -41.5115 H         1 UNK         0.0600 
    158 H158        1.1386  -18.6879  -42.2654 H         1 UNK         0.0600 
    159 H159       -0.0829  -18.6089  -44.5880 H         1 UNK         0.3000 
    160 H160       -0.7042  -16.9037  -45.8450 H         1 UNK         0.0600 
    161 H161       -3.5008  -17.8569  -46.6678 H         1 UNK         0.0600 
    162 H162       -1.9733  -18.6558  -47.0245 H         1 UNK         0.0600 
    163 H163       -2.3266  -17.0980  -47.7442 H         1 UNK         0.0600 
    164 H164       -3.1094  -15.4218  -46.0654 H         1 UNK         0.3000 
    165 H165       -3.2414  -13.3046  -45.4610 H         1 UNK         0.0600 
    166 H166       -3.7784  -12.1418  -43.3260 H         1 UNK         0.0600 
    167 H167       -4.0659  -13.8697  -43.1808 H         1 UNK         0.0600 
    168 H168       -2.6289  -13.1579  -42.4569 H         1 UNK         0.0600 
    169 H169       -0.9606  -12.1160  -43.9668 H         1 UNK         0.3000 
    170 H170        0.8426  -11.3750  -46.8278 H         1 UNK         0.0600 
    171 H171       -0.6649   -9.3944  -47.0318 H         1 UNK         0.0600 
    172 H172       -0.6370   -9.1805  -45.2853 H         1 UNK         0.0600 
    173 H173        0.8389   -8.9744  -46.2298 H         1 UNK         0.0600 
    174 H174        1.2079  -10.4188  -44.1856 H         1 UNK         0.3000 
    175 H175        2.0342  -11.8588  -42.3733 H         1 UNK         0.0600 
    176 H176        2.3325  -14.3355  -42.5160 H         1 UNK         0.0600 
    177 H177        3.7603  -14.1244  -43.5249 H         1 UNK         0.0600 
    178 H178        3.7689  -13.5682  -41.8528 H         1 UNK         0.0600 
    179 H179        4.3392  -11.7814  -44.2840 H         1 UNK         0.3000 
    180 H180        5.0579   -8.3783  -43.4157 H         1 UNK         0.0600 
    181 H181        6.6619  -10.9937  -43.5095 H         1 UNK         0.0600 
    182 H182        6.5894   -9.8877  -42.1424 H         1 UNK         0.0600 
    183 H183        7.3221   -9.3650  -43.6511 H         1 UNK         0.0600 
    184 H184        5.6744  -10.2085  -45.5973 H         1 UNK         0.3000 
    185 H185        3.2086   -8.8441  -47.8321 H         1 UNK         0.0600 
    186 H186        5.4504   -7.7076  -48.1066 H         1 UNK         0.0600 
    187 H187        6.2608   -9.2466  -47.8351 H         1 UNK         0.0600 
    188 H188        5.2417   -9.0194  -49.2539 H         1 UNK         0.0600 
    189 H189        4.2220  -11.2162  -46.5804 H         1 UNK         0.3000 
    190 H190       -2.0188  -23.3670  -45.4387 H         1 UNK         0.3000 
    191 H191       -3.6817  -24.3816  -47.5966 H         1 UNK         0.0600 
    192 H192       -4.6825  -23.2721  -45.6145 H         1 UNK         0.0600 
    193 H193       -5.2649  -24.9216  -45.7771 H         1 UNK         0.0600 
    194 H194       -4.0542  -24.5382  -44.5611 H         1 UNK         0.0600 
    195 H195       -1.7285  -25.8258  -44.9446 H         1 UNK         0.3000 
    196 H196       -2.2175  -28.5453  -45.5401 H         1 UNK         0.0600 
    197 H197       -0.1889  -28.9559  -44.1757 H         1 UNK         0.0600 
    198 H198       -1.1853  -27.7208  -43.4200 H         1 UNK         0.0600 
    199 H199        0.2738  -27.2649  -44.2983 H         1 UNK         0.0600 
    200 H200        0.1745  -26.2828  -46.9014 H         1 UNK         0.3000 
    201 H201        1.4707  -28.1653  -48.6513 H         1 UNK         0.0600 
    202 H202        2.4527  -26.0952  -49.6343 H         1 UNK         0.0600 
    203 H203        2.5356  -26.0483  -47.8821 H         1 UNK         0.0600 
    204 H204        1.3131  -25.1043  -48.7332 H         1 UNK         0.0600 
    205 H205       -1.6749  -27.0145  -48.7582 H         1 UNK         0.3000 
    206 H206       -3.3403  -27.0500  -50.1539 H         1 UNK         0.0600 
    207 H207       -2.4844  -29.3174  -50.7894 H         1 UNK         0.0600 
    208 H208       -3.3697  -28.5377  -52.0886 H         1 UNK         0.0600 
    209 H209       -1.6153  -28.5991  -52.1459 H         1 UNK         0.0600 
    210 H210       -1.3444  -24.8194  -50.2840 H         1 UNK         0.3000 
    211 H211       -1.8003  -23.6811  -52.9841 H         1 UNK         0.0600 
    212 H212       -0.3333  -22.5735  -50.5229 H         1 UNK         0.0600 
    213 H213       -0.4887  -21.7645  -52.0750 H         1 UNK         0.0600 
    214 H214        0.4009  -23.2743  -51.9584 H         1 UNK         0.0600 
    215 H215       -2.3196  -22.5793  -49.6073 H         1 UNK         0.3000 
    216 H216       -4.4116  -20.7396  -50.3537 H         1 UNK         0.0600 
    217 H217       -4.4439  -20.2019  -47.9534 H         1 UNK         0.0600 
    218 H218       -2.7847  -20.3174  -48.5107 H         1 UNK         0.0600 
    219 H219       -3.5001  -21.6318  -47.5703 H         1 UNK         0.0600 
    220 H220       -4.5750  -24.0372  -50.0039 H         1 UNK         0.3000 
    221 H221       -7.2404  -24.3460  -48.8934 H         1 UNK         0.0600 
    222 H222       -5.5692  -26.1990  -50.6783 H         1 UNK         0.0600 
    223 H223       -5.5806  -26.2144  -48.9122 H         1 UNK         0.0600 
    224 H224       -7.0279  -26.6487  -49.8062 H         1 UNK         0.0600 
    225 H225       -5.8858  -23.4561  -52.0279 H         1 UNK         0.3000 
    226 H226       -8.4710  -23.7538  -53.4528 H         1 UNK         0.0600 
    227 H227       -7.1237  -23.0278  -55.4136 H         1 UNK         0.0600 
    228 H228       -5.7092  -22.7926  -54.3935 H         1 UNK         0.0600 
    229 H229       -6.3633  -24.4096  -54.6391 H         1 UNK         0.0600 
    230 H230       -9.6642  -21.9427  -54.0637 H         1 UNK         0.3000 
    231 H231       -9.5437  -19.5887  -52.4923 H         1 UNK         0.0600 
    232 H232      -11.0500  -20.1562  -55.1031 H         1 UNK         0.0600 
    233 H233      -11.3838  -18.8245  -54.0028 H         1 UNK         0.0600 
    234 H234      -11.6411  -20.4783  -53.4722 H         1 UNK         0.0600 
    235 H235       -8.1046  -20.3437  -55.6002 H         1 UNK         0.3000 
    236 H236       -7.3340  -17.5957  -56.2542 H         1 UNK         0.0600 
    237 H237       -7.8746  -19.2501  -58.0354 H         1 UNK         0.0600 
    238 H238       -6.2099  -18.7126  -58.1766 H         1 UNK         0.0600 
    239 H239       -6.5615  -20.2946  -57.4917 H         1 UNK         0.0600 
    240 H240       -6.1543  -19.8825  -54.0255 H         1 UNK         0.3000 
    241 H241       -4.3739  -20.1667  -52.8596 H         1 UNK         0.0600 
    242 H242       -4.3204  -21.0368  -55.8732 H         1 UNK         0.3800 
    243 H243       -2.6586  -21.5318  -56.0559 H         1 UNK         0.3800 
    244 H244       -2.8833  -17.6900  -53.7582 H         1 UNK         0.0800 
    245 H245       -4.4065  -17.4806  -52.9591 H         1 UNK         0.0800 
    246 H246       -0.6617  -18.8869  -52.2824 H         1 UNK         0.0800 
    247 H247       -1.0135  -17.1807  -52.4184 H         1 UNK         0.0800 
@<TRIPOS>BOND
     1    1    2 1    
     2    1  127 1    
     3    1  128 1    
     4    1  129 1    
     5    2    3 2    
     6    2    4 am   BACKBONE|DICT|INTERRES
     7    4    5 1    
     8    4  130 1    
     9    5    6 1    
    10    5   65 1    
    11    5  131 1    
    12    6    7 1    
    13    6  132 1    
    14    6  133 1    
    15    7    8 1    
    16    8    9 1    
    17    8  134 1    
    18    8  135 1    
    19    9   10 ar   
    20    9   14 ar   
    21   10   11 ar   
    22   10  136 1    
    23   11   12 ar   
    24   11  126 1    
    25   12   13 ar   
    26   12  137 1    
    27   13   14 ar   
    28   13   15 1    
    29   14  138 1    
    30   15   16 1    
    31   15  139 1    
    32   15  140 1    
    33   16   17 1    
    34   17   18 1    
    35   17  141 1    
    36   17  142 1    
    37   18   19 1    
    38   18   67 1    
    39   18  143 1    
    40   19   20 am   BACKBONE|DICT|INTERRES
    41   19  144 1    
    42   20   21 2    
    43   20   22 1    
    44   22   23 1    
    45   22   24 1    
    46   22  145 1    
    47   23  146 1    
    48   23  147 1    
    49   23  148 1    
    50   24   25 am   BACKBONE|DICT|INTERRES
    51   24  149 1    
    52   25   26 2    
    53   25   27 1    
    54   27   28 1    
    55   27   29 1    
    56   27  150 1    
    57   28  151 1    
    58   28  152 1    
    59   28  153 1    
    60   29   30 am   BACKBONE|DICT|INTERRES
    61   29  154 1    
    62   30   31 2    
    63   30   32 1    
    64   32   33 1    
    65   32   34 1    
    66   32  155 1    
    67   33  156 1    
    68   33  157 1    
    69   33  158 1    
    70   34   35 am   BACKBONE|DICT|INTERRES
    71   34  159 1    
    72   35   36 2    
    73   35   37 1    
    74   37   38 1    
    75   37   39 1    
    76   37  160 1    
    77   38  161 1    
    78   38  162 1    
    79   38  163 1    
    80   39   40 am   BACKBONE|DICT|INTERRES
    81   39  164 1    
    82   40   41 2    
    83   40   42 1    
    84   42   43 1    
    85   42   44 1    
    86   42  165 1    
    87   43  166 1    
    88   43  167 1    
    89   43  168 1    
    90   44   45 am   BACKBONE|DICT|INTERRES
    91   44  169 1    
    92   45   46 2    
    93   45   47 1    
    94   47   48 1    
    95   47   49 1    
    96   47  170 1    
    97   48  171 1    
    98   48  172 1    
    99   48  173 1    
   100   49   50 am   BACKBONE|DICT|INTERRES
   101   49  174 1    
   102   50   51 2    
   103   50   52 1    
   104   52   53 1    
   105   52   54 1    
   106   52  175 1    
   107   53  176 1    
   108   53  177 1    
   109   53  178 1    
   110   54   55 am   BACKBONE|DICT|INTERRES
   111   54  179 1    
   112   55   56 2    
   113   55   57 1    
   114   57   58 1    
   115   57   59 1    
   116   57  180 1    
   117   58  181 1    
   118   58  182 1    
   119   58  183 1    
   120   59   60 am   BACKBONE|DICT|INTERRES
   121   59  184 1    
   122   60   61 2    
   123   60   62 1    
   124   62   63 1    
   125   62   64 1    
   126   62  185 1    
   127   63  186 1    
   128   63  187 1    
   129   63  188 1    
   130   64   65 am   BACKBONE|DICT|INTERRES
   131   64  189 1    
   132   65   66 2    
   133   67   68 2    
   134   67   69 am   BACKBONE|DICT|INTERRES
   135   69   70 1    
   136   69  190 1    
   137   70   71 1    
   138   70   72 1    
   139   70  191 1    
   140   71  192 1    
   141   71  193 1    
   142   71  194 1    
   143   72   73 2    
   144   72   74 am   BACKBONE|DICT|INTERRES
   145   74   75 1    
   146   74  195 1    
   147   75   76 1    
   148   75   77 1    
   149   75  196 1    
   150   76  197 1    
   151   76  198 1    
   152   76  199 1    
   153   77   78 2    
   154   77   79 am   BACKBONE|DICT|INTERRES
   155   79   80 1    
   156   79  200 1    
   157   80   81 1    
   158   80   82 1    
   159   80  201 1    
   160   81  202 1    
   161   81  203 1    
   162   81  204 1    
   163   82   83 2    
   164   82   84 am   BACKBONE|DICT|INTERRES
   165   84   85 1    
   166   84  205 1    
   167   85   86 1    
   168   85   87 1    
   169   85  206 1    
   170   86  207 1    
   171   86  208 1    
   172   86  209 1    
   173   87   88 2    
   174   87   89 am   BACKBONE|DICT|INTERRES
   175   89   90 1    
   176   89  210 1    
   177   90   91 1    
   178   90   92 1    
   179   90  211 1    
   180   91  212 1    
   181   91  213 1    
   182   91  214 1    
   183   92   93 2    
   184   92   94 am   BACKBONE|DICT|INTERRES
   185   94   95 1    
   186   94  215 1    
   187   95   96 1    
   188   95   97 1    
   189   95  216 1    
   190   96  217 1    
   191   96  218 1    
   192   96  219 1    
   193   97   98 2    
   194   97   99 am   BACKBONE|DICT|INTERRES
   195   99  100 1    
   196   99  220 1    
   197  100  101 1    
   198  100  102 1    
   199  100  221 1    
   200  101  222 1    
   201  101  223 1    
   202  101  224 1    
   203  102  103 2    
   204  102  104 am   BACKBONE|DICT|INTERRES
   205  104  105 1    
   206  104  225 1    
   207  105  106 1    
   208  105  107 1    
   209  105  226 1    
   210  106  227 1    
   211  106  228 1    
   212  106  229 1    
   213  107  108 2    
   214  107  109 am   BACKBONE|DICT|INTERRES
   215  109  110 1    
   216  109  230 1    
   217  110  111 1    
   218  110  112 1    
   219  110  231 1    
   220  111  232 1    
   221  111  233 1    
   222  111  234 1    
   223  112  113 2    
   224  112  114 am   BACKBONE|DICT|INTERRES
   225  114  115 1    
   226  114  235 1    
   227  115  116 1    
   228  115  117 1    
   229  115  236 1    
   230  116  237 1    
   231  116  238 1    
   232  116  239 1    
   233  117  118 2    
   234  117  119 am   BACKBONE|DICT|INTERRES
   235  119  120 1    
   236  119  240 1    
   237  120  121 1    
   238  120  124 1    
   239  120  241 1    
   240  121  122 am   BACKBONE|DICT|INTERRES
   241  121  123 2    
   242  122  242 1    
   243  122  243 1    
   244  124  125 1    
   245  124  244 1    
   246  124  245 1    
   247  125  126 1    
   248  126  246 1    
   249  126  247 1    
@<TRIPOS>SUBSTRUCTURE
     1 UNK         1 GROUP             0       ****    0 ROOT    
