@<TRIPOS>MOLECULE
3R540
247   249    1
SMALL
USER_CHARGES


@<TRIPOS>ATOM
      1 CA          9.6745  -12.3419  -48.6971 C.3       0 UNK        -0.1800 
      2 C           8.3845  -12.7693  -48.0121 C.2       0 UNK         0.5000 
      3 O           8.3652  -12.9483  -46.7937 O.2       0 UNK        -0.5000 
      4 N           7.2987  -12.9168  -48.7817 N.am      1 UNK        -0.5000 
      5 CA          5.9637  -13.3299  -48.3265 C.3       1 UNK         0.1400 
      6 C6          5.1809  -14.0160  -49.4772 C.3       23 UNK        -0.0398 
      7 S7          3.9276  -15.2033  -48.8895 S.3       23 UNK        -0.2404 
      8 C8          3.3293  -15.8130  -50.4944 C.3       23 UNK        -0.0205 
      9 C9          2.2711  -16.8905  -50.3277 C.ar      23 UNK        -0.0193 
     10 C10         0.9234  -16.5402  -50.2135 C.ar      23 UNK        -0.1150 
     11 C11        -0.0593  -17.5262  -50.0896 C.ar      23 UNK        -0.0193 
     12 C12         0.3177  -18.8730  -50.0692 C.ar      23 UNK        -0.1150 
     13 C13         1.6640  -19.2365  -50.1849 C.ar      23 UNK        -0.0193 
     14 C14         2.6352  -18.2397  -50.3150 C.ar      23 UNK        -0.1150 
     15 C15         2.0685  -20.7052  -50.2014 C.3       23 UNK        -0.0205 
     16 S16         3.0540  -21.1979  -48.7449 S.3       23 UNK        -0.2404 
     17 C17         1.9131  -20.8642  -47.3596 C.3       23 UNK        -0.0398 
     18 CA          1.1120  -22.1007  -46.8841 C.3       11 UNK         0.1400 
     19 N           0.4827  -21.8666  -45.5820 N.am      11 UNK        -0.5000 
     20 C          -0.2090  -22.7740  -44.8776 C.2       10 UNK         0.5000 
     21 O          -0.3279  -23.9535  -45.2072 O.2       10 UNK        -0.5000 
     22 CA         -0.9400  -22.2648  -43.6226 C.3       10 UNK         0.1400 
     23 CB          0.0163  -22.1911  -42.4233 C.3       10 UNK        -0.1800 
     24 N          -1.5758  -20.9628  -43.8349 N.am      10 UNK        -0.5000 
     25 C          -2.5741  -20.7386  -44.7022 C.2       9 UNK         0.5000 
     26 O          -3.1030  -21.6234  -45.3747 O.2       9 UNK        -0.5000 
     27 CA         -3.0227  -19.2771  -44.8903 C.3       9 UNK         0.1400 
     28 CB         -3.9456  -18.8311  -43.7472 C.3       9 UNK        -0.1800 
     29 N          -1.8917  -18.3550  -45.0038 N.am      9 UNK        -0.5000 
     30 C          -0.9976  -18.3773  -46.0021 C.2       8 UNK         0.5000 
     31 O          -1.0743  -19.1404  -46.9639 O.2       8 UNK        -0.5000 
     32 CA          0.2135  -17.4343  -45.8796 C.3       8 UNK         0.1400 
     33 CB         -0.1163  -16.0297  -46.3983 C.3       8 UNK        -0.1800 
     34 N           0.7109  -17.3406  -44.5074 N.am      8 UNK        -0.5000 
     35 C           1.2793  -18.3525  -43.8388 C.2       7 UNK         0.5000 
     36 O           1.4848  -19.4633  -44.3263 O.2       7 UNK        -0.5000 
     37 CA          1.6299  -18.0929  -42.3635 C.3       7 UNK         0.1400 
     38 CB          2.9273  -17.2829  -42.2453 C.3       7 UNK        -0.1800 
     39 N           0.5505  -17.4070  -41.6495 N.am      7 UNK        -0.5000 
     40 C          -0.6388  -17.9652  -41.3825 C.2       6 UNK         0.5000 
     41 O          -0.9366  -19.1160  -41.6989 O.2       6 UNK        -0.5000 
     42 CA         -1.6863  -17.0883  -40.6716 C.3       6 UNK         0.1400 
     43 CB         -1.5033  -17.1621  -39.1485 C.3       6 UNK        -0.1800 
     44 N          -1.6882  -15.6839  -41.0903 N.am      6 UNK        -0.5000 
     45 C          -1.8836  -15.2450  -42.3413 C.2       5 UNK         0.5000 
     46 O          -2.0018  -15.9944  -43.3123 O.2       5 UNK        -0.5000 
     47 CA         -1.9477  -13.7243  -42.5605 C.3       5 UNK         0.1400 
     48 CB         -1.6888  -12.8766  -41.2966 C.3       5 UNK        -0.1800 
     49 N          -0.9783  -13.3795  -43.5894 N.am      5 UNK        -0.5000 
     50 C          -1.0767  -12.3918  -44.4808 C.2       4 UNK         0.5000 
     51 O          -2.0328  -11.6160  -44.5370 O.2       4 UNK        -0.5000 
     52 CA          0.1159  -12.2442  -45.4525 C.3       4 UNK         0.1400 
     53 CB         -0.0491  -11.0648  -46.4271 C.3       4 UNK        -0.1800 
     54 N           1.3941  -12.0929  -44.7538 N.am      4 UNK        -0.5000 
     55 C           2.0780  -13.0417  -44.1025 C.2       3 UNK         0.5000 
     56 O           1.6932  -14.2103  -44.0050 O.2       3 UNK        -0.5000 
     57 CA          3.4052  -12.5928  -43.4540 C.3       3 UNK         0.1400 
     58 CB          4.1356  -13.7366  -42.7307 C.3       3 UNK        -0.1800 
     59 N           4.3182  -12.0005  -44.4324 N.am      3 UNK        -0.5000 
     60 C           4.2521  -10.7521  -44.9146 C.2       2 UNK         0.5000 
     61 O           3.3895   -9.9393  -44.5781 O.2       2 UNK        -0.5000 
     62 CA          5.3114  -10.3497  -45.9569 C.3       2 UNK         0.1400 
     63 CB          6.4763   -9.6097  -45.2822 C.3       2 UNK        -0.1800 
     64 N           5.8434  -11.4942  -46.6986 N.am      2 UNK        -0.5000 
     65 C           5.1981  -12.1530  -47.6698 C.2       1 UNK         0.5000 
     66 O           4.0706  -11.8409  -48.0563 O.2       1 UNK        -0.5000 
     67 C           0.0747  -22.5473  -47.9335 C.2       11 UNK         0.5000 
     68 O           0.2794  -23.5677  -48.5905 O.2       11 UNK        -0.5000 
     69 N          -1.0354  -21.8023  -48.0440 N.am      12 UNK        -0.5000 
     70 CA         -2.1470  -22.1054  -48.9440 C.3       12 UNK         0.1400 
     71 CB         -3.1829  -20.9741  -48.8954 C.3       12 UNK        -0.1800 
     72 C          -2.8091  -23.4568  -48.6334 C.2       12 UNK         0.5000 
     73 O          -3.0985  -24.2101  -49.5616 O.2       12 UNK        -0.5000 
     74 N          -3.0124  -23.7545  -47.3434 N.am      13 UNK        -0.5000 
     75 CA         -3.5515  -25.0268  -46.8644 C.3       13 UNK         0.1400 
     76 CB         -3.8343  -24.9361  -45.3578 C.3       13 UNK        -0.1800 
     77 C          -2.6311  -26.2182  -47.1862 C.2       13 UNK         0.5000 
     78 O          -3.1174  -27.2410  -47.6688 O.2       13 UNK        -0.5000 
     79 N          -1.3201  -26.0516  -46.9592 N.am      14 UNK        -0.5000 
     80 CA         -0.2862  -27.0412  -47.2731 C.3       14 UNK         0.1400 
     81 CB          1.0516  -26.5957  -46.6633 C.3       14 UNK        -0.1800 
     82 C          -0.1369  -27.2969  -48.7848 C.2       14 UNK         0.5000 
     83 O           0.0470  -28.4441  -49.1931 O.2       14 UNK        -0.5000 
     84 N          -0.2471  -26.2302  -49.5873 N.am      15 UNK        -0.5000 
     85 CA         -0.2202  -26.2724  -51.0507 C.3       15 UNK         0.1400 
     86 CB          0.0609  -24.8547  -51.5761 C.3       15 UNK        -0.1800 
     87 C          -1.5175  -26.8207  -51.6803 C.2       15 UNK         0.5000 
     88 O          -1.5169  -27.1243  -52.8739 O.2       15 UNK        -0.5000 
     89 N          -2.5976  -26.9017  -50.8869 N.am      16 UNK        -0.5000 
     90 CA         -3.9786  -27.2060  -51.2826 C.3       16 UNK         0.1400 
     91 CB         -4.1052  -28.6476  -51.8166 C.3       16 UNK        -0.1800 
     92 C          -4.5602  -26.1434  -52.2426 C.2       16 UNK         0.5000 
     93 O          -5.3618  -26.4632  -53.1218 O.2       16 UNK        -0.5000 
     94 N          -4.1352  -24.8906  -52.0428 N.am      17 UNK        -0.5000 
     95 CA         -4.4905  -23.7136  -52.8316 C.3       17 UNK         0.1400 
     96 CB         -3.1938  -22.9823  -53.2127 C.3       17 UNK        -0.1800 
     97 C          -5.4351  -22.7711  -52.0633 C.2       17 UNK         0.5000 
     98 O          -5.8442  -21.7493  -52.6161 O.2       17 UNK        -0.5000 
     99 N          -5.7776  -23.1129  -50.8114 N.am      18 UNK        -0.5000 
    100 CA        -6.6728  -22.3515  -49.9335 C.3       18 UNK         0.1400 
    101 CB        -6.7066  -23.0083  -48.5457 C.3       18 UNK        -0.1800 
    102 C         -8.0978  -22.1877  -50.4939 C.2       18 UNK         0.5000 
    103 O         -8.7222  -21.1529  -50.2627 O.2       18 UNK        -0.5000 
    104 N         -8.5580  -23.1730  -51.2780 N.am      19 UNK        -0.5000 
    105 CA        -9.8281  -23.1430  -52.0102 C.3       19 UNK         0.1400 
    106 CB       -10.0872  -24.5332  -52.6104 C.3       19 UNK        -0.1800 
    107 C         -9.8802  -22.0626  -53.1119 C.2       19 UNK         0.5000 
    108 O        -10.9697  -21.6088  -53.4626 O.2       19 UNK        -0.5000 
    109 N         -8.7070  -21.6607  -53.6181 N.am      20 UNK        -0.5000 
    110 CA        -8.5182  -20.5810  -54.5870 C.3       20 UNK         0.1400 
    111 CB        -7.5694  -21.0854  -55.6885 C.3       20 UNK        -0.1800 
    112 C         -7.9535  -19.3093  -53.9201 C.2       20 UNK         0.5000 
    113 O         -7.5887  -18.3714  -54.6314 O.2       20 UNK        -0.5000 
    114 N         -7.8449  -19.3085  -52.5801 N.am      21 UNK        -0.5000 
    115 CA        -7.2499  -18.2695  -51.7304 C.3       21 UNK         0.1400 
    116 CB        -8.1818  -17.0423  -51.6626 C.3       21 UNK        -0.1800 
    117 C         -5.8035  -17.9102  -52.1407 C.2       21 UNK         0.5000 
    118 O         -5.4434  -16.7334  -52.1405 O.2       21 UNK        -0.5000 
    119 N         -5.0381  -18.9395  -52.5335 N.am      22 UNK        -0.5000 
    120 CA        -3.7020  -18.8946  -53.1549 C.3       22 UNK         0.1400 
    121 C         -3.5930  -18.1275  -54.5105 C.2       22 UNK         0.5000 
    122 N         -4.6905  -17.7829  -55.1752 N.am      22 UNK        -0.7600 
    123 O         -2.4939  -17.8857  -55.0021 O.2       22 UNK        -0.5000 
    124 C124       -2.5335  -18.6350  -52.1566 C.3       23 UNK        -0.0398 
    125 S125       -2.2951  -16.9074  -51.6116 S.3       23 UNK        -0.2404 
    126 C126       -1.5236  -17.1263  -49.9781 C.3       23 UNK        -0.0205 
    127 H127       10.4504  -13.0900  -48.5351 H         1 UNK         0.0600 
    128 H128       10.0214  -11.3942  -48.2852 H         1 UNK         0.0600 
    129 H129        9.5409  -12.2174  -49.7720 H         1 UNK         0.0600 
    130 H130        7.3739  -12.7125  -49.7684 H         1 UNK         0.3000 
    131 H131        6.1092  -14.0762  -47.5422 H         1 UNK         0.0600 
    132 H132        5.8728  -14.5845  -50.1008 H         1 UNK         0.0800 
    133 H133        4.7177  -13.2847  -50.1423 H         1 UNK         0.0800 
    134 H134        2.9222  -14.9796  -51.0694 H         1 UNK         0.0800 
    135 H135        4.1690  -16.2036  -51.0714 H         1 UNK         0.0800 
    136 H136        0.6378  -15.4977  -50.2298 H         1 UNK         0.1150 
    137 H137       -0.4390  -19.6374  -49.9688 H         1 UNK         0.1150 
    138 H138        3.6760  -18.5169  -50.4085 H         1 UNK         0.1150 
    139 H139        1.1918  -21.3479  -50.2860 H         1 UNK         0.0800 
    140 H140        2.6607  -20.8938  -51.0978 H         1 UNK         0.0800 
    141 H141        1.2535  -20.0352  -47.6089 H         1 UNK         0.0800 
    142 H142        2.5342  -20.5025  -46.5396 H         1 UNK         0.0800 
    143 H143        1.8139  -22.9258  -46.7463 H         1 UNK         0.0600 
    144 H144        0.5814  -20.9318  -45.1964 H         1 UNK         0.3000 
    145 H145       -1.7263  -22.9833  -43.3832 H         1 UNK         0.0600 
    146 H146       -0.5159  -21.9156  -41.5128 H         1 UNK         0.0600 
    147 H147        0.4918  -23.1560  -42.2429 H         1 UNK         0.0600 
    148 H148        0.8079  -21.4586  -42.5816 H         1 UNK         0.0600 
    149 H149       -1.2284  -20.1914  -43.2720 H         1 UNK         0.3000 
    150 H150       -3.5891  -19.2222  -45.8224 H         1 UNK         0.0600 
    151 H151       -4.8255  -19.4726  -43.6850 H         1 UNK         0.0600 
    152 H152       -4.2959  -17.8098  -43.8985 H         1 UNK         0.0600 
    153 H153       -3.4417  -18.8722  -42.7822 H         1 UNK         0.0600 
    154 H154       -1.7925  -17.6532  -44.2754 H         1 UNK         0.3000 
    155 H155        1.0131  -17.8406  -46.5024 H         1 UNK         0.0600 
    156 H156       -0.8735  -15.5383  -45.7871 H         1 UNK         0.0600 
    157 H157       -0.4910  -16.0690  -47.4193 H         1 UNK         0.0600 
    158 H158        0.7758  -15.4037  -46.4081 H         1 UNK         0.0600 
    159 H159        0.5825  -16.4564  -44.0366 H         1 UNK         0.3000 
    160 H160        1.7915  -19.0607  -41.8837 H         1 UNK         0.0600 
    161 H161        2.8308  -16.3103  -42.7248 H         1 UNK         0.0600 
    162 H162        3.7569  -17.8033  -42.7255 H         1 UNK         0.0600 
    163 H163        3.2026  -17.1212  -41.2031 H         1 UNK         0.0600 
    164 H164        0.7152  -16.4523  -41.3670 H         1 UNK         0.3000 
    165 H165       -2.6690  -17.4983  -40.9122 H         1 UNK         0.0600 
    166 H166       -2.3038  -16.6358  -38.6283 H         1 UNK         0.0600 
    167 H167       -1.5190  -18.1967  -38.8026 H         1 UNK         0.0600 
    168 H168       -0.5541  -16.7256  -38.8350 H         1 UNK         0.0600 
    169 H169       -1.5875  -14.9991  -40.3553 H         1 UNK         0.3000 
    170 H170       -2.9538  -13.5083  -42.9254 H         1 UNK         0.0600 
    171 H171       -2.4183  -13.0928  -40.5152 H         1 UNK         0.0600 
    172 H172       -0.6915  -13.0483  -40.8894 H         1 UNK         0.0600 
    173 H173       -1.7720  -11.8126  -41.5190 H         1 UNK         0.0600 
    174 H174       -0.1455  -13.9605  -43.6317 H         1 UNK         0.3000 
    175 H175        0.1579  -13.1556  -46.0493 H         1 UNK         0.0600 
    176 H176       -0.0881  -10.1104  -45.9005 H         1 UNK         0.0600 
    177 H177        0.7785  -11.0225  -47.1359 H         1 UNK         0.0600 
    178 H178       -0.9673  -11.1604  -47.0079 H         1 UNK         0.0600 
    179 H179        1.7997  -11.1629  -44.7622 H         1 UNK         0.3000 
    180 H180        3.1556  -11.8382  -42.7052 H         1 UNK         0.0600 
    181 H181        4.4011  -14.5427  -43.4158 H         1 UNK         0.0600 
    182 H182        3.5124  -14.1586  -41.9416 H         1 UNK         0.0600 
    183 H183        5.0526  -13.3827  -42.2592 H         1 UNK         0.0600 
    184 H184        5.0404  -12.6059  -44.7933 H         1 UNK         0.3000 
    185 H185        4.8367   -9.6667  -46.6645 H         1 UNK         0.0600 
    186 H186        6.1203   -8.7344  -44.7372 H         1 UNK         0.0600 
    187 H187        7.0017  -10.2489  -44.5714 H         1 UNK         0.0600 
    188 H188        7.2006   -9.2608  -46.0186 H         1 UNK         0.0600 
    189 H189        6.7775  -11.8115  -46.4576 H         1 UNK         0.3000 
    190 H190       -1.1185  -20.9543  -47.4880 H         1 UNK         0.3000 
    191 H191       -1.7416  -22.1532  -49.9564 H         1 UNK         0.0600 
    192 H192       -2.7125  -20.0019  -49.0197 H         1 UNK         0.0600 
    193 H193       -3.9132  -21.0851  -49.6960 H         1 UNK         0.0600 
    194 H194       -3.7250  -20.9570  -47.9496 H         1 UNK         0.0600 
    195 H195       -2.8008  -23.0521  -46.6397 H         1 UNK         0.3000 
    196 H196       -4.5016  -25.1968  -47.3750 H         1 UNK         0.0600 
    197 H197       -4.2653  -25.8658  -44.9846 H         1 UNK         0.0600 
    198 H198       -4.5427  -24.1370  -45.1386 H         1 UNK         0.0600 
    199 H199       -2.9260  -24.7423  -44.7874 H         1 UNK         0.0600 
    200 H200       -1.0031  -25.1884  -46.5252 H         1 UNK         0.3000 
    201 H201       -0.5746  -27.9846  -46.8050 H         1 UNK         0.0600 
    202 H202        0.9765  -26.4962  -45.5803 H         1 UNK         0.0600 
    203 H203        1.3768  -25.6352  -47.0645 H         1 UNK         0.0600 
    204 H204        1.8379  -27.3227  -46.8699 H         1 UNK         0.0600 
    205 H205       -0.3196  -25.3084  -49.1639 H         1 UNK         0.3000 
    206 H206        0.5984  -26.9232  -51.3642 H         1 UNK         0.0600 
    207 H207        1.0073  -24.4721  -51.1934 H         1 UNK         0.0600 
    208 H208        0.1223  -24.8423  -52.6650 H         1 UNK         0.0600 
    209 H209       -0.7244  -24.1567  -51.2837 H         1 UNK         0.0600 
    210 H210       -2.4824  -26.6101  -49.9250 H         1 UNK         0.3000 
    211 H211       -4.5711  -27.1423  -50.3689 H         1 UNK         0.0600 
    212 H212       -3.6027  -28.7731  -52.7759 H         1 UNK         0.0600 
    213 H213       -5.1516  -28.9192  -51.9599 H         1 UNK         0.0600 
    214 H214       -3.6774  -29.3652  -51.1165 H         1 UNK         0.0600 
    215 H215       -3.5274  -24.7205  -51.2430 H         1 UNK         0.3000 
    216 H216       -5.0008  -24.0129  -53.7491 H         1 UNK         0.0600 
    217 H217       -3.3951  -22.1820  -53.9243 H         1 UNK         0.0600 
    218 H218       -2.4842  -23.6606  -53.6875 H         1 UNK         0.0600 
    219 H219       -2.7046  -22.5432  -52.3423 H         1 UNK         0.0600 
    220 H220       -5.3715  -23.9533  -50.4256 H         1 UNK         0.3000 
    221 H221       -6.2589  -21.3474  -49.8249 H         1 UNK         0.0600 
    222 H222       -7.0317  -24.0479  -48.5985 H         1 UNK         0.0600 
    223 H223       -5.7250  -22.9852  -48.0744 H         1 UNK         0.0600 
    224 H224       -7.3921  -22.4825  -47.8796 H         1 UNK         0.0600 
    225 H225       -7.9747  -23.9851  -51.4169 H         1 UNK         0.3000 
    226 H226      -10.6243  -22.9224  -51.2961 H         1 UNK         0.0600 
    227 H227      -10.1316  -25.2967  -51.8335 H         1 UNK         0.0600 
    228 H228      -11.0388  -24.5582  -53.1430 H         1 UNK         0.0600 
    229 H229       -9.3073  -24.8178  -53.3180 H         1 UNK         0.0600 
    230 H230       -7.8533  -22.0605  -53.2480 H         1 UNK         0.3000 
    231 H231       -9.4689  -20.3100  -55.0500 H         1 UNK         0.0600 
    232 H232       -7.9605  -21.9854  -56.1631 H         1 UNK         0.0600 
    233 H233       -6.5802  -21.3180  -55.2920 H         1 UNK         0.0600 
    234 H234       -7.4414  -20.3374  -56.4719 H         1 UNK         0.0600 
    235 H235       -8.1848  -20.1212  -52.0819 H         1 UNK         0.3000 
    236 H236       -7.1847  -18.6920  -50.7268 H         1 UNK         0.0600 
    237 H237       -7.8134  -16.3087  -50.9446 H         1 UNK         0.0600 
    238 H238       -8.2637  -16.5438  -52.6290 H         1 UNK         0.0600 
    239 H239       -9.1852  -17.3277  -51.3465 H         1 UNK         0.0600 
    240 H240       -5.4613  -19.8636  -52.5258 H         1 UNK         0.3000 
    241 H241       -3.5641  -19.9269  -53.4722 H         1 UNK         0.0600 
    242 H242       -4.5992  -17.3038  -56.0566 H         1 UNK         0.3800 
    243 H243       -5.6162  -17.9787  -54.8098 H         1 UNK         0.3800 
    244 H244       -2.6740  -19.2655  -51.2800 H         1 UNK         0.0800 
    245 H245       -1.5937  -18.9652  -52.6019 H         1 UNK         0.0800 
    246 H246       -2.0817  -17.8509  -49.3863 H         1 UNK         0.0800 
    247 H247       -1.6044  -16.1803  -49.4423 H         1 UNK         0.0800 
@<TRIPOS>BOND
     1    1    2 1    
     2    1  127 1    
     3    1  128 1    
     4    1  129 1    
     5    2    3 2    
     6    2    4 am   BACKBONE|DICT|INTERRES
     7    4    5 1    
     8    4  130 1    
     9    5    6 1    
    10    5   65 1    
    11    5  131 1    
    12    6    7 1    
    13    6  132 1    
    14    6  133 1    
    15    7    8 1    
    16    8    9 1    
    17    8  134 1    
    18    8  135 1    
    19    9   10 ar   
    20    9   14 ar   
    21   10   11 ar   
    22   10  136 1    
    23   11   12 ar   
    24   11  126 1    
    25   12   13 ar   
    26   12  137 1    
    27   13   14 ar   
    28   13   15 1    
    29   14  138 1    
    30   15   16 1    
    31   15  139 1    
    32   15  140 1    
    33   16   17 1    
    34   17   18 1    
    35   17  141 1    
    36   17  142 1    
    37   18   19 1    
    38   18   67 1    
    39   18  143 1    
    40   19   20 am   BACKBONE|DICT|INTERRES
    41   19  144 1    
    42   20   21 2    
    43   20   22 1    
    44   22   23 1    
    45   22   24 1    
    46   22  145 1    
    47   23  146 1    
    48   23  147 1    
    49   23  148 1    
    50   24   25 am   BACKBONE|DICT|INTERRES
    51   24  149 1    
    52   25   26 2    
    53   25   27 1    
    54   27   28 1    
    55   27   29 1    
    56   27  150 1    
    57   28  151 1    
    58   28  152 1    
    59   28  153 1    
    60   29   30 am   BACKBONE|DICT|INTERRES
    61   29  154 1    
    62   30   31 2    
    63   30   32 1    
    64   32   33 1    
    65   32   34 1    
    66   32  155 1    
    67   33  156 1    
    68   33  157 1    
    69   33  158 1    
    70   34   35 am   BACKBONE|DICT|INTERRES
    71   34  159 1    
    72   35   36 2    
    73   35   37 1    
    74   37   38 1    
    75   37   39 1    
    76   37  160 1    
    77   38  161 1    
    78   38  162 1    
    79   38  163 1    
    80   39   40 am   BACKBONE|DICT|INTERRES
    81   39  164 1    
    82   40   41 2    
    83   40   42 1    
    84   42   43 1    
    85   42   44 1    
    86   42  165 1    
    87   43  166 1    
    88   43  167 1    
    89   43  168 1    
    90   44   45 am   BACKBONE|DICT|INTERRES
    91   44  169 1    
    92   45   46 2    
    93   45   47 1    
    94   47   48 1    
    95   47   49 1    
    96   47  170 1    
    97   48  171 1    
    98   48  172 1    
    99   48  173 1    
   100   49   50 am   BACKBONE|DICT|INTERRES
   101   49  174 1    
   102   50   51 2    
   103   50   52 1    
   104   52   53 1    
   105   52   54 1    
   106   52  175 1    
   107   53  176 1    
   108   53  177 1    
   109   53  178 1    
   110   54   55 am   BACKBONE|DICT|INTERRES
   111   54  179 1    
   112   55   56 2    
   113   55   57 1    
   114   57   58 1    
   115   57   59 1    
   116   57  180 1    
   117   58  181 1    
   118   58  182 1    
   119   58  183 1    
   120   59   60 am   BACKBONE|DICT|INTERRES
   121   59  184 1    
   122   60   61 2    
   123   60   62 1    
   124   62   63 1    
   125   62   64 1    
   126   62  185 1    
   127   63  186 1    
   128   63  187 1    
   129   63  188 1    
   130   64   65 am   BACKBONE|DICT|INTERRES
   131   64  189 1    
   132   65   66 2    
   133   67   68 2    
   134   67   69 am   BACKBONE|DICT|INTERRES
   135   69   70 1    
   136   69  190 1    
   137   70   71 1    
   138   70   72 1    
   139   70  191 1    
   140   71  192 1    
   141   71  193 1    
   142   71  194 1    
   143   72   73 2    
   144   72   74 am   BACKBONE|DICT|INTERRES
   145   74   75 1    
   146   74  195 1    
   147   75   76 1    
   148   75   77 1    
   149   75  196 1    
   150   76  197 1    
   151   76  198 1    
   152   76  199 1    
   153   77   78 2    
   154   77   79 am   BACKBONE|DICT|INTERRES
   155   79   80 1    
   156   79  200 1    
   157   80   81 1    
   158   80   82 1    
   159   80  201 1    
   160   81  202 1    
   161   81  203 1    
   162   81  204 1    
   163   82   83 2    
   164   82   84 am   BACKBONE|DICT|INTERRES
   165   84   85 1    
   166   84  205 1    
   167   85   86 1    
   168   85   87 1    
   169   85  206 1    
   170   86  207 1    
   171   86  208 1    
   172   86  209 1    
   173   87   88 2    
   174   87   89 am   BACKBONE|DICT|INTERRES
   175   89   90 1    
   176   89  210 1    
   177   90   91 1    
   178   90   92 1    
   179   90  211 1    
   180   91  212 1    
   181   91  213 1    
   182   91  214 1    
   183   92   93 2    
   184   92   94 am   BACKBONE|DICT|INTERRES
   185   94   95 1    
   186   94  215 1    
   187   95   96 1    
   188   95   97 1    
   189   95  216 1    
   190   96  217 1    
   191   96  218 1    
   192   96  219 1    
   193   97   98 2    
   194   97   99 am   BACKBONE|DICT|INTERRES
   195   99  100 1    
   196   99  220 1    
   197  100  101 1    
   198  100  102 1    
   199  100  221 1    
   200  101  222 1    
   201  101  223 1    
   202  101  224 1    
   203  102  103 2    
   204  102  104 am   BACKBONE|DICT|INTERRES
   205  104  105 1    
   206  104  225 1    
   207  105  106 1    
   208  105  107 1    
   209  105  226 1    
   210  106  227 1    
   211  106  228 1    
   212  106  229 1    
   213  107  108 2    
   214  107  109 am   BACKBONE|DICT|INTERRES
   215  109  110 1    
   216  109  230 1    
   217  110  111 1    
   218  110  112 1    
   219  110  231 1    
   220  111  232 1    
   221  111  233 1    
   222  111  234 1    
   223  112  113 2    
   224  112  114 am   BACKBONE|DICT|INTERRES
   225  114  115 1    
   226  114  235 1    
   227  115  116 1    
   228  115  117 1    
   229  115  236 1    
   230  116  237 1    
   231  116  238 1    
   232  116  239 1    
   233  117  118 2    
   234  117  119 am   BACKBONE|DICT|INTERRES
   235  119  120 1    
   236  119  240 1    
   237  120  121 1    
   238  120  124 1    
   239  120  241 1    
   240  121  122 am   BACKBONE|DICT|INTERRES
   241  121  123 2    
   242  122  242 1    
   243  122  243 1    
   244  124  125 1    
   245  124  244 1    
   246  124  245 1    
   247  125  126 1    
   248  126  246 1    
   249  126  247 1    
@<TRIPOS>SUBSTRUCTURE
     1 UNK         1 GROUP             0       ****    0 ROOT    
