@<TRIPOS>MOLECULE
3R540
247   249    1
SMALL
USER_CHARGES


@<TRIPOS>ATOM
      1 CA          1.4025   -8.1862  -49.7453 C.3       0 UNK        -0.1800 
      2 C           2.3260   -8.8329  -48.7226 C.2       0 UNK         0.5000 
      3 O           3.4290   -8.3364  -48.4935 O.2       0 UNK        -0.5000 
      4 N           1.8798   -9.9374  -48.1102 N.am      1 UNK        -0.5000 
      5 CA          2.6252  -10.7014  -47.0987 C.3       1 UNK         0.1400 
      6 C6          2.0111  -12.1021  -46.8647 C.3       23 UNK        -0.0398 
      7 S7          2.0114  -13.1116  -48.3822 S.3       23 UNK        -0.2404 
      8 C8          1.0199  -14.5207  -47.8159 C.3       23 UNK        -0.0205 
      9 C9          0.7822  -15.5173  -48.9367 C.ar      23 UNK        -0.0193 
     10 C10        -0.3358  -15.3860  -49.7670 C.ar      23 UNK        -0.1150 
     11 C11        -0.5627  -16.3000  -50.8000 C.ar      23 UNK        -0.0193 
     12 C12         0.3404  -17.3478  -50.9976 C.ar      23 UNK        -0.1150 
     13 C13         1.4487  -17.5015  -50.1617 C.ar      23 UNK        -0.0193 
     14 C14         1.6702  -16.5786  -49.1358 C.ar      23 UNK        -0.1150 
     15 C15         2.3874  -18.6822  -50.3600 C.3       23 UNK        -0.0205 
     16 S16         2.2116  -19.9346  -49.0487 S.3       23 UNK        -0.2404 
     17 C17         0.3999  -20.1610  -48.9690 C.3       23 UNK        -0.0398 
     18 CA          0.0031  -21.4328  -48.1872 C.3       11 UNK         0.1400 
     19 N           0.4411  -21.3916  -46.7875 N.am      11 UNK        -0.5000 
     20 C           0.5355  -22.4725  -46.0024 C.2       10 UNK         0.5000 
     21 O           0.2811  -23.6137  -46.3850 O.2       10 UNK        -0.5000 
     22 CA          0.9549  -22.2459  -44.5392 C.3       10 UNK         0.1400 
     23 CB          2.4786  -22.0890  -44.4242 C.3       10 UNK        -0.1800 
     24 N           0.2867  -21.0962  -43.9288 N.am      10 UNK        -0.5000 
     25 C          -1.0319  -21.0246  -43.6956 C.2       9 UNK         0.5000 
     26 O          -1.8200  -21.9374  -43.9423 O.2       9 UNK        -0.5000 
     27 CA         -1.5697  -19.7044  -43.1134 C.3       9 UNK         0.1400 
     28 CB         -1.3896  -19.6708  -41.5885 C.3       9 UNK        -0.1800 
     29 N          -0.9505  -18.5176  -43.7031 N.am      9 UNK        -0.5000 
     30 C          -1.0259  -18.1753  -44.9971 C.2       8 UNK         0.5000 
     31 O          -1.6424  -18.8199  -45.8433 O.2       8 UNK        -0.5000 
     32 CA         -0.2182  -16.9394  -45.4309 C.3       8 UNK         0.1400 
     33 CB         -0.9052  -15.6413  -44.9757 C.3       8 UNK        -0.1800 
     34 N           1.1584  -16.9766  -44.9342 N.am      8 UNK        -0.5000 
     35 C           2.0353  -17.9533  -45.2129 C.2       7 UNK         0.5000 
     36 O           1.7890  -18.9086  -45.9462 O.2       7 UNK        -0.5000 
     37 CA          3.3918  -17.8859  -44.4957 C.3       7 UNK         0.1400 
     38 CB          4.3383  -16.9042  -45.2033 C.3       7 UNK        -0.1800 
     39 N           3.2327  -17.5145  -43.0892 N.am      7 UNK        -0.5000 
     40 C           2.6680  -18.3067  -42.1645 C.2       6 UNK         0.5000 
     41 O           2.2786  -19.4518  -42.3909 O.2       6 UNK        -0.5000 
     42 CA          2.4583  -17.7005  -40.7648 C.3       6 UNK         0.1400 
     43 CB          3.7375  -17.8201  -39.9234 C.3       6 UNK        -0.1800 
     44 N           2.0417  -16.2990  -40.8205 N.am      6 UNK        -0.5000 
     45 C           0.8777  -15.8720  -41.3315 C.2       5 UNK         0.5000 
     46 O           0.0002  -16.6267  -41.7478 O.2       5 UNK        -0.5000 
     47 CA          0.6811  -14.3484  -41.4394 C.3       5 UNK         0.1400 
     48 CB         -0.0395  -13.8053  -40.1974 C.3       5 UNK        -0.1800 
     49 N           1.9402  -13.6245  -41.6197 N.am      5 UNK        -0.5000 
     50 C           2.7387  -13.7115  -42.6903 C.2       4 UNK         0.5000 
     51 O           2.4712  -14.4030  -43.6756 O.2       4 UNK        -0.5000 
     52 CA          4.0574  -12.9106  -42.6187 C.3       4 UNK         0.1400 
     53 CB          4.9285  -13.0694  -43.8768 C.3       4 UNK        -0.1800 
     54 N           3.8328  -11.4859  -42.3534 N.am      4 UNK        -0.5000 
     55 C           3.5512  -10.9632  -41.1496 C.2       3 UNK         0.5000 
     56 O           3.4418  -11.6475  -40.1305 O.2       3 UNK        -0.5000 
     57 CA          3.3441   -9.4392  -41.0454 C.3       3 UNK         0.1400 
     58 CB          4.5987   -8.7679  -40.4656 C.3       3 UNK        -0.1800 
     59 N           3.0091   -8.7930  -42.3134 N.am      3 UNK        -0.5000 
     60 C           1.8498   -8.9265  -42.9705 C.2       2 UNK         0.5000 
     61 O           0.9132   -9.6209  -42.5733 O.2       2 UNK        -0.5000 
     62 CA          1.7131   -8.1678  -44.3076 C.3       2 UNK         0.1400 
     63 CB          2.7220   -7.0094  -44.4775 C.3       2 UNK        -0.1800 
     64 N           1.7829   -9.0644  -45.4647 N.am      2 UNK        -0.5000 
     65 C           2.7582   -9.9384  -45.7629 C.2       1 UNK         0.5000 
     66 O           3.7398  -10.1443  -45.0473 O.2       1 UNK        -0.5000 
     67 C          -1.5112  -21.7070  -48.3127 C.2       11 UNK         0.5000 
     68 O          -1.9221  -22.3683  -49.2650 O.2       11 UNK        -0.5000 
     69 N          -2.3104  -21.2189  -47.3522 N.am      12 UNK        -0.5000 
     70 CA         -3.7600  -21.4211  -47.2813 C.3       12 UNK         0.1400 
     71 CB         -4.3725  -20.3716  -46.3417 C.3       12 UNK        -0.1800 
     72 C          -4.1799  -22.8380  -46.8394 C.2       12 UNK         0.5000 
     73 O          -5.3523  -23.1861  -46.9975 O.2       12 UNK        -0.5000 
     74 N          -3.2456  -23.6285  -46.2931 N.am      13 UNK        -0.5000 
     75 CA         -3.4680  -24.9984  -45.8265 C.3       13 UNK         0.1400 
     76 CB         -2.1742  -25.5328  -45.1958 C.3       13 UNK        -0.1800 
     77 C          -3.9498  -25.9440  -46.9443 C.2       13 UNK         0.5000 
     78 O          -3.5983  -25.7523  -48.1112 O.2       13 UNK        -0.5000 
     79 N          -4.7512  -26.9472  -46.5571 N.am      14 UNK        -0.5000 
     80 CA         -5.3812  -27.9502  -47.4265 C.3       14 UNK         0.1400 
     81 CB         -4.3203  -28.9083  -48.0087 C.3       14 UNK        -0.1800 
     82 C          -6.2795  -27.3142  -48.5095 C.2       14 UNK         0.5000 
     83 O          -6.2254  -27.7161  -49.6728 O.2       14 UNK        -0.5000 
     84 N          -7.0621  -26.3021  -48.1013 N.am      15 UNK        -0.5000 
     85 CA         -7.9364  -25.4701  -48.9368 C.3       15 UNK         0.1400 
     86 CB         -9.1273  -26.2945  -49.4701 C.3       15 UNK        -0.1800 
     87 C          -7.1482  -24.7577  -50.0540 C.2       15 UNK         0.5000 
     88 O          -7.4790  -24.8936  -51.2326 O.2       15 UNK        -0.5000 
     89 N          -6.0816  -24.0523  -49.6524 N.am      16 UNK        -0.5000 
     90 CA         -5.0997  -23.3769  -50.5053 C.3       16 UNK         0.1400 
     91 CB         -5.7339  -22.1517  -51.1952 C.3       16 UNK        -0.1800 
     92 C          -4.4061  -24.3471  -51.4817 C.2       16 UNK         0.5000 
     93 O          -4.3275  -24.0698  -52.6793 O.2       16 UNK        -0.5000 
     94 N          -3.9549  -25.4920  -50.9476 N.am      17 UNK        -0.5000 
     95 CA         -3.3569  -26.6240  -51.6617 C.3       17 UNK         0.1400 
     96 CB         -1.9482  -26.2480  -52.1667 C.3       17 UNK        -0.1800 
     97 C          -4.2780  -27.1646  -52.7773 C.2       17 UNK         0.5000 
     98 O          -3.8443  -27.3126  -53.9198 O.2       17 UNK        -0.5000 
     99 N          -5.5505  -27.4018  -52.4263 N.am      18 UNK        -0.5000 
    100 CA        -6.6621  -27.7617  -53.3139 C.3       18 UNK         0.1400 
    101 CB        -6.4723  -29.1836  -53.8819 C.3       18 UNK        -0.1800 
    102 C         -6.9111  -26.6946  -54.4036 C.2       18 UNK         0.5000 
    103 O         -7.0392  -27.0229  -55.5847 O.2       18 UNK        -0.5000 
    104 N         -6.9561  -25.4281  -53.9671 N.am      19 UNK        -0.5000 
    105 CA        -7.1480  -24.2021  -54.7484 C.3       19 UNK         0.1400 
    106 CB        -8.5622  -24.1686  -55.3644 C.3       19 UNK        -0.1800 
    107 C         -6.0381  -23.9145  -55.7849 C.2       19 UNK         0.5000 
    108 O         -6.2787  -23.1740  -56.7406 O.2       19 UNK        -0.5000 
    109 N         -4.8428  -24.4852  -55.5865 N.am      20 UNK        -0.5000 
    110 CA        -3.6703  -24.2498  -56.4274 C.3       20 UNK         0.1400 
    111 CB        -2.7383  -25.4682  -56.3643 C.3       20 UNK        -0.1800 
    112 C         -2.9117  -22.9749  -56.0203 C.2       20 UNK         0.5000 
    113 O         -2.3704  -22.2930  -56.8924 O.2       20 UNK        -0.5000 
    114 N         -2.8723  -22.6743  -54.7153 N.am      21 UNK        -0.5000 
    115 CA        -2.2247  -21.4838  -54.1705 C.3       21 UNK         0.1400 
    116 CB        -1.8193  -21.7417  -52.7101 C.3       21 UNK        -0.1800 
    117 C         -3.1494  -20.2596  -54.2720 C.2       21 UNK         0.5000 
    118 O         -4.3718  -20.3958  -54.1819 O.2       21 UNK        -0.5000 
    119 N         -2.5325  -19.0831  -54.4305 N.am      22 UNK        -0.5000 
    120 CA        -3.1768  -17.7560  -54.4669 C.3       22 UNK         0.1400 
    121 C         -4.0768  -17.4869  -55.7129 C.2       22 UNK         0.5000 
    122 N         -4.0046  -18.2875  -56.7693 N.am      22 UNK        -0.7600 
    123 O         -4.8283  -16.5158  -55.7419 O.2       22 UNK        -0.5000 
    124 C124       -3.8818  -17.3687  -53.1315 C.3       23 UNK        -0.0398 
    125 S125       -2.8458  -17.6208  -51.6478 S.3       23 UNK        -0.2404 
    126 C126       -1.7669  -16.1544  -51.7186 C.3       23 UNK        -0.0205 
    127 H127        1.8876   -8.1532  -50.7208 H         1 UNK         0.0600 
    128 H128        1.1673   -7.1650  -49.4454 H         1 UNK         0.0600 
    129 H129        0.4658   -8.7343  -49.8501 H         1 UNK         0.0600 
    130 H130        0.9779  -10.3141  -48.3655 H         1 UNK         0.3000 
    131 H131        3.6404  -10.8437  -47.4763 H         1 UNK         0.0600 
    132 H132        0.9875  -12.0135  -46.4958 H         1 UNK         0.0800 
    133 H133        2.5644  -12.6504  -46.1014 H         1 UNK         0.0800 
    134 H134        1.5306  -15.0035  -46.9815 H         1 UNK         0.0800 
    135 H135        0.0632  -14.1599  -47.4363 H         1 UNK         0.0800 
    136 H136       -1.0245  -14.5675  -49.6111 H         1 UNK         0.1150 
    137 H137        0.1645  -18.0575  -51.7939 H         1 UNK         0.1150 
    138 H138        2.5259  -16.6959  -48.4854 H         1 UNK         0.1150 
    139 H139        2.2117  -19.1565  -51.3267 H         1 UNK         0.0800 
    140 H140        3.4187  -18.3271  -50.3764 H         1 UNK         0.0800 
    141 H141        0.0178  -20.2070  -49.9907 H         1 UNK         0.0800 
    142 H142       -0.0450  -19.2772  -48.5070 H         1 UNK         0.0800 
    143 H143        0.5087  -22.2754  -48.6647 H         1 UNK         0.0600 
    144 H144        0.7300  -20.4862  -46.4255 H         1 UNK         0.3000 
    145 H145        0.6669  -23.1345  -43.9735 H         1 UNK         0.0600 
    146 H146        2.9929  -22.9481  -44.8566 H         1 UNK         0.0600 
    147 H147        2.8339  -21.1991  -44.9435 H         1 UNK         0.0600 
    148 H148        2.7896  -22.0153  -43.3820 H         1 UNK         0.0600 
    149 H149        0.8777  -20.3185  -43.6561 H         1 UNK         0.3000 
    150 H150       -2.6389  -19.6594  -43.3293 H         1 UNK         0.0600 
    151 H151       -1.8592  -20.5364  -41.1196 H         1 UNK         0.0600 
    152 H152       -1.8459  -18.7795  -41.1576 H         1 UNK         0.0600 
    153 H153       -0.3359  -19.6750  -41.3080 H         1 UNK         0.0600 
    154 H154       -0.4480  -17.9053  -43.0653 H         1 UNK         0.3000 
    155 H155       -0.1710  -16.9396  -46.5215 H         1 UNK         0.0600 
    156 H156       -0.2815  -14.7672  -45.1601 H         1 UNK         0.0600 
    157 H157       -1.1416  -15.6552  -43.9124 H         1 UNK         0.0600 
    158 H158       -1.8432  -15.4954  -45.5123 H         1 UNK         0.0600 
    159 H159        1.4542  -16.2179  -44.3317 H         1 UNK         0.3000 
    160 H160        3.8448  -18.8788  -44.5356 H         1 UNK         0.0600 
    161 H161        3.9205  -15.8992  -45.2565 H         1 UNK         0.0600 
    162 H162        4.5315  -17.2271  -46.2271 H         1 UNK         0.0600 
    163 H163        5.3003  -16.8438  -44.6943 H         1 UNK         0.0600 
    164 H164        3.4791  -16.5689  -42.8382 H         1 UNK         0.3000 
    165 H165        1.6683  -18.2695  -40.2700 H         1 UNK         0.0600 
    166 H166        3.5755  -17.4610  -38.9069 H         1 UNK         0.0600 
    167 H167        4.0608  -18.8595  -39.8520 H         1 UNK         0.0600 
    168 H168        4.5605  -17.2490  -40.3547 H         1 UNK         0.0600 
    169 H169        2.7009  -15.6110  -40.4882 H         1 UNK         0.3000 
    170 H170        0.0544  -14.1553  -42.3121 H         1 UNK         0.0600 
    171 H171       -0.9952  -14.3097  -40.0486 H         1 UNK         0.0600 
    172 H172        0.5531  -13.9485  -39.2929 H         1 UNK         0.0600 
    173 H173       -0.2469  -12.7396  -40.2976 H         1 UNK         0.0600 
    174 H174        2.2411  -13.0211  -40.8604 H         1 UNK         0.3000 
    175 H175        4.6286  -13.3279  -41.7868 H         1 UNK         0.0600 
    176 H176        5.8641  -12.5185  -43.7793 H         1 UNK         0.0600 
    177 H177        5.1866  -14.1154  -44.0438 H         1 UNK         0.0600 
    178 H178        4.4236  -12.7099  -44.7713 H         1 UNK         0.0600 
    179 H179        3.8609  -10.8703  -43.1607 H         1 UNK         0.3000 
    180 H180        2.5172   -9.2715  -40.3522 H         1 UNK         0.0600 
    181 H181        5.4593   -8.8865  -41.1253 H         1 UNK         0.0600 
    182 H182        4.8634   -9.2004  -39.4997 H         1 UNK         0.0600 
    183 H183        4.4391   -7.7010  -40.3086 H         1 UNK         0.0600 
    184 H184        3.7327   -8.2298  -42.7363 H         1 UNK         0.3000 
    185 H185        0.7124   -7.7331  -44.3091 H         1 UNK         0.0600 
    186 H186        2.6714   -6.3154  -43.6374 H         1 UNK         0.0600 
    187 H187        3.7504   -7.3627  -44.5596 H         1 UNK         0.0600 
    188 H188        2.5029   -6.4364  -45.3786 H         1 UNK         0.0600 
    189 H189        1.0141   -8.9909  -46.1155 H         1 UNK         0.3000 
    190 H190       -1.9075  -20.6190  -46.6383 H         1 UNK         0.3000 
    191 H191       -4.1752  -21.2541  -48.2766 H         1 UNK         0.0600 
    192 H192       -4.1737  -19.3606  -46.6973 H         1 UNK         0.0600 
    193 H193       -5.4557  -20.4830  -46.2785 H         1 UNK         0.0600 
    194 H194       -3.9734  -20.4585  -45.3308 H         1 UNK         0.0600 
    195 H195       -2.3068  -23.2665  -46.2006 H         1 UNK         0.3000 
    196 H196       -4.2375  -24.9534  -45.0533 H         1 UNK         0.0600 
    197 H197       -2.3357  -26.5097  -44.7387 H         1 UNK         0.0600 
    198 H198       -1.8062  -24.8649  -44.4163 H         1 UNK         0.0600 
    199 H199       -1.3857  -25.6480  -45.9402 H         1 UNK         0.0600 
    200 H200       -4.9805  -27.0236  -45.5756 H         1 UNK         0.3000 
    201 H201       -6.0438  -28.5407  -46.7923 H         1 UNK         0.0600 
    202 H202       -3.7276  -29.3662  -47.2169 H         1 UNK         0.0600 
    203 H203       -3.6355  -28.3959  -48.6843 H         1 UNK         0.0600 
    204 H204       -4.7893  -29.7170  -48.5704 H         1 UNK         0.0600 
    205 H205       -7.0041  -26.0303  -47.1300 H         1 UNK         0.3000 
    206 H206       -8.3372  -24.6869  -48.2916 H         1 UNK         0.0600 
    207 H207       -9.6781  -26.7635  -48.6549 H         1 UNK         0.0600 
    208 H208       -9.8283  -25.6587  -50.0121 H         1 UNK         0.0600 
    209 H209       -8.8064  -27.0812  -50.1537 H         1 UNK         0.0600 
    210 H210       -5.8909  -23.9963  -48.6555 H         1 UNK         0.3000 
    211 H211       -4.3174  -23.0140  -49.8438 H         1 UNK         0.0600 
    212 H212       -6.5203  -22.4386  -51.8924 H         1 UNK         0.0600 
    213 H213       -4.9908  -21.5876  -51.7579 H         1 UNK         0.0600 
    214 H214       -6.1678  -21.4708  -50.4632 H         1 UNK         0.0600 
    215 H215       -4.0262  -25.6069  -49.9387 H         1 UNK         0.3000 
    216 H216       -3.2471  -27.4285  -50.9338 H         1 UNK         0.0600 
    217 H217       -1.4568  -27.1038  -52.6307 H         1 UNK         0.0600 
    218 H218       -1.3139  -25.9150  -51.3451 H         1 UNK         0.0600 
    219 H219       -1.9815  -25.4476  -52.9064 H         1 UNK         0.0600 
    220 H220       -5.8020  -27.2897  -51.4459 H         1 UNK         0.3000 
    221 H221       -7.5561  -27.7737  -52.6887 H         1 UNK         0.0600 
    222 H222       -5.6159  -29.2428  -54.5541 H         1 UNK         0.0600 
    223 H223       -6.3224  -29.9093  -53.0826 H         1 UNK         0.0600 
    224 H224       -7.3516  -29.4982  -54.4451 H         1 UNK         0.0600 
    225 H225       -6.8828  -25.2774  -52.9628 H         1 UNK         0.3000 
    226 H226       -7.0892  -23.3862  -54.0277 H         1 UNK         0.0600 
    227 H227       -9.3254  -24.3502  -54.6076 H         1 UNK         0.0600 
    228 H228       -8.7747  -23.1955  -55.8083 H         1 UNK         0.0600 
    229 H229       -8.6799  -24.9178  -56.1477 H         1 UNK         0.0600 
    230 H230       -4.7081  -25.0451  -54.7536 H         1 UNK         0.3000 
    231 H231       -3.9926  -24.1330  -57.4643 H         1 UNK         0.0600 
    232 H232       -2.3308  -25.6117  -55.3633 H         1 UNK         0.0600 
    233 H233       -1.8954  -25.3495  -57.0461 H         1 UNK         0.0600 
    234 H234       -3.2618  -26.3817  -56.6474 H         1 UNK         0.0600 
    235 H235       -3.4075  -23.2375  -54.0575 H         1 UNK         0.3000 
    236 H236       -1.3140  -21.2870  -54.7405 H         1 UNK         0.0600 
    237 H237       -1.1809  -22.6211  -52.6240 H         1 UNK         0.0600 
    238 H238       -1.2651  -20.8951  -52.3029 H         1 UNK         0.0600 
    239 H239       -2.6859  -21.8967  -52.0690 H         1 UNK         0.0600 
    240 H240       -1.5257  -19.0720  -54.5059 H         1 UNK         0.3000 
    241 H241       -2.3506  -17.0580  -54.5987 H         1 UNK         0.0600 
    242 H242       -4.5808  -18.1000  -57.5748 H         1 UNK         0.3800 
    243 H243       -3.3953  -19.0902  -56.7638 H         1 UNK         0.3800 
    244 H244       -4.1988  -16.3247  -53.1526 H         1 UNK         0.0800 
    245 H245       -4.7927  -17.9557  -53.0055 H         1 UNK         0.0800 
    246 H246       -2.3513  -15.2695  -51.4621 H         1 UNK         0.0800 
    247 H247       -1.4046  -16.0049  -52.7358 H         1 UNK         0.0800 
@<TRIPOS>BOND
     1    1    2 1    
     2    1  127 1    
     3    1  128 1    
     4    1  129 1    
     5    2    3 2    
     6    2    4 am   BACKBONE|DICT|INTERRES
     7    4    5 1    
     8    4  130 1    
     9    5    6 1    
    10    5   65 1    
    11    5  131 1    
    12    6    7 1    
    13    6  132 1    
    14    6  133 1    
    15    7    8 1    
    16    8    9 1    
    17    8  134 1    
    18    8  135 1    
    19    9   10 ar   
    20    9   14 ar   
    21   10   11 ar   
    22   10  136 1    
    23   11   12 ar   
    24   11  126 1    
    25   12   13 ar   
    26   12  137 1    
    27   13   14 ar   
    28   13   15 1    
    29   14  138 1    
    30   15   16 1    
    31   15  139 1    
    32   15  140 1    
    33   16   17 1    
    34   17   18 1    
    35   17  141 1    
    36   17  142 1    
    37   18   19 1    
    38   18   67 1    
    39   18  143 1    
    40   19   20 am   BACKBONE|DICT|INTERRES
    41   19  144 1    
    42   20   21 2    
    43   20   22 1    
    44   22   23 1    
    45   22   24 1    
    46   22  145 1    
    47   23  146 1    
    48   23  147 1    
    49   23  148 1    
    50   24   25 am   BACKBONE|DICT|INTERRES
    51   24  149 1    
    52   25   26 2    
    53   25   27 1    
    54   27   28 1    
    55   27   29 1    
    56   27  150 1    
    57   28  151 1    
    58   28  152 1    
    59   28  153 1    
    60   29   30 am   BACKBONE|DICT|INTERRES
    61   29  154 1    
    62   30   31 2    
    63   30   32 1    
    64   32   33 1    
    65   32   34 1    
    66   32  155 1    
    67   33  156 1    
    68   33  157 1    
    69   33  158 1    
    70   34   35 am   BACKBONE|DICT|INTERRES
    71   34  159 1    
    72   35   36 2    
    73   35   37 1    
    74   37   38 1    
    75   37   39 1    
    76   37  160 1    
    77   38  161 1    
    78   38  162 1    
    79   38  163 1    
    80   39   40 am   BACKBONE|DICT|INTERRES
    81   39  164 1    
    82   40   41 2    
    83   40   42 1    
    84   42   43 1    
    85   42   44 1    
    86   42  165 1    
    87   43  166 1    
    88   43  167 1    
    89   43  168 1    
    90   44   45 am   BACKBONE|DICT|INTERRES
    91   44  169 1    
    92   45   46 2    
    93   45   47 1    
    94   47   48 1    
    95   47   49 1    
    96   47  170 1    
    97   48  171 1    
    98   48  172 1    
    99   48  173 1    
   100   49   50 am   BACKBONE|DICT|INTERRES
   101   49  174 1    
   102   50   51 2    
   103   50   52 1    
   104   52   53 1    
   105   52   54 1    
   106   52  175 1    
   107   53  176 1    
   108   53  177 1    
   109   53  178 1    
   110   54   55 am   BACKBONE|DICT|INTERRES
   111   54  179 1    
   112   55   56 2    
   113   55   57 1    
   114   57   58 1    
   115   57   59 1    
   116   57  180 1    
   117   58  181 1    
   118   58  182 1    
   119   58  183 1    
   120   59   60 am   BACKBONE|DICT|INTERRES
   121   59  184 1    
   122   60   61 2    
   123   60   62 1    
   124   62   63 1    
   125   62   64 1    
   126   62  185 1    
   127   63  186 1    
   128   63  187 1    
   129   63  188 1    
   130   64   65 am   BACKBONE|DICT|INTERRES
   131   64  189 1    
   132   65   66 2    
   133   67   68 2    
   134   67   69 am   BACKBONE|DICT|INTERRES
   135   69   70 1    
   136   69  190 1    
   137   70   71 1    
   138   70   72 1    
   139   70  191 1    
   140   71  192 1    
   141   71  193 1    
   142   71  194 1    
   143   72   73 2    
   144   72   74 am   BACKBONE|DICT|INTERRES
   145   74   75 1    
   146   74  195 1    
   147   75   76 1    
   148   75   77 1    
   149   75  196 1    
   150   76  197 1    
   151   76  198 1    
   152   76  199 1    
   153   77   78 2    
   154   77   79 am   BACKBONE|DICT|INTERRES
   155   79   80 1    
   156   79  200 1    
   157   80   81 1    
   158   80   82 1    
   159   80  201 1    
   160   81  202 1    
   161   81  203 1    
   162   81  204 1    
   163   82   83 2    
   164   82   84 am   BACKBONE|DICT|INTERRES
   165   84   85 1    
   166   84  205 1    
   167   85   86 1    
   168   85   87 1    
   169   85  206 1    
   170   86  207 1    
   171   86  208 1    
   172   86  209 1    
   173   87   88 2    
   174   87   89 am   BACKBONE|DICT|INTERRES
   175   89   90 1    
   176   89  210 1    
   177   90   91 1    
   178   90   92 1    
   179   90  211 1    
   180   91  212 1    
   181   91  213 1    
   182   91  214 1    
   183   92   93 2    
   184   92   94 am   BACKBONE|DICT|INTERRES
   185   94   95 1    
   186   94  215 1    
   187   95   96 1    
   188   95   97 1    
   189   95  216 1    
   190   96  217 1    
   191   96  218 1    
   192   96  219 1    
   193   97   98 2    
   194   97   99 am   BACKBONE|DICT|INTERRES
   195   99  100 1    
   196   99  220 1    
   197  100  101 1    
   198  100  102 1    
   199  100  221 1    
   200  101  222 1    
   201  101  223 1    
   202  101  224 1    
   203  102  103 2    
   204  102  104 am   BACKBONE|DICT|INTERRES
   205  104  105 1    
   206  104  225 1    
   207  105  106 1    
   208  105  107 1    
   209  105  226 1    
   210  106  227 1    
   211  106  228 1    
   212  106  229 1    
   213  107  108 2    
   214  107  109 am   BACKBONE|DICT|INTERRES
   215  109  110 1    
   216  109  230 1    
   217  110  111 1    
   218  110  112 1    
   219  110  231 1    
   220  111  232 1    
   221  111  233 1    
   222  111  234 1    
   223  112  113 2    
   224  112  114 am   BACKBONE|DICT|INTERRES
   225  114  115 1    
   226  114  235 1    
   227  115  116 1    
   228  115  117 1    
   229  115  236 1    
   230  116  237 1    
   231  116  238 1    
   232  116  239 1    
   233  117  118 2    
   234  117  119 am   BACKBONE|DICT|INTERRES
   235  119  120 1    
   236  119  240 1    
   237  120  121 1    
   238  120  124 1    
   239  120  241 1    
   240  121  122 am   BACKBONE|DICT|INTERRES
   241  121  123 2    
   242  122  242 1    
   243  122  243 1    
   244  124  125 1    
   245  124  244 1    
   246  124  245 1    
   247  125  126 1    
   248  126  246 1    
   249  126  247 1    
@<TRIPOS>SUBSTRUCTURE
     1 UNK         1 GROUP             0       ****    0 ROOT    
