@<TRIPOS>MOLECULE
3R540
247   249    1
SMALL
USER_CHARGES


@<TRIPOS>ATOM
      1 CA          5.5948  -18.7065  -51.2325 C.3       0 UNK        -0.1800 
      2 C           5.4255  -17.3490  -50.5656 C.2       0 UNK         0.5000 
      3 O           6.2071  -16.4357  -50.8277 O.2       0 UNK        -0.5000 
      4 N           4.4123  -17.2193  -49.6977 N.am      1 UNK        -0.5000 
      5 CA          4.0327  -16.0053  -48.9563 C.3       1 UNK         0.1400 
      6 C6          3.7534  -14.7879  -49.8855 C.3       23 UNK        -0.0398 
      7 S7          2.3035  -13.8033  -49.3714 S.3       23 UNK        -0.2404 
      8 C8          1.0721  -14.2597  -50.6357 C.3       23 UNK        -0.0205 
      9 C9          0.3333  -15.5401  -50.2756 C.ar      23 UNK        -0.0193 
     10 C10        -0.9372  -15.4735  -49.6980 C.ar      23 UNK        -0.1150 
     11 C11        -1.6357  -16.6398  -49.3740 C.ar      23 UNK        -0.0193 
     12 C12        -1.0435  -17.8825  -49.6100 C.ar      23 UNK        -0.1150 
     13 C13         0.2370  -17.9626  -50.1682 C.ar      23 UNK        -0.0193 
     14 C14         0.9095  -16.7896  -50.5210 C.ar      23 UNK        -0.1150 
     15 C15         0.9016  -19.3153  -50.3747 C.3       23 UNK        -0.0205 
     16 S16         2.2164  -19.6472  -49.1513 S.3       23 UNK        -0.2404 
     17 C17         1.3338  -19.5312  -47.5563 C.3       23 UNK        -0.0398 
     18 CA          0.8687  -20.8930  -46.9936 C.3       11 UNK         0.1400 
     19 N           0.5536  -20.8217  -45.5636 N.am      11 UNK        -0.5000 
     20 C           0.4070  -21.8943  -44.7749 C.2       10 UNK         0.5000 
     21 O           0.5283  -23.0551  -45.1669 O.2       10 UNK        -0.5000 
     22 CA          0.0298  -21.6170  -43.3122 C.3       10 UNK         0.1400 
     23 CB          1.1860  -20.9362  -42.5623 C.3       10 UNK        -0.1800 
     24 N          -1.1806  -20.8055  -43.1792 N.am      10 UNK        -0.5000 
     25 C          -2.4141  -21.2248  -43.4954 C.2       9 UNK         0.5000 
     26 O          -2.6446  -22.2874  -44.0705 O.2       9 UNK        -0.5000 
     27 CA         -3.5860  -20.3155  -43.0961 C.3       9 UNK         0.1400 
     28 CB         -3.7232  -20.2339  -41.5668 C.3       9 UNK        -0.1800 
     29 N          -3.4040  -18.9728  -43.6358 N.am      9 UNK        -0.5000 
     30 C          -4.2388  -18.3686  -44.4923 C.2       8 UNK         0.5000 
     31 O          -5.3096  -18.8485  -44.8678 O.2       8 UNK        -0.5000 
     32 CA         -3.8169  -16.9892  -45.0405 C.3       8 UNK         0.1400 
     33 CB         -4.6003  -15.8689  -44.3407 C.3       8 UNK        -0.1800 
     34 N          -2.3870  -16.6980  -44.9357 N.am      8 UNK        -0.5000 
     35 C          -1.3982  -17.4128  -45.4884 C.2       7 UNK         0.5000 
     36 O          -1.5749  -18.4053  -46.1947 O.2       7 UNK        -0.5000 
     37 CA          0.0365  -17.0028  -45.1147 C.3       7 UNK         0.1400 
     38 CB          0.6350  -16.0831  -46.1898 C.3       7 UNK        -0.1800 
     39 N           0.1578  -16.3829  -43.7872 N.am      7 UNK        -0.5000 
     40 C          -0.1898  -16.9757  -42.6301 C.2       6 UNK         0.5000 
     41 O          -0.6894  -18.1010  -42.5804 O.2       6 UNK        -0.5000 
     42 CA          0.0300  -16.2112  -41.3107 C.3       6 UNK         0.1400 
     43 CB          1.0018  -16.9663  -40.3897 C.3       6 UNK        -0.1800 
     44 N           0.5184  -14.8472  -41.5099 N.am      6 UNK        -0.5000 
     45 C          -0.2725  -13.7795  -41.6885 C.2       5 UNK         0.5000 
     46 O          -1.5027  -13.8362  -41.6836 O.2       5 UNK        -0.5000 
     47 CA          0.4179  -12.4219  -41.9357 C.3       5 UNK         0.1400 
     48 CB          0.5260  -11.6284  -40.6248 C.3       5 UNK        -0.1800 
     49 N           1.7497  -12.5311  -42.5368 N.am      5 UNK        -0.5000 
     50 C           2.0056  -13.0571  -43.7418 C.2       4 UNK         0.5000 
     51 O           1.1290  -13.5023  -44.4810 O.2       4 UNK        -0.5000 
     52 CA          3.4785  -13.1454  -44.1878 C.3       4 UNK         0.1400 
     53 CB          4.4517  -12.3122  -43.3243 C.3       4 UNK        -0.1800 
     54 N           3.9396  -14.5340  -44.2720 N.am      4 UNK        -0.5000 
     55 C           3.9330  -15.4560  -43.2944 C.2       3 UNK         0.5000 
     56 O           3.4662  -15.2531  -42.1724 O.2       3 UNK        -0.5000 
     57 CA          4.5466  -16.8402  -43.6054 C.3       3 UNK         0.1400 
     58 CB          3.4621  -17.9251  -43.6679 C.3       3 UNK        -0.1800 
     59 N           5.3025  -16.8833  -44.8563 N.am      3 UNK        -0.5000 
     60 C           6.4998  -16.3213  -45.0650 C.2       2 UNK         0.5000 
     61 O           7.1608  -15.7693  -44.1851 O.2       2 UNK        -0.5000 
     62 CA          7.0322  -16.3593  -46.5116 C.3       2 UNK         0.1400 
     63 CB          8.0681  -17.4819  -46.6747 C.3       2 UNK        -0.1800 
     64 N           5.9891  -16.5270  -47.5314 N.am      2 UNK        -0.5000 
     65 C           5.0003  -15.6587  -47.7969 C.2       1 UNK         0.5000 
     66 O           4.8180  -14.6359  -47.1355 O.2       1 UNK        -0.5000 
     67 C          -0.3158  -21.4768  -47.7863 C.2       11 UNK         0.5000 
     68 O          -0.0965  -22.2855  -48.6847 O.2       11 UNK        -0.5000 
     69 N          -1.5455  -21.1024  -47.4057 N.am      12 UNK        -0.5000 
     70 CA         -2.7909  -21.6368  -47.9561 C.3       12 UNK         0.1400 
     71 CB         -3.9806  -20.9402  -47.2862 C.3       12 UNK        -0.1800 
     72 C          -2.9127  -23.1683  -47.8390 C.2       12 UNK         0.5000 
     73 O          -3.3623  -23.8066  -48.7886 O.2       12 UNK        -0.5000 
     74 N          -2.4919  -23.7290  -46.6970 N.am      13 UNK        -0.5000 
     75 CA         -2.4431  -25.1715  -46.4661 C.3       13 UNK         0.1400 
     76 CB         -2.3801  -25.4439  -44.9553 C.3       13 UNK        -0.1800 
     77 C          -1.2646  -25.8536  -47.1861 C.2       13 UNK         0.5000 
     78 O          -1.4342  -26.9592  -47.7022 O.2       13 UNK        -0.5000 
     79 N          -0.0889  -25.2094  -47.1777 N.am      14 UNK        -0.5000 
     80 CA          1.1501  -25.7494  -47.7402 C.3       14 UNK         0.1400 
     81 CB          2.3465  -24.9513  -47.1991 C.3       14 UNK        -0.1800 
     82 C           1.1690  -25.7714  -49.2795 C.2       14 UNK         0.5000 
     83 O           1.5829  -26.7725  -49.8670 O.2       14 UNK        -0.5000 
     84 N           0.7449  -24.6655  -49.8989 N.am      15 UNK        -0.5000 
     85 CA          0.6974  -24.4702  -51.3452 C.3       15 UNK         0.1400 
     86 CB          1.1328  -23.0236  -51.6502 C.3       15 UNK        -0.1800 
     87 C          -0.7135  -24.7538  -51.8941 C.2       15 UNK         0.5000 
     88 O          -1.6161  -25.1425  -51.1516 O.2       15 UNK        -0.5000 
     89 N          -0.8879  -24.5270  -53.2018 N.am      16 UNK        -0.5000 
     90 CA         -2.1654  -24.6487  -53.9104 C.3       16 UNK         0.1400 
     91 CB         -1.8763  -24.8758  -55.4032 C.3       16 UNK        -0.1800 
     92 C          -3.0974  -23.4324  -53.7178 C.2       16 UNK         0.5000 
     93 O          -4.2090  -23.4427  -54.2443 O.2       16 UNK        -0.5000 
     94 N          -2.6445  -22.4024  -52.9869 N.am      17 UNK        -0.5000 
     95 CA         -3.3142  -21.1103  -52.7980 C.3       17 UNK         0.1400 
     96 CB         -2.3881  -20.1816  -52.0009 C.3       17 UNK        -0.1800 
     97 C          -4.7229  -21.1698  -52.1686 C.2       17 UNK         0.5000 
     98 O          -5.4964  -20.2285  -52.3492 O.2       17 UNK        -0.5000 
     99 N          -5.0703  -22.2792  -51.5013 N.am      18 UNK        -0.5000 
    100 CA        -6.4362  -22.5725  -51.0568 C.3       18 UNK         0.1400 
    101 CB        -6.4402  -23.8302  -50.1768 C.3       18 UNK        -0.1800 
    102 C         -7.4383  -22.7284  -52.2204 C.2       18 UNK         0.5000 
    103 O         -8.6069  -22.3802  -52.0538 O.2       18 UNK        -0.5000 
    104 N         -6.9725  -23.1928  -53.3914 N.am      19 UNK        -0.5000 
    105 CA        -7.7732  -23.2874  -54.6178 C.3       19 UNK         0.1400 
    106 CB        -7.0789  -24.2230  -55.6190 C.3       19 UNK        -0.1800 
    107 C         -8.0397  -21.9097  -55.2566 C.2       19 UNK         0.5000 
    108 O         -9.0290  -21.7533  -55.9722 O.2       19 UNK        -0.5000 
    109 N         -7.1796  -20.9280  -54.9507 N.am      20 UNK        -0.5000 
    110 CA        -7.3525  -19.5120  -55.2821 C.3       20 UNK         0.1400 
    111 CB        -5.9663  -18.8807  -55.5000 C.3       20 UNK        -0.1800 
    112 C         -8.1539  -18.7532  -54.1999 C.2       20 UNK         0.5000 
    113 O         -8.2870  -17.5327  -54.2955 O.2       20 UNK        -0.5000 
    114 N         -8.6672  -19.4826  -53.1962 N.am      21 UNK        -0.5000 
    115 CA        -9.4612  -19.0250  -52.0535 C.3       21 UNK         0.1400 
    116 CB       -10.7798  -18.3687  -52.5157 C.3       21 UNK        -0.1800 
    117 C         -8.6753  -18.1600  -51.0469 C.2       21 UNK         0.5000 
    118 O         -9.2913  -17.4036  -50.2930 O.2       21 UNK        -0.5000 
    119 N         -7.3416  -18.2934  -51.0227 N.am      22 UNK        -0.5000 
    120 CA        -6.4804  -17.6807  -50.0021 C.3       22 UNK         0.1400 
    121 C         -6.5501  -18.4402  -48.6469 C.2       22 UNK         0.5000 
    122 N         -6.2932  -17.7623  -47.5375 N.am      22 UNK        -0.7600 
    123 O         -6.8064  -19.6406  -48.5945 O.2       22 UNK        -0.5000 
    124 C124       -5.0181  -17.5240  -50.5030 C.3       23 UNK        -0.0398 
    125 S125       -4.2720  -15.9666  -49.9098 S.3       23 UNK        -0.2404 
    126 C126       -3.0099  -16.5433  -48.7322 C.3       23 UNK        -0.0205 
    127 H127        6.5736  -19.1225  -50.9942 H         1 UNK         0.0600 
    128 H128        4.8348  -19.4172  -50.9070 H         1 UNK         0.0600 
    129 H129        5.5209  -18.6036  -52.3150 H         1 UNK         0.0600 
    130 H130        3.8158  -18.0210  -49.5295 H         1 UNK         0.3000 
    131 H131        3.0956  -16.2794  -48.4688 H         1 UNK         0.0600 
    132 H132        3.5902  -15.1205  -50.9105 H         1 UNK         0.0800 
    133 H133        4.6206  -14.1277  -49.9458 H         1 UNK         0.0800 
    134 H134        0.3607  -13.4380  -50.7311 H         1 UNK         0.0800 
    135 H135        1.5423  -14.3570  -51.6150 H         1 UNK         0.0800 
    136 H136       -1.3895  -14.5113  -49.5028 H         1 UNK         0.1150 
    137 H137       -1.5694  -18.7854  -49.3338 H         1 UNK         0.1150 
    138 H138        1.8909  -16.8516  -50.9676 H         1 UNK         0.1150 
    139 H139        0.1618  -20.1136  -50.3356 H         1 UNK         0.0800 
    140 H140        1.3339  -19.3557  -51.3754 H         1 UNK         0.0800 
    141 H141        0.5027  -18.8358  -47.6309 H         1 UNK         0.0800 
    142 H142        2.0358  -19.0746  -46.8578 H         1 UNK         0.0800 
    143 H143        1.7023  -21.5906  -47.0984 H         1 UNK         0.0600 
    144 H144        0.3658  -19.9118  -45.1745 H         1 UNK         0.3000 
    145 H145       -0.1584  -22.5805  -42.8335 H         1 UNK         0.0600 
    146 H146        0.9570  -20.8284  -41.5020 H         1 UNK         0.0600 
    147 H147        1.3960  -19.9428  -42.9580 H         1 UNK         0.0600 
    148 H148        2.1028  -21.5222  -42.6393 H         1 UNK         0.0600 
    149 H149       -1.0595  -19.8875  -42.7586 H         1 UNK         0.3000 
    150 H150       -4.4964  -20.7709  -43.4915 H         1 UNK         0.0600 
    151 H151       -3.8253  -21.2279  -41.1294 H         1 UNK         0.0600 
    152 H152       -4.6073  -19.6621  -41.2846 H         1 UNK         0.0600 
    153 H153       -2.8577  -19.7568  -41.1051 H         1 UNK         0.0600 
    154 H154       -2.5357  -18.5081  -43.3972 H         1 UNK         0.3000 
    155 H155       -4.0764  -16.9761  -46.0977 H         1 UNK         0.0600 
    156 H156       -5.6759  -16.0328  -44.4203 H         1 UNK         0.0600 
    157 H157       -4.3876  -14.8984  -44.7896 H         1 UNK         0.0600 
    158 H158       -4.3543  -15.8101  -43.2796 H         1 UNK         0.0600 
    159 H159       -2.1313  -15.9139  -44.3532 H         1 UNK         0.3000 
    160 H160        0.6223  -17.9207  -45.0912 H         1 UNK         0.0600 
    161 H161        0.0802  -15.1480  -46.2703 H         1 UNK         0.0600 
    162 H162        0.6116  -16.5503  -47.1743 H         1 UNK         0.0600 
    163 H163        1.6752  -15.8396  -45.9733 H         1 UNK         0.0600 
    164 H164        0.5239  -15.4378  -43.7654 H         1 UNK         0.3000 
    165 H165       -0.9372  -16.1792  -40.8050 H         1 UNK         0.0600 
    166 H166        1.0729  -16.4812  -39.4162 H         1 UNK         0.0600 
    167 H167        0.6672  -17.9900  -40.2160 H         1 UNK         0.0600 
    168 H168        2.0059  -17.0164  -40.8078 H         1 UNK         0.0600 
    169 H169        1.5255  -14.7336  -41.5682 H         1 UNK         0.3000 
    170 H170       -0.2125  -11.8577  -42.6261 H         1 UNK         0.0600 
    171 H171        1.1686  -12.1325  -39.9018 H         1 UNK         0.0600 
    172 H172        0.9317  -10.6315  -40.7985 H         1 UNK         0.0600 
    173 H173       -0.4537  -11.5026  -40.1618 H         1 UNK         0.0600 
    174 H174        2.5276  -12.2174  -41.9748 H         1 UNK         0.3000 
    175 H175        3.5131  -12.7472  -45.2030 H         1 UNK         0.0600 
    176 H176        4.5127  -12.6761  -42.2981 H         1 UNK         0.0600 
    177 H177        5.4586  -12.3428  -43.7410 H         1 UNK         0.0600 
    178 H178        4.1519  -11.2639  -43.2918 H         1 UNK         0.0600 
    179 H179        4.3153  -14.7948  -45.1775 H         1 UNK         0.3000 
    180 H180        5.2235  -17.0812  -42.7831 H         1 UNK         0.0600 
    181 H181        3.9037  -18.9187  -43.7461 H         1 UNK         0.0600 
    182 H182        2.8114  -17.7819  -44.5281 H         1 UNK         0.0600 
    183 H183        2.8404  -17.9194  -42.7737 H         1 UNK         0.0600 
    184 H184        4.8504  -17.3249  -45.6423 H         1 UNK         0.3000 
    185 H185        7.5281  -15.4047  -46.6989 H         1 UNK         0.0600 
    186 H186        8.5160  -17.4645  -47.6686 H         1 UNK         0.0600 
    187 H187        8.8790  -17.3744  -45.9530 H         1 UNK         0.0600 
    188 H188        7.6222  -18.4658  -46.5234 H         1 UNK         0.0600 
    189 H189        6.0649  -17.3424  -48.1215 H         1 UNK         0.3000 
    190 H190       -1.6339  -20.3765  -46.7028 H         1 UNK         0.3000 
    191 H191       -2.8140  -21.3911  -49.0174 H         1 UNK         0.0600 
    192 H192       -3.9551  -19.8635  -47.4542 H         1 UNK         0.0600 
    193 H193       -3.9959  -21.1109  -46.2101 H         1 UNK         0.0600 
    194 H194       -4.9233  -21.3120  -47.6886 H         1 UNK         0.0600 
    195 H195       -2.1924  -23.1345  -45.9320 H         1 UNK         0.3000 
    196 H196       -3.3662  -25.6142  -46.8468 H         1 UNK         0.0600 
    197 H197       -3.2580  -25.0448  -44.4471 H         1 UNK         0.0600 
    198 H198       -1.4974  -24.9917  -44.5011 H         1 UNK         0.0600 
    199 H199       -2.3446  -26.5147  -44.7510 H         1 UNK         0.0600 
    200 H200       -0.0192  -24.3233  -46.6891 H         1 UNK         0.3000 
    201 H201        1.2555  -26.7799  -47.3943 H         1 UNK         0.0600 
    202 H202        2.3919  -24.9974  -46.1109 H         1 UNK         0.0600 
    203 H203        2.2924  -23.9014  -47.4879 H         1 UNK         0.0600 
    204 H204        3.2874  -25.3492  -47.5812 H         1 UNK         0.0600 
    205 H205        0.3776  -23.8955  -49.3420 H         1 UNK         0.3000 
    206 H206        1.3950  -25.1513  -51.8365 H         1 UNK         0.0600 
    207 H207        0.3862  -22.3015  -51.3201 H         1 UNK         0.0600 
    208 H208        2.0714  -22.7792  -51.1518 H         1 UNK         0.0600 
    209 H209        1.2896  -22.8691  -52.7179 H         1 UNK         0.0600 
    210 H210       -0.1017  -24.2158  -53.7544 H         1 UNK         0.3000 
    211 H211       -2.6978  -25.5241  -53.5328 H         1 UNK         0.0600 
    212 H212       -1.3560  -24.0258  -55.8465 H         1 UNK         0.0600 
    213 H213       -2.7998  -25.0240  -55.9648 H         1 UNK         0.0600 
    214 H214       -1.2619  -25.7634  -55.5556 H         1 UNK         0.0600 
    215 H215       -1.7272  -22.4934  -52.5789 H         1 UNK         0.3000 
    216 H216       -3.4436  -20.6749  -53.7909 H         1 UNK         0.0600 
    217 H217       -2.8367  -19.1972  -51.8650 H         1 UNK         0.0600 
    218 H218       -1.4415  -20.0298  -52.5198 H         1 UNK         0.0600 
    219 H219       -2.1657  -20.5862  -51.0154 H         1 UNK         0.0600 
    220 H220       -4.3812  -23.0068  -51.3723 H         1 UNK         0.3000 
    221 H221       -6.7781  -21.7331  -50.4476 H         1 UNK         0.0600 
    222 H222       -5.9678  -24.6763  -50.6772 H         1 UNK         0.0600 
    223 H223       -5.9143  -23.6519  -49.2400 H         1 UNK         0.0600 
    224 H224       -7.4575  -24.1259  -49.9167 H         1 UNK         0.0600 
    225 H225       -5.9848  -23.4142  -53.4861 H         1 UNK         0.3000 
    226 H226       -8.7398  -23.7266  -54.3616 H         1 UNK         0.0600 
    227 H227       -6.8613  -25.1928  -55.1712 H         1 UNK         0.0600 
    228 H228       -7.7140  -24.4004  -56.4877 H         1 UNK         0.0600 
    229 H229       -6.1416  -23.8021  -55.9837 H         1 UNK         0.0600 
    230 H230       -6.4099  -21.1442  -54.3327 H         1 UNK         0.3000 
    231 H231       -7.9106  -19.4254  -56.2165 H         1 UNK         0.0600 
    232 H232       -6.0568  -17.8511  -55.8480 H         1 UNK         0.0600 
    233 H233       -5.3978  -19.4266  -56.2531 H         1 UNK         0.0600 
    234 H234       -5.3780  -18.8625  -54.5830 H         1 UNK         0.0600 
    235 H235       -8.4850  -20.4775  -53.2035 H         1 UNK         0.3000 
    236 H236       -9.7311  -19.9287  -51.5058 H         1 UNK         0.0600 
    237 H237      -10.6084  -17.4044  -52.9945 H         1 UNK         0.0600 
    238 H238      -11.3113  -19.0060  -53.2225 H         1 UNK         0.0600 
    239 H239      -11.4484  -18.1973  -51.6714 H         1 UNK         0.0600 
    240 H240       -6.8953  -18.9677  -51.6358 H         1 UNK         0.3000 
    241 H241       -6.8850  -16.6815  -49.8265 H         1 UNK         0.0600 
    242 H242       -6.1130  -16.7718  -47.5624 H         1 UNK         0.3800 
    243 H243       -6.2906  -18.2546  -46.6524 H         1 UNK         0.3800 
    244 H244       -4.9941  -17.4786  -51.5929 H         1 UNK         0.0800 
    245 H245       -4.4004  -18.3822  -50.2332 H         1 UNK         0.0800 
    246 H246       -3.3052  -17.4982  -48.2951 H         1 UNK         0.0800 
    247 H247       -2.9564  -15.8322  -47.9071 H         1 UNK         0.0800 
@<TRIPOS>BOND
     1    1    2 1    
     2    1  127 1    
     3    1  128 1    
     4    1  129 1    
     5    2    3 2    
     6    2    4 am   BACKBONE|DICT|INTERRES
     7    4    5 1    
     8    4  130 1    
     9    5    6 1    
    10    5   65 1    
    11    5  131 1    
    12    6    7 1    
    13    6  132 1    
    14    6  133 1    
    15    7    8 1    
    16    8    9 1    
    17    8  134 1    
    18    8  135 1    
    19    9   10 ar   
    20    9   14 ar   
    21   10   11 ar   
    22   10  136 1    
    23   11   12 ar   
    24   11  126 1    
    25   12   13 ar   
    26   12  137 1    
    27   13   14 ar   
    28   13   15 1    
    29   14  138 1    
    30   15   16 1    
    31   15  139 1    
    32   15  140 1    
    33   16   17 1    
    34   17   18 1    
    35   17  141 1    
    36   17  142 1    
    37   18   19 1    
    38   18   67 1    
    39   18  143 1    
    40   19   20 am   BACKBONE|DICT|INTERRES
    41   19  144 1    
    42   20   21 2    
    43   20   22 1    
    44   22   23 1    
    45   22   24 1    
    46   22  145 1    
    47   23  146 1    
    48   23  147 1    
    49   23  148 1    
    50   24   25 am   BACKBONE|DICT|INTERRES
    51   24  149 1    
    52   25   26 2    
    53   25   27 1    
    54   27   28 1    
    55   27   29 1    
    56   27  150 1    
    57   28  151 1    
    58   28  152 1    
    59   28  153 1    
    60   29   30 am   BACKBONE|DICT|INTERRES
    61   29  154 1    
    62   30   31 2    
    63   30   32 1    
    64   32   33 1    
    65   32   34 1    
    66   32  155 1    
    67   33  156 1    
    68   33  157 1    
    69   33  158 1    
    70   34   35 am   BACKBONE|DICT|INTERRES
    71   34  159 1    
    72   35   36 2    
    73   35   37 1    
    74   37   38 1    
    75   37   39 1    
    76   37  160 1    
    77   38  161 1    
    78   38  162 1    
    79   38  163 1    
    80   39   40 am   BACKBONE|DICT|INTERRES
    81   39  164 1    
    82   40   41 2    
    83   40   42 1    
    84   42   43 1    
    85   42   44 1    
    86   42  165 1    
    87   43  166 1    
    88   43  167 1    
    89   43  168 1    
    90   44   45 am   BACKBONE|DICT|INTERRES
    91   44  169 1    
    92   45   46 2    
    93   45   47 1    
    94   47   48 1    
    95   47   49 1    
    96   47  170 1    
    97   48  171 1    
    98   48  172 1    
    99   48  173 1    
   100   49   50 am   BACKBONE|DICT|INTERRES
   101   49  174 1    
   102   50   51 2    
   103   50   52 1    
   104   52   53 1    
   105   52   54 1    
   106   52  175 1    
   107   53  176 1    
   108   53  177 1    
   109   53  178 1    
   110   54   55 am   BACKBONE|DICT|INTERRES
   111   54  179 1    
   112   55   56 2    
   113   55   57 1    
   114   57   58 1    
   115   57   59 1    
   116   57  180 1    
   117   58  181 1    
   118   58  182 1    
   119   58  183 1    
   120   59   60 am   BACKBONE|DICT|INTERRES
   121   59  184 1    
   122   60   61 2    
   123   60   62 1    
   124   62   63 1    
   125   62   64 1    
   126   62  185 1    
   127   63  186 1    
   128   63  187 1    
   129   63  188 1    
   130   64   65 am   BACKBONE|DICT|INTERRES
   131   64  189 1    
   132   65   66 2    
   133   67   68 2    
   134   67   69 am   BACKBONE|DICT|INTERRES
   135   69   70 1    
   136   69  190 1    
   137   70   71 1    
   138   70   72 1    
   139   70  191 1    
   140   71  192 1    
   141   71  193 1    
   142   71  194 1    
   143   72   73 2    
   144   72   74 am   BACKBONE|DICT|INTERRES
   145   74   75 1    
   146   74  195 1    
   147   75   76 1    
   148   75   77 1    
   149   75  196 1    
   150   76  197 1    
   151   76  198 1    
   152   76  199 1    
   153   77   78 2    
   154   77   79 am   BACKBONE|DICT|INTERRES
   155   79   80 1    
   156   79  200 1    
   157   80   81 1    
   158   80   82 1    
   159   80  201 1    
   160   81  202 1    
   161   81  203 1    
   162   81  204 1    
   163   82   83 2    
   164   82   84 am   BACKBONE|DICT|INTERRES
   165   84   85 1    
   166   84  205 1    
   167   85   86 1    
   168   85   87 1    
   169   85  206 1    
   170   86  207 1    
   171   86  208 1    
   172   86  209 1    
   173   87   88 2    
   174   87   89 am   BACKBONE|DICT|INTERRES
   175   89   90 1    
   176   89  210 1    
   177   90   91 1    
   178   90   92 1    
   179   90  211 1    
   180   91  212 1    
   181   91  213 1    
   182   91  214 1    
   183   92   93 2    
   184   92   94 am   BACKBONE|DICT|INTERRES
   185   94   95 1    
   186   94  215 1    
   187   95   96 1    
   188   95   97 1    
   189   95  216 1    
   190   96  217 1    
   191   96  218 1    
   192   96  219 1    
   193   97   98 2    
   194   97   99 am   BACKBONE|DICT|INTERRES
   195   99  100 1    
   196   99  220 1    
   197  100  101 1    
   198  100  102 1    
   199  100  221 1    
   200  101  222 1    
   201  101  223 1    
   202  101  224 1    
   203  102  103 2    
   204  102  104 am   BACKBONE|DICT|INTERRES
   205  104  105 1    
   206  104  225 1    
   207  105  106 1    
   208  105  107 1    
   209  105  226 1    
   210  106  227 1    
   211  106  228 1    
   212  106  229 1    
   213  107  108 2    
   214  107  109 am   BACKBONE|DICT|INTERRES
   215  109  110 1    
   216  109  230 1    
   217  110  111 1    
   218  110  112 1    
   219  110  231 1    
   220  111  232 1    
   221  111  233 1    
   222  111  234 1    
   223  112  113 2    
   224  112  114 am   BACKBONE|DICT|INTERRES
   225  114  115 1    
   226  114  235 1    
   227  115  116 1    
   228  115  117 1    
   229  115  236 1    
   230  116  237 1    
   231  116  238 1    
   232  116  239 1    
   233  117  118 2    
   234  117  119 am   BACKBONE|DICT|INTERRES
   235  119  120 1    
   236  119  240 1    
   237  120  121 1    
   238  120  124 1    
   239  120  241 1    
   240  121  122 am   BACKBONE|DICT|INTERRES
   241  121  123 2    
   242  122  242 1    
   243  122  243 1    
   244  124  125 1    
   245  124  244 1    
   246  124  245 1    
   247  125  126 1    
   248  126  246 1    
   249  126  247 1    
@<TRIPOS>SUBSTRUCTURE
     1 UNK         1 GROUP             0       ****    0 ROOT    
