@<TRIPOS>MOLECULE
3R540
247   249    1
SMALL
USER_CHARGES


@<TRIPOS>ATOM
      1 CA         -4.6767  -17.1414  -48.6124 C.3       0 UNK        -0.1800 
      2 C          -3.5933  -16.0958  -48.3899 C.2       0 UNK         0.5000 
      3 O          -3.4333  -15.1926  -49.2110 O.2       0 UNK        -0.5000 
      4 N          -2.8479  -16.2178  -47.2850 N.am      1 UNK        -0.5000 
      5 CA         -1.8189  -15.2627  -46.8628 C.3       1 UNK         0.1400 
      6 C6         -0.8788  -15.8412  -45.7749 C.3       23 UNK        -0.0398 
      7 S7         -0.1092  -17.4342  -46.2243 S.3       23 UNK        -0.2404 
      8 C8          1.1314  -16.9368  -47.4615 C.3       23 UNK        -0.0205 
      9 C9          0.8761  -17.6386  -48.7861 C.ar      23 UNK        -0.0193 
     10 C10         0.0246  -17.0701  -49.7381 C.ar      23 UNK        -0.1150 
     11 C11        -0.2596  -17.7463  -50.9269 C.ar      23 UNK        -0.0193 
     12 C12         0.3321  -18.9864  -51.1739 C.ar      23 UNK        -0.1150 
     13 C13         1.1724  -19.5720  -50.2262 C.ar      23 UNK        -0.0193 
     14 C14         1.4570  -18.8841  -49.0424 C.ar      23 UNK        -0.1150 
     15 C15         1.7251  -20.9691  -50.4648 C.3       23 UNK        -0.0205 
     16 S16         0.5181  -22.2539  -49.9947 S.3       23 UNK        -0.2404 
     17 C17         0.5216  -22.0571  -48.1838 C.3       23 UNK        -0.0398 
     18 CA         -0.4700  -22.9696  -47.4255 C.3       11 UNK         0.1400 
     19 N          -0.0586  -23.1051  -46.0259 N.am      11 UNK        -0.5000 
     20 C          -0.5919  -23.9483  -45.1303 C.2       10 UNK         0.5000 
     21 O          -1.4813  -24.7536  -45.3978 O.2       10 UNK        -0.5000 
     22 CA         -0.0821  -23.8383  -43.6784 C.3       10 UNK         0.1400 
     23 CB          1.1050  -24.7860  -43.4541 C.3       10 UNK        -0.1800 
     24 N           0.3129  -22.4778  -43.3086 N.am      10 UNK        -0.5000 
     25 C          -0.4985  -21.4105  -43.3188 C.2       9 UNK         0.5000 
     26 O          -1.7073  -21.4824  -43.5407 O.2       9 UNK        -0.5000 
     27 CA          0.1544  -20.0287  -43.1132 C.3       9 UNK         0.1400 
     28 CB         -0.0622  -19.5315  -41.6768 C.3       9 UNK        -0.1800 
     29 N           1.5880  -19.9867  -43.4217 N.am      9 UNK        -0.5000 
     30 C           2.1482  -20.2345  -44.6138 C.2       8 UNK         0.5000 
     31 O           1.4978  -20.6024  -45.5920 O.2       8 UNK        -0.5000 
     32 CA          3.6829  -20.0804  -44.7239 C.3       8 UNK         0.1400 
     33 CB          4.1514  -19.9154  -46.1807 C.3       8 UNK        -0.1800 
     34 N           4.2236  -18.9694  -43.9369 N.am      8 UNK        -0.5000 
     35 C           4.3999  -18.9351  -42.6120 C.2       7 UNK         0.5000 
     36 O           4.0818  -19.8629  -41.8677 O.2       7 UNK        -0.5000 
     37 CA          4.9800  -17.6451  -42.0029 C.3       7 UNK         0.1400 
     38 CB          6.5195  -17.6830  -41.9776 C.3       7 UNK        -0.1800 
     39 N           4.4803  -16.4005  -42.6029 N.am      7 UNK        -0.5000 
     40 C           4.7033  -15.8875  -43.8243 C.2       6 UNK         0.5000 
     41 O           5.3539  -16.4632  -44.6969 O.2       6 UNK        -0.5000 
     42 CA          4.0759  -14.5129  -44.1455 C.3       6 UNK         0.1400 
     43 CB          2.8883  -14.6880  -45.1033 C.3       6 UNK        -0.1800 
     44 N           3.6201  -13.7865  -42.9583 N.am      6 UNK        -0.5000 
     45 C           4.4255  -13.2699  -42.0165 C.2       5 UNK         0.5000 
     46 O           5.6520  -13.2341  -42.1193 O.2       5 UNK        -0.5000 
     47 CA          3.7640  -12.7371  -40.7265 C.3       5 UNK         0.1400 
     48 CB          3.7589  -11.2006  -40.7217 C.3       5 UNK        -0.1800 
     49 N           2.3935  -13.2092  -40.5104 N.am      5 UNK        -0.5000 
     50 C           1.9980  -14.4845  -40.3767 C.2       4 UNK         0.5000 
     51 O           2.7738  -15.4404  -40.3543 O.2       4 UNK        -0.5000 
     52 CA          0.4761  -14.7363  -40.3241 C.3       4 UNK         0.1400 
     53 CB          0.0217  -14.9886  -38.8790 C.3       4 UNK        -0.1800 
     54 N          -0.3192  -13.6414  -40.8951 N.am      4 UNK        -0.5000 
     55 C          -0.2903  -13.2645  -42.1804 C.2       3 UNK         0.5000 
     56 O           0.3907  -13.8255  -43.0447 O.2       3 UNK        -0.5000 
     57 CA         -1.1020  -12.0142  -42.5415 C.3       3 UNK         0.1400 
     58 CB         -0.3712  -10.7397  -42.0767 C.3       3 UNK        -0.1800 
     59 N          -1.2799  -11.9890  -43.9866 N.am      3 UNK        -0.5000 
     60 C          -2.1954  -11.2855  -44.6607 C.2       2 UNK         0.5000 
     61 O          -2.9960  -10.5144  -44.1302 O.2       2 UNK        -0.5000 
     62 CA         -2.2321  -11.4877  -46.1889 C.3       2 UNK         0.1400 
     63 CB         -1.3677  -10.4287  -46.8905 C.3       2 UNK        -0.1800 
     64 N          -1.7911  -12.8214  -46.6114 N.am      2 UNK        -0.5000 
     65 C          -2.4651  -13.9534  -46.3655 C.2       1 UNK         0.5000 
     66 O          -3.5345  -13.9927  -45.7513 O.2       1 UNK        -0.5000 
     67 C          -1.9169  -22.4416  -47.5359 C.2       11 UNK         0.5000 
     68 O          -2.6896  -22.9247  -48.3653 O.2       11 UNK        -0.5000 
     69 N          -2.2674  -21.4814  -46.6688 N.am      12 UNK        -0.5000 
     70 CA         -3.6141  -20.9306  -46.5515 C.3       12 UNK         0.1400 
     71 CB         -3.5628  -19.6007  -45.7850 C.3       12 UNK        -0.1800 
     72 C          -4.5773  -21.9265  -45.8862 C.2       12 UNK         0.5000 
     73 O          -5.6849  -22.1181  -46.3868 O.2       12 UNK        -0.5000 
     74 N          -4.1259  -22.5705  -44.7997 N.am      13 UNK        -0.5000 
     75 CA         -4.8897  -23.5609  -44.0350 C.3       13 UNK         0.1400 
     76 CB         -4.1058  -23.9481  -42.7728 C.3       13 UNK        -0.1800 
     77 C          -5.2584  -24.8160  -44.8498 C.2       13 UNK         0.5000 
     78 O          -6.3763  -25.3161  -44.7220 O.2       13 UNK        -0.5000 
     79 N          -4.3282  -25.2818  -45.6943 N.am      14 UNK        -0.5000 
     80 CA         -4.5238  -26.4025  -46.6176 C.3       14 UNK         0.1400 
     81 CB         -3.1460  -26.9488  -47.0265 C.3       14 UNK        -0.1800 
     82 C          -5.3374  -26.0317  -47.8748 C.2       14 UNK         0.5000 
     83 O          -5.6905  -26.9287  -48.6408 O.2       14 UNK        -0.5000 
     84 N          -5.5814  -24.7289  -48.0878 N.am      15 UNK        -0.5000 
     85 CA         -6.2053  -24.1105  -49.2643 C.3       15 UNK         0.1400 
     86 CB         -7.6582  -24.5908  -49.4560 C.3       15 UNK        -0.1800 
     87 C          -5.3611  -24.2378  -50.5509 C.2       15 UNK         0.5000 
     88 O          -5.8740  -24.0082  -51.6472 O.2       15 UNK        -0.5000 
     89 N          -4.0639  -24.5390  -50.3986 N.am      16 UNK        -0.5000 
     90 CA         -3.0720  -24.5712  -51.4727 C.3       16 UNK         0.1400 
     91 CB         -1.7709  -25.1918  -50.9448 C.3       16 UNK        -0.1800 
     92 C          -2.8222  -23.1729  -52.0666 C.2       16 UNK         0.5000 
     93 O          -2.5717  -23.0585  -53.2650 O.2       16 UNK        -0.5000 
     94 N          -2.9655  -22.1389  -51.2242 N.am      17 UNK        -0.5000 
     95 CA         -2.9423  -20.7224  -51.5837 C.3       17 UNK         0.1400 
     96 CB         -3.1487  -19.8903  -50.3100 C.3       17 UNK        -0.1800 
     97 C          -3.9895  -20.3525  -52.6534 C.2       17 UNK         0.5000 
     98 O          -3.6695  -19.6678  -53.6304 O.2       17 UNK        -0.5000 
     99 N          -5.2183  -20.8468  -52.4522 N.am      18 UNK        -0.5000 
    100 CA        -6.3515  -20.6644  -53.3567 C.3       18 UNK         0.1400 
    101 CB        -7.6523  -20.9780  -52.6023 C.3       18 UNK        -0.1800 
    102 C         -6.2396  -21.5259  -54.6267 C.2       18 UNK         0.5000 
    103 O         -6.7256  -21.1130  -55.6803 O.2       18 UNK        -0.5000 
    104 N         -5.5783  -22.6872  -54.5234 N.am      19 UNK        -0.5000 
    105 CA        -5.3320  -23.6416  -55.6076 C.3       19 UNK         0.1400 
    106 CB        -5.0496  -25.0267  -55.0002 C.3       19 UNK        -0.1800 
    107 C         -4.2193  -23.1774  -56.5757 C.2       19 UNK         0.5000 
    108 O         -3.2689  -23.9165  -56.8366 O.2       19 UNK        -0.5000 
    109 N         -4.3750  -21.9549  -57.0986 N.am      20 UNK        -0.5000 
    110 CA        -3.5746  -21.2905  -58.1317 C.3       20 UNK         0.1400 
    111 CB        -3.6140  -22.0885  -59.4521 C.3       20 UNK        -0.1800 
    112 C         -2.1346  -20.9070  -57.7288 C.2       20 UNK         0.5000 
    113 O         -1.3931  -20.4288  -58.5894 O.2       20 UNK        -0.5000 
    114 N         -1.7549  -21.0678  -56.4510 N.am      21 UNK        -0.5000 
    115 CA        -0.4804  -20.5673  -55.9216 C.3       21 UNK         0.1400 
    116 CB        -0.1810  -21.2028  -54.5597 C.3       21 UNK        -0.1800 
    117 C         -0.4776  -19.0286  -55.8451 C.2       21 UNK         0.5000 
    118 O          0.4822  -18.4005  -56.2942 O.2       21 UNK        -0.5000 
    119 N         -1.5895  -18.4620  -55.3605 N.am      22 UNK        -0.5000 
    120 CA        -1.9920  -17.0683  -55.6086 C.3       22 UNK         0.1400 
    121 C         -3.3847  -17.0257  -56.2938 C.2       22 UNK         0.5000 
    122 N         -4.3118  -17.9165  -55.9499 N.am      22 UNK        -0.7600 
    123 O         -3.6251  -16.1832  -57.1537 O.2       22 UNK        -0.5000 
    124 C124       -2.0072  -16.1675  -54.3446 C.3       23 UNK        -0.0398 
    125 S125       -0.5204  -16.3021  -53.2925 S.3       23 UNK        -0.2404 
    126 C126       -1.2773  -17.1889  -51.9035 C.3       23 UNK        -0.0205 
    127 H127       -4.3988  -18.1011  -48.1782 H         1 UNK         0.0600 
    128 H128       -4.8510  -17.2901  -49.6780 H         1 UNK         0.0600 
    129 H129       -5.6118  -16.8143  -48.1581 H         1 UNK         0.0600 
    130 H130       -3.0338  -16.9675  -46.6368 H         1 UNK         0.3000 
    131 H131       -1.2135  -15.0183  -47.7362 H         1 UNK         0.0600 
    132 H132       -0.0868  -15.1303  -45.5368 H         1 UNK         0.0800 
    133 H133       -1.4267  -15.9982  -44.8437 H         1 UNK         0.0800 
    134 H134        2.1231  -17.1931  -47.0871 H         1 UNK         0.0800 
    135 H135        1.1299  -15.8556  -47.6035 H         1 UNK         0.0800 
    136 H136       -0.4461  -16.1182  -49.5439 H         1 UNK         0.1150 
    137 H137        0.1073  -19.5151  -52.0881 H         1 UNK         0.1150 
    138 H138        2.0934  -19.3399  -48.2977 H         1 UNK         0.1150 
    139 H139        2.6537  -21.1150  -49.9108 H         1 UNK         0.0800 
    140 H140        1.9758  -21.0888  -51.5199 H         1 UNK         0.0800 
    141 H141        0.3312  -21.0143  -47.9311 H         1 UNK         0.0800 
    142 H142        1.5409  -22.2627  -47.8532 H         1 UNK         0.0800 
    143 H143       -0.4409  -23.9670  -47.8686 H         1 UNK         0.0600 
    144 H144        0.6274  -22.4288  -45.7072 H         1 UNK         0.3000 
    145 H145       -0.8918  -24.1422  -43.0139 H         1 UNK         0.0600 
    146 H146        0.8348  -25.8140  -43.6995 H         1 UNK         0.0600 
    147 H147        1.4270  -24.7759  -42.4127 H         1 UNK         0.0600 
    148 H148        1.9604  -24.5142  -44.0739 H         1 UNK         0.0600 
    149 H149        1.2907  -22.3264  -43.1105 H         1 UNK         0.3000 
    150 H150       -0.3472  -19.3365  -43.7921 H         1 UNK         0.0600 
    151 H151        0.4477  -20.1663  -40.9511 H         1 UNK         0.0600 
    152 H152       -1.1227  -19.5241  -41.4208 H         1 UNK         0.0600 
    153 H153        0.3080  -18.5135  -41.5520 H         1 UNK         0.0600 
    154 H154        2.2132  -19.7604  -42.6570 H         1 UNK         0.3000 
    155 H155        4.1135  -21.0082  -44.3425 H         1 UNK         0.0600 
    156 H156        5.2394  -19.8879  -46.2423 H         1 UNK         0.0600 
    157 H157        3.7704  -18.9931  -46.6191 H         1 UNK         0.0600 
    158 H158        3.8160  -20.7445  -46.8052 H         1 UNK         0.0600 
    159 H159        4.5240  -18.1493  -44.4561 H         1 UNK         0.3000 
    160 H160        4.6413  -17.6170  -40.9659 H         1 UNK         0.0600 
    161 H161        6.9444  -17.7445  -42.9797 H         1 UNK         0.0600 
    162 H162        6.8766  -18.5500  -41.4207 H         1 UNK         0.0600 
    163 H163        6.9270  -16.7952  -41.4938 H         1 UNK         0.0600 
    164 H164        3.8864  -15.8637  -41.9788 H         1 UNK         0.3000 
    165 H165        4.8368  -13.9094  -44.6445 H         1 UNK         0.0600 
    166 H166        2.4196  -13.7320  -45.3374 H         1 UNK         0.0600 
    167 H167        3.2110  -15.1317  -46.0456 H         1 UNK         0.0600 
    168 H168        2.1272  -15.3414  -44.6751 H         1 UNK         0.0600 
    169 H169        2.6186  -13.7620  -42.8090 H         1 UNK         0.3000 
    170 H170        4.3690  -13.0837  -39.8864 H         1 UNK         0.0600 
    171 H171        3.3721  -10.8092  -39.7807 H         1 UNK         0.0600 
    172 H172        3.1475  -10.7985  -41.5306 H         1 UNK         0.0600 
    173 H173        4.7680  -10.8049  -40.8452 H         1 UNK         0.0600 
    174 H174        1.6768  -12.4995  -40.5126 H         1 UNK         0.3000 
    175 H175        0.2765  -15.6369  -40.9089 H         1 UNK         0.0600 
    176 H176        0.5749  -15.8170  -38.4343 H         1 UNK         0.0600 
    177 H177        0.1791  -14.1125  -38.2486 H         1 UNK         0.0600 
    178 H178       -1.0364  -15.2479  -38.8376 H         1 UNK         0.0600 
    179 H179       -0.8992  -13.1268  -40.2474 H         1 UNK         0.3000 
    180 H180       -2.0794  -12.0822  -42.0594 H         1 UNK         0.0600 
    181 H181        0.6086  -10.6460  -42.5470 H         1 UNK         0.0600 
    182 H182       -0.2200  -10.7411  -40.9968 H         1 UNK         0.0600 
    183 H183       -0.9424   -9.8431  -42.3173 H         1 UNK         0.0600 
    184 H184       -0.6712  -12.6265  -44.4835 H         1 UNK         0.3000 
    185 H185       -3.2661  -11.3536  -46.5138 H         1 UNK         0.0600 
    186 H186       -1.4460  -10.5098  -47.9748 H         1 UNK         0.0600 
    187 H187       -1.6864   -9.4217  -46.6178 H         1 UNK         0.0600 
    188 H188       -0.3152  -10.5239  -46.6202 H         1 UNK         0.0600 
    189 H189       -0.9241  -12.8615  -47.1276 H         1 UNK         0.3000 
    190 H190       -1.5886  -21.1678  -45.9900 H         1 UNK         0.3000 
    191 H191       -3.9896  -20.7247  -47.5546 H         1 UNK         0.0600 
    192 H192       -2.8658  -18.9086  -46.2552 H         1 UNK         0.0600 
    193 H193       -4.5432  -19.1234  -45.7690 H         1 UNK         0.0600 
    194 H194       -3.2489  -19.7349  -44.7500 H         1 UNK         0.0600 
    195 H195       -3.2124  -22.3174  -44.4335 H         1 UNK         0.3000 
    196 H196       -5.8208  -23.0839  -43.7223 H         1 UNK         0.0600 
    197 H197       -4.6962  -24.6073  -42.1354 H         1 UNK         0.0600 
    198 H198       -3.8445  -23.0701  -42.1816 H         1 UNK         0.0600 
    199 H199       -3.1845  -24.4741  -43.0207 H         1 UNK         0.0600 
    200 H200       -3.4034  -24.8600  -45.6895 H         1 UNK         0.3000 
    201 H201       -5.0654  -27.1956  -46.0981 H         1 UNK         0.0600 
    202 H202       -3.2432  -27.8152  -47.6819 H         1 UNK         0.0600 
    203 H203       -2.5733  -27.2660  -46.1548 H         1 UNK         0.0600 
    204 H204       -2.5587  -26.1987  -47.5583 H         1 UNK         0.0600 
    205 H205       -5.2673  -24.0741  -47.3824 H         1 UNK         0.3000 
    206 H206       -6.2447  -23.0426  -49.0456 H         1 UNK         0.0600 
    207 H207       -8.2312  -24.4903  -48.5343 H         1 UNK         0.0600 
    208 H208       -8.1665  -23.9999  -50.2189 H         1 UNK         0.0600 
    209 H209       -7.7048  -25.6335  -49.7704 H         1 UNK         0.0600 
    210 H210       -3.7056  -24.6082  -49.4556 H         1 UNK         0.3000 
    211 H211       -3.4563  -25.2126  -52.2666 H         1 UNK         0.0600 
    212 H212       -1.3647  -24.6246  -50.1080 H         1 UNK         0.0600 
    213 H213       -1.0076  -25.2206  -51.7234 H         1 UNK         0.0600 
    214 H214       -1.9320  -26.2156  -50.6069 H         1 UNK         0.0600 
    215 H215       -3.0969  -22.3569  -50.2417 H         1 UNK         0.3000 
    216 H216       -1.9557  -20.4954  -51.9774 H         1 UNK         0.0600 
    217 H217       -3.1654  -18.8246  -50.5320 H         1 UNK         0.0600 
    218 H218       -2.3426  -20.0573  -49.5947 H         1 UNK         0.0600 
    219 H219       -4.0923  -20.1337  -49.8219 H         1 UNK         0.0600 
    220 H220       -5.3755  -21.4359  -51.6482 H         1 UNK         0.3000 
    221 H221       -6.3808  -19.6175  -53.6665 H         1 UNK         0.0600 
    222 H222       -7.6828  -22.0137  -52.2618 H         1 UNK         0.0600 
    223 H223       -7.7679  -20.3342  -51.7302 H         1 UNK         0.0600 
    224 H224       -8.5216  -20.8177  -53.2414 H         1 UNK         0.0600 
    225 H225       -5.2150  -22.9457  -53.6156 H         1 UNK         0.3000 
    226 H226       -6.2474  -23.7268  -56.1967 H         1 UNK         0.0600 
    227 H227       -5.0022  -25.7902  -55.7775 H         1 UNK         0.0600 
    228 H228       -4.0985  -25.0435  -54.4699 H         1 UNK         0.0600 
    229 H229       -5.8320  -25.3225  -54.3007 H         1 UNK         0.0600 
    230 H230       -5.1917  -21.4377  -56.7837 H         1 UNK         0.3000 
    231 H231       -4.0805  -20.3415  -58.3154 H         1 UNK         0.0600 
    232 H232       -3.0677  -23.0288  -59.3742 H         1 UNK         0.0600 
    233 H233       -3.1669  -21.5204  -60.2687 H         1 UNK         0.0600 
    234 H234       -4.6387  -22.3179  -59.7445 H         1 UNK         0.0600 
    235 H235       -2.3973  -21.4921  -55.7968 H         1 UNK         0.3000 
    236 H236        0.3161  -20.8679  -56.6059 H         1 UNK         0.0600 
    237 H237       -0.9591  -20.9679  -53.8400 H         1 UNK         0.0600 
    238 H238       -0.1141  -22.2882  -54.6357 H         1 UNK         0.0600 
    239 H239        0.7660  -20.8425  -54.1563 H         1 UNK         0.0600 
    240 H240       -2.3098  -19.0597  -54.9735 H         1 UNK         0.3000 
    241 H241       -1.2934  -16.6168  -56.3158 H         1 UNK         0.0600 
    242 H242       -5.2118  -17.8798  -56.4014 H         1 UNK         0.3800 
    243 H243       -4.1625  -18.5641  -55.1845 H         1 UNK         0.3800 
    244 H244       -2.8925  -16.3753  -53.7404 H         1 UNK         0.0800 
    245 H245       -2.1023  -15.1225  -54.6441 H         1 UNK         0.0800 
    246 H246       -1.9756  -16.5271  -51.3881 H         1 UNK         0.0800 
    247 H247       -1.8702  -18.0105  -52.3040 H         1 UNK         0.0800 
@<TRIPOS>BOND
     1    1    2 1    
     2    1  127 1    
     3    1  128 1    
     4    1  129 1    
     5    2    3 2    
     6    2    4 am   BACKBONE|DICT|INTERRES
     7    4    5 1    
     8    4  130 1    
     9    5    6 1    
    10    5   65 1    
    11    5  131 1    
    12    6    7 1    
    13    6  132 1    
    14    6  133 1    
    15    7    8 1    
    16    8    9 1    
    17    8  134 1    
    18    8  135 1    
    19    9   10 ar   
    20    9   14 ar   
    21   10   11 ar   
    22   10  136 1    
    23   11   12 ar   
    24   11  126 1    
    25   12   13 ar   
    26   12  137 1    
    27   13   14 ar   
    28   13   15 1    
    29   14  138 1    
    30   15   16 1    
    31   15  139 1    
    32   15  140 1    
    33   16   17 1    
    34   17   18 1    
    35   17  141 1    
    36   17  142 1    
    37   18   19 1    
    38   18   67 1    
    39   18  143 1    
    40   19   20 am   BACKBONE|DICT|INTERRES
    41   19  144 1    
    42   20   21 2    
    43   20   22 1    
    44   22   23 1    
    45   22   24 1    
    46   22  145 1    
    47   23  146 1    
    48   23  147 1    
    49   23  148 1    
    50   24   25 am   BACKBONE|DICT|INTERRES
    51   24  149 1    
    52   25   26 2    
    53   25   27 1    
    54   27   28 1    
    55   27   29 1    
    56   27  150 1    
    57   28  151 1    
    58   28  152 1    
    59   28  153 1    
    60   29   30 am   BACKBONE|DICT|INTERRES
    61   29  154 1    
    62   30   31 2    
    63   30   32 1    
    64   32   33 1    
    65   32   34 1    
    66   32  155 1    
    67   33  156 1    
    68   33  157 1    
    69   33  158 1    
    70   34   35 am   BACKBONE|DICT|INTERRES
    71   34  159 1    
    72   35   36 2    
    73   35   37 1    
    74   37   38 1    
    75   37   39 1    
    76   37  160 1    
    77   38  161 1    
    78   38  162 1    
    79   38  163 1    
    80   39   40 am   BACKBONE|DICT|INTERRES
    81   39  164 1    
    82   40   41 2    
    83   40   42 1    
    84   42   43 1    
    85   42   44 1    
    86   42  165 1    
    87   43  166 1    
    88   43  167 1    
    89   43  168 1    
    90   44   45 am   BACKBONE|DICT|INTERRES
    91   44  169 1    
    92   45   46 2    
    93   45   47 1    
    94   47   48 1    
    95   47   49 1    
    96   47  170 1    
    97   48  171 1    
    98   48  172 1    
    99   48  173 1    
   100   49   50 am   BACKBONE|DICT|INTERRES
   101   49  174 1    
   102   50   51 2    
   103   50   52 1    
   104   52   53 1    
   105   52   54 1    
   106   52  175 1    
   107   53  176 1    
   108   53  177 1    
   109   53  178 1    
   110   54   55 am   BACKBONE|DICT|INTERRES
   111   54  179 1    
   112   55   56 2    
   113   55   57 1    
   114   57   58 1    
   115   57   59 1    
   116   57  180 1    
   117   58  181 1    
   118   58  182 1    
   119   58  183 1    
   120   59   60 am   BACKBONE|DICT|INTERRES
   121   59  184 1    
   122   60   61 2    
   123   60   62 1    
   124   62   63 1    
   125   62   64 1    
   126   62  185 1    
   127   63  186 1    
   128   63  187 1    
   129   63  188 1    
   130   64   65 am   BACKBONE|DICT|INTERRES
   131   64  189 1    
   132   65   66 2    
   133   67   68 2    
   134   67   69 am   BACKBONE|DICT|INTERRES
   135   69   70 1    
   136   69  190 1    
   137   70   71 1    
   138   70   72 1    
   139   70  191 1    
   140   71  192 1    
   141   71  193 1    
   142   71  194 1    
   143   72   73 2    
   144   72   74 am   BACKBONE|DICT|INTERRES
   145   74   75 1    
   146   74  195 1    
   147   75   76 1    
   148   75   77 1    
   149   75  196 1    
   150   76  197 1    
   151   76  198 1    
   152   76  199 1    
   153   77   78 2    
   154   77   79 am   BACKBONE|DICT|INTERRES
   155   79   80 1    
   156   79  200 1    
   157   80   81 1    
   158   80   82 1    
   159   80  201 1    
   160   81  202 1    
   161   81  203 1    
   162   81  204 1    
   163   82   83 2    
   164   82   84 am   BACKBONE|DICT|INTERRES
   165   84   85 1    
   166   84  205 1    
   167   85   86 1    
   168   85   87 1    
   169   85  206 1    
   170   86  207 1    
   171   86  208 1    
   172   86  209 1    
   173   87   88 2    
   174   87   89 am   BACKBONE|DICT|INTERRES
   175   89   90 1    
   176   89  210 1    
   177   90   91 1    
   178   90   92 1    
   179   90  211 1    
   180   91  212 1    
   181   91  213 1    
   182   91  214 1    
   183   92   93 2    
   184   92   94 am   BACKBONE|DICT|INTERRES
   185   94   95 1    
   186   94  215 1    
   187   95   96 1    
   188   95   97 1    
   189   95  216 1    
   190   96  217 1    
   191   96  218 1    
   192   96  219 1    
   193   97   98 2    
   194   97   99 am   BACKBONE|DICT|INTERRES
   195   99  100 1    
   196   99  220 1    
   197  100  101 1    
   198  100  102 1    
   199  100  221 1    
   200  101  222 1    
   201  101  223 1    
   202  101  224 1    
   203  102  103 2    
   204  102  104 am   BACKBONE|DICT|INTERRES
   205  104  105 1    
   206  104  225 1    
   207  105  106 1    
   208  105  107 1    
   209  105  226 1    
   210  106  227 1    
   211  106  228 1    
   212  106  229 1    
   213  107  108 2    
   214  107  109 am   BACKBONE|DICT|INTERRES
   215  109  110 1    
   216  109  230 1    
   217  110  111 1    
   218  110  112 1    
   219  110  231 1    
   220  111  232 1    
   221  111  233 1    
   222  111  234 1    
   223  112  113 2    
   224  112  114 am   BACKBONE|DICT|INTERRES
   225  114  115 1    
   226  114  235 1    
   227  115  116 1    
   228  115  117 1    
   229  115  236 1    
   230  116  237 1    
   231  116  238 1    
   232  116  239 1    
   233  117  118 2    
   234  117  119 am   BACKBONE|DICT|INTERRES
   235  119  120 1    
   236  119  240 1    
   237  120  121 1    
   238  120  124 1    
   239  120  241 1    
   240  121  122 am   BACKBONE|DICT|INTERRES
   241  121  123 2    
   242  122  242 1    
   243  122  243 1    
   244  124  125 1    
   245  124  244 1    
   246  124  245 1    
   247  125  126 1    
   248  126  246 1    
   249  126  247 1    
@<TRIPOS>SUBSTRUCTURE
     1 UNK         1 GROUP             0       ****    0 ROOT    
