@<TRIPOS>MOLECULE
3R540
247   249    1
SMALL
USER_CHARGES


@<TRIPOS>ATOM
      1 CA          5.9042  -12.5297  -45.4237 C.3       0 UNK        -0.1800 
      2 C           4.5255  -13.1141  -45.6879 C.2       0 UNK         0.5000 
      3 O           3.7190  -13.2262  -44.7628 O.2       0 UNK        -0.5000 
      4 N           4.2376  -13.4764  -46.9463 N.am      1 UNK        -0.5000 
      5 CA          2.9716  -14.0879  -47.3736 C.3       1 UNK         0.1400 
      6 C6          3.0364  -14.6630  -48.8092 C.3       23 UNK        -0.0398 
      7 S7          3.4289  -13.4584  -50.1365 S.3       23 UNK        -0.2404 
      8 C8          1.7998  -12.9370  -50.7872 C.3       23 UNK        -0.0205 
      9 C9          0.8862  -14.1086  -51.1182 C.ar      23 UNK        -0.0193 
     10 C10         1.0663  -14.8591  -52.2843 C.ar      23 UNK        -0.1150 
     11 C11         0.2683  -15.9817  -52.5428 C.ar      23 UNK        -0.0193 
     12 C12        -0.7136  -16.3468  -51.6126 C.ar      23 UNK        -0.1150 
     13 C13        -0.8955  -15.6052  -50.4437 C.ar      23 UNK        -0.0193 
     14 C14        -0.1218  -14.4670  -50.2230 C.ar      23 UNK        -0.1150 
     15 C15        -1.8545  -16.0754  -49.3670 C.3       23 UNK        -0.0205 
     16 S16        -0.9003  -16.8670  -48.0389 S.3       23 UNK        -0.2404 
     17 C17        -2.2182  -17.4580  -46.9325 C.3       23 UNK        -0.0398 
     18 CA         -2.6783  -18.9071  -47.2334 C.3       11 UNK         0.1400 
     19 N          -1.5547  -19.8030  -47.5322 N.am      11 UNK        -0.5000 
     20 C          -1.6163  -21.1120  -47.8065 C.2       10 UNK         0.5000 
     21 O          -2.6694  -21.7340  -47.9251 O.2       10 UNK        -0.5000 
     22 CA         -0.2824  -21.8710  -47.9248 C.3       10 UNK         0.1400 
     23 CB          0.1003  -22.0223  -49.4045 C.3       10 UNK        -0.1800 
     24 N           0.8335  -21.2578  -47.1936 N.am      10 UNK        -0.5000 
     25 C           0.8449  -20.9303  -45.8927 C.2       9 UNK         0.5000 
     26 O          -0.1144  -21.1003  -45.1324 O.2       9 UNK        -0.5000 
     27 CA          2.1117  -20.2098  -45.4008 C.3       9 UNK         0.1400 
     28 CB          2.1791  -18.7974  -46.0081 C.3       9 UNK        -0.1800 
     29 N           2.1455  -20.1019  -43.9429 N.am      9 UNK        -0.5000 
     30 C           2.4338  -21.1127  -43.1107 C.2       8 UNK         0.5000 
     31 O           2.7558  -22.2367  -43.4993 O.2       8 UNK        -0.5000 
     32 CA          2.3653  -20.8417  -41.5964 C.3       8 UNK         0.1400 
     33 CB          3.7775  -20.6453  -41.0237 C.3       8 UNK        -0.1800 
     34 N           1.5543  -19.6662  -41.2743 N.am      8 UNK        -0.5000 
     35 C           0.5068  -19.6531  -40.4428 C.2       7 UNK         0.5000 
     36 O           0.1107  -20.6410  -39.8211 O.2       7 UNK        -0.5000 
     37 CA         -0.2169  -18.2977  -40.2948 C.3       7 UNK         0.1400 
     38 CB         -1.3021  -18.2981  -39.1985 C.3       7 UNK        -0.1800 
     39 N           0.7047  -17.1693  -40.1200 N.am      7 UNK        -0.5000 
     40 C           1.5793  -16.9651  -39.1232 C.2       6 UNK         0.5000 
     41 O           1.7192  -17.7176  -38.1576 O.2       6 UNK        -0.5000 
     42 CA          2.4353  -15.6865  -39.2515 C.3       6 UNK         0.1400 
     43 CB          3.5342  -15.5625  -38.1744 C.3       6 UNK        -0.1800 
     44 N           2.9791  -15.5305  -40.6055 N.am      6 UNK        -0.5000 
     45 C           3.8781  -16.3196  -41.2170 C.2       5 UNK         0.5000 
     46 O           4.4796  -17.2363  -40.6574 O.2       5 UNK        -0.5000 
     47 CA          4.1155  -16.0477  -42.7214 C.3       5 UNK         0.1400 
     48 CB          4.7968  -17.2247  -43.4490 C.3       5 UNK        -0.1800 
     49 N           2.8940  -15.6437  -43.4275 N.am      5 UNK        -0.5000 
     50 C           1.7374  -16.3217  -43.4894 C.2       4 UNK         0.5000 
     51 O           1.5966  -17.4593  -43.0393 O.2       4 UNK        -0.5000 
     52 CA          0.5244  -15.5990  -44.1130 C.3       4 UNK         0.1400 
     53 CB         -0.8170  -16.1109  -43.5471 C.3       4 UNK        -0.1800 
     54 N           0.5965  -14.1371  -44.0111 N.am      4 UNK        -0.5000 
     55 C           0.7215  -13.3948  -42.8977 C.2       3 UNK         0.5000 
     56 O           0.7640  -13.8797  -41.7649 O.2       3 UNK        -0.5000 
     57 CA          0.8884  -11.8710  -43.0794 C.3       3 UNK         0.1400 
     58 CB          1.9926  -11.3199  -42.1600 C.3       3 UNK        -0.1800 
     59 N           1.2334  -11.5383  -44.4625 N.am      3 UNK        -0.5000 
     60 C           0.4245  -10.9492  -45.3537 C.2       2 UNK         0.5000 
     61 O          -0.6974  -10.5214  -45.0817 O.2       2 UNK        -0.5000 
     62 CA          0.9417  -10.8455  -46.8061 C.3       2 UNK         0.1400 
     63 CB          1.5257   -9.4500  -47.0716 C.3       2 UNK        -0.1800 
     64 N           1.9505  -11.8534  -47.1475 N.am      2 UNK        -0.5000 
     65 C           1.7429  -13.1782  -47.1584 C.2       1 UNK         0.5000 
     66 O           0.6480  -13.6892  -46.9290 O.2       1 UNK        -0.5000 
     67 C          -3.5429  -19.4220  -46.0646 C.2       11 UNK         0.5000 
     68 O          -4.7691  -19.3442  -46.1327 O.2       11 UNK        -0.5000 
     69 N          -2.8748  -19.9527  -45.0321 N.am      12 UNK        -0.5000 
     70 CA         -3.4950  -20.5343  -43.8469 C.3       12 UNK         0.1400 
     71 CB         -2.7184  -20.0700  -42.6035 C.3       12 UNK        -0.1800 
     72 C          -3.5090  -22.0683  -43.9305 C.2       12 UNK         0.5000 
     73 O          -4.5173  -22.6843  -43.5854 O.2       12 UNK        -0.5000 
     74 N          -2.3926  -22.6589  -44.3794 N.am      13 UNK        -0.5000 
     75 CA         -2.1625  -24.1038  -44.3661 C.3       13 UNK         0.1400 
     76 CB         -0.6549  -24.3682  -44.5042 C.3       13 UNK        -0.1800 
     77 C          -2.9476  -24.8858  -45.4360 C.2       13 UNK         0.5000 
     78 O          -3.2091  -26.0719  -45.2304 O.2       13 UNK        -0.5000 
     79 N          -3.2930  -24.2345  -46.5541 N.am      14 UNK        -0.5000 
     80 CA         -3.9352  -24.8605  -47.7127 C.3       14 UNK         0.1400 
     81 CB         -2.8492  -25.2513  -48.7331 C.3       14 UNK        -0.1800 
     82 C          -5.0184  -23.9643  -48.3412 C.2       14 UNK         0.5000 
     83 O          -5.4001  -24.2033  -49.4875 O.2       14 UNK        -0.5000 
     84 N          -5.4754  -22.9386  -47.6050 N.am      15 UNK        -0.5000 
     85 CA         -6.4804  -21.9428  -48.0021 C.3       15 UNK         0.1400 
     86 CB         -7.8839  -22.5824  -48.0175 C.3       15 UNK        -0.1800 
     87 C          -6.1286  -21.1996  -49.3130 C.2       15 UNK         0.5000 
     88 O          -6.9837  -21.0335  -50.1837 O.2       15 UNK        -0.5000 
     89 N          -4.8573  -20.7871  -49.4203 N.am      16 UNK        -0.5000 
     90 CA         -4.2068  -20.1514  -50.5731 C.3       16 UNK         0.1400 
     91 CB         -4.8825  -18.8201  -50.9616 C.3       16 UNK        -0.1800 
     92 C          -4.0297  -21.1292  -51.7490 C.2       16 UNK         0.5000 
     93 O          -4.2179  -20.7512  -52.9075 O.2       16 UNK        -0.5000 
     94 N          -3.6432  -22.3672  -51.4030 N.am      17 UNK        -0.5000 
     95 CA         -3.4099  -23.5135  -52.2851 C.3       17 UNK         0.1400 
     96 CB         -2.1898  -23.2645  -53.1961 C.3       17 UNK        -0.1800 
     97 C          -4.6816  -23.9069  -53.0601 C.2       17 UNK         0.5000 
     98 O          -4.6573  -23.9975  -54.2867 O.2       17 UNK        -0.5000 
     99 N          -5.7738  -24.1326  -52.3169 N.am      18 UNK        -0.5000 
    100 CA        -7.1409  -24.3515  -52.8065 C.3       18 UNK         0.1400 
    101 CB        -8.0927  -24.3947  -51.6017 C.3       18 UNK        -0.1800 
    102 C         -7.3576  -25.5782  -53.7195 C.2       18 UNK         0.5000 
    103 O         -8.4271  -25.6950  -54.3197 O.2       18 UNK        -0.5000 
    104 N         -6.3508  -26.4551  -53.8418 N.am      19 UNK        -0.5000 
    105 CA        -6.2817  -27.5110  -54.8573 C.3       19 UNK         0.1400 
    106 CB        -5.0801  -28.4181  -54.5519 C.3       19 UNK        -0.1800 
    107 C         -6.1885  -26.9539  -56.2963 C.2       19 UNK         0.5000 
    108 O         -6.6149  -27.6239  -57.2379 O.2       19 UNK        -0.5000 
    109 N         -5.6585  -25.7334  -56.4306 N.am      20 UNK        -0.5000 
    110 CA        -5.6492  -24.9207  -57.6378 C.3       20 UNK         0.1400 
    111 CB        -4.3394  -25.1606  -58.4172 C.3       20 UNK        -0.1800 
    112 C         -5.8690  -23.4740  -57.1659 C.2       20 UNK         0.5000 
    113 O         -6.9591  -23.1619  -56.6825 O.2       20 UNK        -0.5000 
    114 N         -4.8284  -22.6409  -57.2457 N.am      21 UNK        -0.5000 
    115 CA        -4.7293  -21.3384  -56.5988 C.3       21 UNK         0.1400 
    116 CB        -5.5493  -20.2843  -57.3661 C.3       21 UNK        -0.1800 
    117 C         -3.2470  -20.9468  -56.5532 C.2       21 UNK         0.5000 
    118 O         -2.4930  -21.3247  -57.4550 O.2       21 UNK        -0.5000 
    119 N         -2.8582  -20.1850  -55.5257 N.am      22 UNK        -0.5000 
    120 CA        -1.5368  -19.5511  -55.4116 C.3       22 UNK         0.1400 
    121 C         -1.3021  -18.4961  -56.5326 C.2       22 UNK         0.5000 
    122 N         -0.1474  -18.5114  -57.1843 N.am      22 UNK        -0.7600 
    123 O         -2.1482  -17.6424  -56.7895 O.2       22 UNK        -0.5000 
    124 C124       -1.3441  -18.9359  -54.0019 C.3       23 UNK        -0.0398 
    125 S125        0.4079  -18.5939  -53.6066 S.3       23 UNK        -0.2404 
    126 C126        0.4895  -16.7804  -53.8265 C.3       23 UNK        -0.0205 
    127 H127        6.4362  -13.1435  -44.6971 H         1 UNK         0.0600 
    128 H128        5.8117  -11.5222  -45.0184 H         1 UNK         0.0600 
    129 H129        6.5040  -12.4790  -46.3326 H         1 UNK         0.0600 
    130 H130        4.9267  -13.3459  -47.6740 H         1 UNK         0.3000 
    131 H131        2.8161  -14.9426  -46.7108 H         1 UNK         0.0600 
    132 H132        2.1263  -15.2156  -49.0367 H         1 UNK         0.0800 
    133 H133        3.8205  -15.4206  -48.8390 H         1 UNK         0.0800 
    134 H134        1.9566  -12.3371  -51.6847 H         1 UNK         0.0800 
    135 H135        1.3221  -12.2738  -50.0645 H         1 UNK         0.0800 
    136 H136        1.8443  -14.5774  -52.9802 H         1 UNK         0.1150 
    137 H137       -1.3169  -17.2272  -51.7738 H         1 UNK         0.1150 
    138 H138       -0.2617  -13.9019  -49.3132 H         1 UNK         0.1150 
    139 H139       -2.4165  -15.2294  -48.9685 H         1 UNK         0.0800 
    140 H140       -2.5805  -16.7808  -49.7742 H         1 UNK         0.0800 
    141 H141       -3.0641  -16.7693  -46.9713 H         1 UNK         0.0800 
    142 H142       -1.8182  -17.3857  -45.9210 H         1 UNK         0.0800 
    143 H143       -3.3100  -18.8729  -48.1203 H         1 UNK         0.0600 
    144 H144       -0.6425  -19.3728  -47.4929 H         1 UNK         0.3000 
    145 H145       -0.4421  -22.8673  -47.5104 H         1 UNK         0.0600 
    146 H146        0.9861  -22.6468  -49.5214 H         1 UNK         0.0600 
    147 H147       -0.7029  -22.4939  -49.9728 H         1 UNK         0.0600 
    148 H148        0.3057  -21.0565  -49.8685 H         1 UNK         0.0600 
    149 H149        1.6597  -21.0655  -47.7415 H         1 UNK         0.3000 
    150 H150        2.9844  -20.7771  -45.7306 H         1 UNK         0.0600 
    151 H151        2.2696  -18.8347  -47.0942 H         1 UNK         0.0600 
    152 H152        3.0422  -18.2461  -45.6371 H         1 UNK         0.0600 
    153 H153        1.2837  -18.2194  -45.7779 H         1 UNK         0.0600 
    154 H154        1.8660  -19.2045  -43.5596 H         1 UNK         0.3000 
    155 H155        1.9347  -21.7350  -41.1399 H         1 UNK         0.0600 
    156 H156        4.2854  -19.8010  -41.4900 H         1 UNK         0.0600 
    157 H157        4.3934  -21.5302  -41.1883 H         1 UNK         0.0600 
    158 H158        3.7460  -20.4642  -39.9491 H         1 UNK         0.0600 
    159 H159        1.7802  -18.8048  -41.7638 H         1 UNK         0.3000 
    160 H160       -0.7210  -18.1279  -41.2463 H         1 UNK         0.0600 
    161 H161       -0.8844  -18.5065  -38.2132 H         1 UNK         0.0600 
    162 H162       -2.0590  -19.0571  -39.3999 H         1 UNK         0.0600 
    163 H163       -1.8134  -17.3368  -39.1503 H         1 UNK         0.0600 
    164 H164        0.7085  -16.4986  -40.8755 H         1 UNK         0.3000 
    165 H165        1.7490  -14.8506  -39.1076 H         1 UNK         0.0600 
    166 H166        4.2234  -16.4069  -38.1910 H         1 UNK         0.0600 
    167 H167        4.1158  -14.6505  -38.3077 H         1 UNK         0.0600 
    168 H168        3.0949  -15.5243  -37.1770 H         1 UNK         0.0600 
    169 H169        2.5065  -14.8302  -41.1671 H         1 UNK         0.3000 
    170 H170        4.7923  -15.1935  -42.7711 H         1 UNK         0.0600 
    171 H171        5.7706  -17.4449  -43.0103 H         1 UNK         0.0600 
    172 H172        4.2016  -18.1355  -43.3934 H         1 UNK         0.0600 
    173 H173        4.9617  -16.9934  -44.5012 H         1 UNK         0.0600 
    174 H174        2.9342  -14.7174  -43.8448 H         1 UNK         0.3000 
    175 H175        0.5476  -15.8373  -45.1770 H         1 UNK         0.0600 
    176 H176       -0.9112  -15.9099  -42.4800 H         1 UNK         0.0600 
    177 H177       -1.6592  -15.6351  -44.0491 H         1 UNK         0.0600 
    178 H178       -0.9236  -17.1873  -43.6873 H         1 UNK         0.0600 
    179 H179        0.5693  -13.6545  -44.9028 H         1 UNK         0.3000 
    180 H180       -0.0584  -11.4083  -42.7952 H         1 UNK         0.0600 
    181 H181        2.9549  -11.7932  -42.3603 H         1 UNK         0.0600 
    182 H182        1.7538  -11.4893  -41.1093 H         1 UNK         0.0600 
    183 H183        2.1145  -10.2449  -42.2930 H         1 UNK         0.0600 
    184 H184        2.1334  -11.8857  -44.7759 H         1 UNK         0.3000 
    185 H185        0.0864  -10.9922  -47.4689 H         1 UNK         0.0600 
    186 H186        0.7920   -8.6718  -46.8571 H         1 UNK         0.0600 
    187 H187        2.4013   -9.2560  -46.4509 H         1 UNK         0.0600 
    188 H188        1.8207   -9.3375  -48.1151 H         1 UNK         0.0600 
    189 H189        2.8843  -11.5165  -47.3327 H         1 UNK         0.3000 
    190 H190       -1.8667  -20.0412  -45.0978 H         1 UNK         0.3000 
    191 H191       -4.5273  -20.1916  -43.7486 H         1 UNK         0.0600 
    192 H192       -3.1407  -20.4984  -41.6936 H         1 UNK         0.0600 
    193 H193       -2.7582  -18.9855  -42.5009 H         1 UNK         0.0600 
    194 H194       -1.6687  -20.3637  -42.6492 H         1 UNK         0.0600 
    195 H195       -1.5950  -22.0810  -44.6336 H         1 UNK         0.3000 
    196 H196       -2.4782  -24.4846  -43.3924 H         1 UNK         0.0600 
    197 H197       -0.2684  -24.0162  -45.4601 H         1 UNK         0.0600 
    198 H198       -0.0921  -23.8695  -43.7145 H         1 UNK         0.0600 
    199 H199       -0.4364  -25.4345  -44.4352 H         1 UNK         0.0600 
    200 H200       -3.0300  -23.2620  -46.6709 H         1 UNK         0.3000 
    201 H201       -4.4555  -25.7690  -47.4036 H         1 UNK         0.0600 
    202 H202       -2.3285  -24.3744  -49.1186 H         1 UNK         0.0600 
    203 H203       -3.2773  -25.7855  -49.5819 H         1 UNK         0.0600 
    204 H204       -2.1057  -25.9098  -48.2839 H         1 UNK         0.0600 
    205 H205       -5.0975  -22.8293  -46.6752 H         1 UNK         0.3000 
    206 H206       -6.4827  -21.1806  -47.2222 H         1 UNK         0.0600 
    207 H207       -8.1367  -22.9910  -47.0393 H         1 UNK         0.0600 
    208 H208       -8.6510  -21.8488  -48.2681 H         1 UNK         0.0600 
    209 H209       -7.9523  -23.3932  -48.7415 H         1 UNK         0.0600 
    210 H210       -4.2244  -21.0562  -48.6712 H         1 UNK         0.3000 
    211 H211       -3.1937  -19.9081  -50.2512 H         1 UNK         0.0600 
    212 H212       -4.2878  -18.2861  -51.7037 H         1 UNK         0.0600 
    213 H213       -4.9886  -18.1641  -50.0978 H         1 UNK         0.0600 
    214 H214       -5.8724  -18.9747  -51.3911 H         1 UNK         0.0600 
    215 H215       -3.5752  -22.5641  -50.4149 H         1 UNK         0.3000 
    216 H216       -3.1692  -24.3595  -51.6409 H         1 UNK         0.0600 
    217 H217       -1.3051  -23.0143  -52.6108 H         1 UNK         0.0600 
    218 H218       -2.3653  -22.4517  -53.8998 H         1 UNK         0.0600 
    219 H219       -1.9526  -24.1540  -53.7806 H         1 UNK         0.0600 
    220 H220       -5.6779  -24.0726  -51.3044 H         1 UNK         0.3000 
    221 H221       -7.4027  -23.4786  -53.4080 H         1 UNK         0.0600 
    222 H222       -8.0775  -23.4465  -51.0659 H         1 UNK         0.0600 
    223 H223       -7.8186  -25.1843  -50.9011 H         1 UNK         0.0600 
    224 H224       -9.1235  -24.5698  -51.9122 H         1 UNK         0.0600 
    225 H225       -5.5130  -26.2852  -53.3060 H         1 UNK         0.3000 
    226 H226       -7.1927  -28.1092  -54.7905 H         1 UNK         0.0600 
    227 H227       -4.1399  -27.8662  -54.5896 H         1 UNK         0.0600 
    228 H228       -5.1667  -28.8689  -53.5631 H         1 UNK         0.0600 
    229 H229       -5.0123  -29.2322  -55.2747 H         1 UNK         0.0600 
    230 H230       -5.3614  -25.2381  -55.5924 H         1 UNK         0.3000 
    231 H231       -6.4959  -25.1841  -58.2750 H         1 UNK         0.0600 
    232 H232       -3.4574  -24.9697  -57.8043 H         1 UNK         0.0600 
    233 H233       -4.2835  -24.5224  -59.2999 H         1 UNK         0.0600 
    234 H234       -4.2794  -26.1925  -58.7634 H         1 UNK         0.0600 
    235 H235       -3.9562  -22.9647  -57.6450 H         1 UNK         0.3000 
    236 H236       -5.1015  -21.4222  -55.5751 H         1 UNK         0.0600 
    237 H237       -6.6121  -20.5252  -57.3659 H         1 UNK         0.0600 
    238 H238       -5.4418  -19.2996  -56.9095 H         1 UNK         0.0600 
    239 H239       -5.2239  -20.2026  -58.4039 H         1 UNK         0.0600 
    240 H240       -3.5212  -19.9825  -54.7866 H         1 UNK         0.3000 
    241 H241       -0.8016  -20.3497  -55.5316 H         1 UNK         0.0600 
    242 H242        0.0185  -17.8269  -57.9056 H         1 UNK         0.3800 
    243 H243        0.5643  -19.1955  -56.9790 H         1 UNK         0.3800 
    244 H244       -1.9526  -18.0381  -53.8814 H         1 UNK         0.0800 
    245 H245       -1.6959  -19.6378  -53.2451 H         1 UNK         0.0800 
    246 H246        1.4732  -16.5493  -54.2379 H         1 UNK         0.0800 
    247 H247       -0.2326  -16.4562  -54.5766 H         1 UNK         0.0800 
@<TRIPOS>BOND
     1    1    2 1    
     2    1  127 1    
     3    1  128 1    
     4    1  129 1    
     5    2    3 2    
     6    2    4 am   BACKBONE|DICT|INTERRES
     7    4    5 1    
     8    4  130 1    
     9    5    6 1    
    10    5   65 1    
    11    5  131 1    
    12    6    7 1    
    13    6  132 1    
    14    6  133 1    
    15    7    8 1    
    16    8    9 1    
    17    8  134 1    
    18    8  135 1    
    19    9   10 ar   
    20    9   14 ar   
    21   10   11 ar   
    22   10  136 1    
    23   11   12 ar   
    24   11  126 1    
    25   12   13 ar   
    26   12  137 1    
    27   13   14 ar   
    28   13   15 1    
    29   14  138 1    
    30   15   16 1    
    31   15  139 1    
    32   15  140 1    
    33   16   17 1    
    34   17   18 1    
    35   17  141 1    
    36   17  142 1    
    37   18   19 1    
    38   18   67 1    
    39   18  143 1    
    40   19   20 am   BACKBONE|DICT|INTERRES
    41   19  144 1    
    42   20   21 2    
    43   20   22 1    
    44   22   23 1    
    45   22   24 1    
    46   22  145 1    
    47   23  146 1    
    48   23  147 1    
    49   23  148 1    
    50   24   25 am   BACKBONE|DICT|INTERRES
    51   24  149 1    
    52   25   26 2    
    53   25   27 1    
    54   27   28 1    
    55   27   29 1    
    56   27  150 1    
    57   28  151 1    
    58   28  152 1    
    59   28  153 1    
    60   29   30 am   BACKBONE|DICT|INTERRES
    61   29  154 1    
    62   30   31 2    
    63   30   32 1    
    64   32   33 1    
    65   32   34 1    
    66   32  155 1    
    67   33  156 1    
    68   33  157 1    
    69   33  158 1    
    70   34   35 am   BACKBONE|DICT|INTERRES
    71   34  159 1    
    72   35   36 2    
    73   35   37 1    
    74   37   38 1    
    75   37   39 1    
    76   37  160 1    
    77   38  161 1    
    78   38  162 1    
    79   38  163 1    
    80   39   40 am   BACKBONE|DICT|INTERRES
    81   39  164 1    
    82   40   41 2    
    83   40   42 1    
    84   42   43 1    
    85   42   44 1    
    86   42  165 1    
    87   43  166 1    
    88   43  167 1    
    89   43  168 1    
    90   44   45 am   BACKBONE|DICT|INTERRES
    91   44  169 1    
    92   45   46 2    
    93   45   47 1    
    94   47   48 1    
    95   47   49 1    
    96   47  170 1    
    97   48  171 1    
    98   48  172 1    
    99   48  173 1    
   100   49   50 am   BACKBONE|DICT|INTERRES
   101   49  174 1    
   102   50   51 2    
   103   50   52 1    
   104   52   53 1    
   105   52   54 1    
   106   52  175 1    
   107   53  176 1    
   108   53  177 1    
   109   53  178 1    
   110   54   55 am   BACKBONE|DICT|INTERRES
   111   54  179 1    
   112   55   56 2    
   113   55   57 1    
   114   57   58 1    
   115   57   59 1    
   116   57  180 1    
   117   58  181 1    
   118   58  182 1    
   119   58  183 1    
   120   59   60 am   BACKBONE|DICT|INTERRES
   121   59  184 1    
   122   60   61 2    
   123   60   62 1    
   124   62   63 1    
   125   62   64 1    
   126   62  185 1    
   127   63  186 1    
   128   63  187 1    
   129   63  188 1    
   130   64   65 am   BACKBONE|DICT|INTERRES
   131   64  189 1    
   132   65   66 2    
   133   67   68 2    
   134   67   69 am   BACKBONE|DICT|INTERRES
   135   69   70 1    
   136   69  190 1    
   137   70   71 1    
   138   70   72 1    
   139   70  191 1    
   140   71  192 1    
   141   71  193 1    
   142   71  194 1    
   143   72   73 2    
   144   72   74 am   BACKBONE|DICT|INTERRES
   145   74   75 1    
   146   74  195 1    
   147   75   76 1    
   148   75   77 1    
   149   75  196 1    
   150   76  197 1    
   151   76  198 1    
   152   76  199 1    
   153   77   78 2    
   154   77   79 am   BACKBONE|DICT|INTERRES
   155   79   80 1    
   156   79  200 1    
   157   80   81 1    
   158   80   82 1    
   159   80  201 1    
   160   81  202 1    
   161   81  203 1    
   162   81  204 1    
   163   82   83 2    
   164   82   84 am   BACKBONE|DICT|INTERRES
   165   84   85 1    
   166   84  205 1    
   167   85   86 1    
   168   85   87 1    
   169   85  206 1    
   170   86  207 1    
   171   86  208 1    
   172   86  209 1    
   173   87   88 2    
   174   87   89 am   BACKBONE|DICT|INTERRES
   175   89   90 1    
   176   89  210 1    
   177   90   91 1    
   178   90   92 1    
   179   90  211 1    
   180   91  212 1    
   181   91  213 1    
   182   91  214 1    
   183   92   93 2    
   184   92   94 am   BACKBONE|DICT|INTERRES
   185   94   95 1    
   186   94  215 1    
   187   95   96 1    
   188   95   97 1    
   189   95  216 1    
   190   96  217 1    
   191   96  218 1    
   192   96  219 1    
   193   97   98 2    
   194   97   99 am   BACKBONE|DICT|INTERRES
   195   99  100 1    
   196   99  220 1    
   197  100  101 1    
   198  100  102 1    
   199  100  221 1    
   200  101  222 1    
   201  101  223 1    
   202  101  224 1    
   203  102  103 2    
   204  102  104 am   BACKBONE|DICT|INTERRES
   205  104  105 1    
   206  104  225 1    
   207  105  106 1    
   208  105  107 1    
   209  105  226 1    
   210  106  227 1    
   211  106  228 1    
   212  106  229 1    
   213  107  108 2    
   214  107  109 am   BACKBONE|DICT|INTERRES
   215  109  110 1    
   216  109  230 1    
   217  110  111 1    
   218  110  112 1    
   219  110  231 1    
   220  111  232 1    
   221  111  233 1    
   222  111  234 1    
   223  112  113 2    
   224  112  114 am   BACKBONE|DICT|INTERRES
   225  114  115 1    
   226  114  235 1    
   227  115  116 1    
   228  115  117 1    
   229  115  236 1    
   230  116  237 1    
   231  116  238 1    
   232  116  239 1    
   233  117  118 2    
   234  117  119 am   BACKBONE|DICT|INTERRES
   235  119  120 1    
   236  119  240 1    
   237  120  121 1    
   238  120  124 1    
   239  120  241 1    
   240  121  122 am   BACKBONE|DICT|INTERRES
   241  121  123 2    
   242  122  242 1    
   243  122  243 1    
   244  124  125 1    
   245  124  244 1    
   246  124  245 1    
   247  125  126 1    
   248  126  246 1    
   249  126  247 1    
@<TRIPOS>SUBSTRUCTURE
     1 UNK         1 GROUP             0       ****    0 ROOT    
