@<TRIPOS>MOLECULE
3R540
247   249    1
SMALL
USER_CHARGES


@<TRIPOS>ATOM
      1 CA          0.4404  -10.9197  -53.8767 C.3       0 UNK        -0.1800 
      2 C          -0.3036  -11.8864  -52.9661 C.2       0 UNK         0.5000 
      3 O          -1.5112  -12.0709  -53.1241 O.2       0 UNK        -0.5000 
      4 N           0.4105  -12.5042  -52.0203 N.am      1 UNK        -0.5000 
      5 CA         -0.1127  -13.4857  -51.0743 C.3       1 UNK         0.1400 
      6 C6         -0.7621  -12.8193  -49.8272 C.3       23 UNK        -0.0398 
      7 S7         -2.2593  -13.7014  -49.2783 S.3       23 UNK        -0.2404 
      8 C8         -1.6595  -14.6577  -47.8481 C.3       23 UNK        -0.0205 
      9 C9         -2.5236  -15.8894  -47.6162 C.ar      23 UNK        -0.0193 
     10 C10        -2.6569  -16.8460  -48.6265 C.ar      23 UNK        -0.1150 
     11 C11        -3.5060  -17.9415  -48.4642 C.ar      23 UNK        -0.0193 
     12 C12        -4.1989  -18.0989  -47.2628 C.ar      23 UNK        -0.1150 
     13 C13        -4.0370  -17.1790  -46.2206 C.ar      23 UNK        -0.0193 
     14 C14        -3.2033  -16.0713  -46.4077 C.ar      23 UNK        -0.1150 
     15 C15        -4.7905  -17.3547  -44.9081 C.3       23 UNK        -0.0205 
     16 S16        -3.8845  -18.3965  -43.7146 S.3       23 UNK        -0.2404 
     17 C17        -4.0725  -20.0513  -44.4599 C.3       23 UNK        -0.0398 
     18 CA         -2.7075  -20.5918  -44.9748 C.3       11 UNK         0.1400 
     19 N          -1.8785  -21.0928  -43.8734 N.am      11 UNK        -0.5000 
     20 C          -2.0714  -22.2342  -43.1924 C.2       10 UNK         0.5000 
     21 O          -2.9685  -23.0409  -43.4413 O.2       10 UNK        -0.5000 
     22 CA         -1.1159  -22.5112  -42.0241 C.3       10 UNK         0.1400 
     23 CB          0.1720  -23.1823  -42.5196 C.3       10 UNK        -0.1800 
     24 N          -0.7642  -21.2781  -41.3309 N.am      10 UNK        -0.5000 
     25 C          -1.4328  -20.7519  -40.2981 C.2       9 UNK         0.5000 
     26 O          -2.4344  -21.2678  -39.7991 O.2       9 UNK        -0.5000 
     27 CA         -0.8788  -19.4250  -39.7350 C.3       9 UNK         0.1400 
     28 CB         -1.1961  -19.2234  -38.2390 C.3       9 UNK        -0.1800 
     29 N           0.5539  -19.2466  -40.0011 N.am      9 UNK        -0.5000 
     30 C           1.5741  -20.0046  -39.5663 C.2       8 UNK         0.5000 
     31 O           1.4468  -20.9392  -38.7746 O.2       8 UNK        -0.5000 
     32 CA          2.9730  -19.7002  -40.1425 C.3       8 UNK         0.1400 
     33 CB          3.3885  -20.8060  -41.1266 C.3       8 UNK        -0.1800 
     34 N           3.0537  -18.4089  -40.8279 N.am      8 UNK        -0.5000 
     35 C           3.0456  -17.2176  -40.2147 C.2       7 UNK         0.5000 
     36 O           3.0599  -17.0773  -38.9914 O.2       7 UNK        -0.5000 
     37 CA          2.9640  -15.9763  -41.1210 C.3       7 UNK         0.1400 
     38 CB          4.3700  -15.5370  -41.5562 C.3       7 UNK        -0.1800 
     39 N           2.1219  -16.1798  -42.3044 N.am      7 UNK        -0.5000 
     40 C           0.8011  -16.4156  -42.2781 C.2       6 UNK         0.5000 
     41 O           0.1421  -16.4874  -41.2417 O.2       6 UNK        -0.5000 
     42 CA          0.1061  -16.6568  -43.6299 C.3       6 UNK         0.1400 
     43 CB         -0.1002  -15.3367  -44.3848 C.3       6 UNK        -0.1800 
     44 N           0.8540  -17.5846  -44.4735 N.am      6 UNK        -0.5000 
     45 C           1.0298  -18.8862  -44.2122 C.2       5 UNK         0.5000 
     46 O           0.5156  -19.4786  -43.2611 O.2       5 UNK        -0.5000 
     47 CA          1.9586  -19.6504  -45.1688 C.3       5 UNK         0.1400 
     48 CB          1.1824  -20.1295  -46.4031 C.3       5 UNK        -0.1800 
     49 N           3.0998  -18.8396  -45.5931 N.am      5 UNK        -0.5000 
     50 C           4.1046  -18.4650  -44.7888 C.2       4 UNK         0.5000 
     51 O           4.1871  -18.7835  -43.6028 O.2       4 UNK        -0.5000 
     52 CA          5.1735  -17.5443  -45.4060 C.3       4 UNK         0.1400 
     53 CB          6.2015  -18.3625  -46.2014 C.3       4 UNK        -0.1800 
     54 N           4.5971  -16.5129  -46.2709 N.am      4 UNK        -0.5000 
     55 C           3.8156  -15.5161  -45.8333 C.2       3 UNK         0.5000 
     56 O           3.5227  -15.3481  -44.6513 O.2       3 UNK        -0.5000 
     57 CA          3.2207  -14.5739  -46.8941 C.3       3 UNK         0.1400 
     58 CB          4.1917  -13.4257  -47.2045 C.3       3 UNK        -0.1800 
     59 N           2.8401  -15.2355  -48.1440 N.am      3 UNK        -0.5000 
     60 C           1.9763  -16.2519  -48.2570 C.2       2 UNK         0.5000 
     61 O           1.4581  -16.8141  -47.2912 O.2       2 UNK        -0.5000 
     62 CA          1.5862  -16.6525  -49.6946 C.3       2 UNK         0.1400 
     63 CB          0.9084  -18.0338  -49.7542 C.3       2 UNK        -0.1800 
     64 N           0.6806  -15.6572  -50.2706 N.am      2 UNK        -0.5000 
     65 C           1.0327  -14.4354  -50.6892 C.2       1 UNK         0.5000 
     66 O           2.2018  -14.0409  -50.7454 O.2       1 UNK        -0.5000 
     67 C          -2.8035  -21.6457  -46.1038 C.2       11 UNK         0.5000 
     68 O          -1.7661  -22.0475  -46.6338 O.2       11 UNK        -0.5000 
     69 N          -4.0132  -22.1216  -46.4281 N.am      12 UNK        -0.5000 
     70 CA         -4.2804  -23.1101  -47.4757 C.3       12 UNK         0.1400 
     71 CB         -5.8013  -23.2616  -47.6307 C.3       12 UNK        -0.1800 
     72 C          -3.6150  -24.4870  -47.2621 C.2       12 UNK         0.5000 
     73 O          -3.5071  -25.2499  -48.2218 O.2       12 UNK        -0.5000 
     74 N          -3.1739  -24.7862  -46.0309 N.am      13 UNK        -0.5000 
     75 CA         -2.4305  -26.0037  -45.7054 C.3       13 UNK         0.1400 
     76 CB         -2.5260  -26.2699  -44.1951 C.3       13 UNK        -0.1800 
     77 C          -0.9545  -25.9546  -46.1515 C.2       13 UNK         0.5000 
     78 O          -0.3462  -27.0174  -46.2858 O.2       13 UNK        -0.5000 
     79 N          -0.4007  -24.7500  -46.3583 N.am      14 UNK        -0.5000 
     80 CA          0.9949  -24.5402  -46.7555 C.3       14 UNK         0.1400 
     81 CB          1.7184  -23.7337  -45.6677 C.3       14 UNK        -0.1800 
     82 C           1.1258  -23.8468  -48.1211 C.2       14 UNK         0.5000 
     83 O           2.0918  -24.1203  -48.8353 O.2       14 UNK        -0.5000 
     84 N           0.1762  -22.9679  -48.4707 N.am      15 UNK        -0.5000 
     85 CA          0.1225  -22.2792  -49.7599 C.3       15 UNK         0.1400 
     86 CB         -0.9661  -21.1975  -49.7057 C.3       15 UNK        -0.1800 
     87 C          -0.1529  -23.2549  -50.9193 C.2       15 UNK         0.5000 
     88 O          -0.9594  -24.1758  -50.7685 O.2       15 UNK        -0.5000 
     89 N           0.5042  -23.0226  -52.0619 N.am      16 UNK        -0.5000 
     90 CA          0.3030  -23.7836  -53.2937 C.3       16 UNK         0.1400 
     91 CB          1.4446  -23.4734  -54.2742 C.3       16 UNK        -0.1800 
     92 C          -1.0609  -23.4459  -53.9188 C.2       16 UNK         0.5000 
     93 O          -1.3649  -22.2639  -54.0947 O.2       16 UNK        -0.5000 
     94 N          -1.8530  -24.4834  -54.2224 N.am      17 UNK        -0.5000 
     95 CA         -3.2056  -24.4797  -54.8035 C.3       17 UNK         0.1400 
     96 CB         -3.2093  -23.8447  -56.2074 C.3       17 UNK        -0.1800 
     97 C          -4.3050  -23.8592  -53.9138 C.2       17 UNK         0.5000 
     98 O          -5.3933  -24.4296  -53.8245 O.2       17 UNK        -0.5000 
     99 N          -3.9989  -22.7236  -53.2741 N.am      18 UNK        -0.5000 
    100 CA        -4.8680  -21.8866  -52.4447 C.3       18 UNK         0.1400 
    101 CB        -5.2829  -22.6384  -51.1623 C.3       18 UNK        -0.1800 
    102 C         -6.0612  -21.3021  -53.2349 C.2       18 UNK         0.5000 
    103 O         -5.9996  -21.2141  -54.4645 O.2       18 UNK        -0.5000 
    104 N         -7.1057  -20.8641  -52.5160 N.am      19 UNK        -0.5000 
    105 CA        -8.3153  -20.2073  -53.0225 C.3       19 UNK         0.1400 
    106 CB        -9.2014  -21.2191  -53.7833 C.3       19 UNK        -0.1800 
    107 C         -7.9673  -18.9412  -53.8325 C.2       19 UNK         0.5000 
    108 O         -7.5514  -17.9443  -53.2422 O.2       19 UNK        -0.5000 
    109 N         -8.0889  -19.0109  -55.1644 N.am      20 UNK        -0.5000 
    110 CA        -7.7106  -17.9511  -56.1013 C.3       20 UNK         0.1400 
    111 CB        -8.1826  -18.3427  -57.5100 C.3       20 UNK        -0.1800 
    112 C         -6.2009  -17.6293  -56.1079 C.2       20 UNK         0.5000 
    113 O         -5.8283  -16.5178  -56.4849 O.2       20 UNK        -0.5000 
    114 N         -5.3608  -18.5863  -55.6856 N.am      21 UNK        -0.5000 
    115 CA        -3.9103  -18.4217  -55.5744 C.3       21 UNK         0.1400 
    116 CB        -3.2366  -19.7998  -55.6472 C.3       21 UNK        -0.1800 
    117 C         -3.4713  -17.6665  -54.3032 C.2       21 UNK         0.5000 
    118 O         -2.2969  -17.3042  -54.2078 O.2       21 UNK        -0.5000 
    119 N         -4.3891  -17.4288  -53.3534 N.am      22 UNK        -0.5000 
    120 CA        -4.1502  -16.6485  -52.1270 C.3       22 UNK         0.1400 
    121 C         -4.0045  -15.1210  -52.4030 C.2       22 UNK         0.5000 
    122 N         -2.9805  -14.7143  -53.1400 N.am      22 UNK        -0.7600 
    123 O         -4.8052  -14.3050  -51.9544 O.2       22 UNK        -0.5000 
    124 C124       -5.1888  -16.9539  -51.0145 C.3       23 UNK        -0.0398 
    125 S125       -5.2532  -18.7068  -50.5002 S.3       23 UNK        -0.2404 
    126 C126       -3.6876  -18.9405  -49.5965 C.3       23 UNK        -0.0205 
    127 H127        1.4985  -10.8552  -53.6215 H         1 UNK         0.0600 
    128 H128        0.0097   -9.9217  -53.7957 H         1 UNK         0.0600 
    129 H129        0.3596  -11.2442  -54.9141 H         1 UNK         0.0600 
    130 H130        1.4116  -12.3655  -51.9529 H         1 UNK         0.3000 
    131 H131       -0.8538  -14.0865  -51.6031 H         1 UNK         0.0600 
    132 H132       -1.0863  -11.8062  -50.0694 H         1 UNK         0.0800 
    133 H133       -0.0589  -12.7034  -48.9999 H         1 UNK         0.0800 
    134 H134       -0.6291  -14.9732  -47.9965 H         1 UNK         0.0800 
    135 H135       -1.6591  -14.0085  -46.9714 H         1 UNK         0.0800 
    136 H136       -2.1306  -16.7130  -49.5592 H         1 UNK         0.1150 
    137 H137       -4.8749  -18.9336  -47.1562 H         1 UNK         0.1150 
    138 H138       -3.0963  -15.3436  -45.6157 H         1 UNK         0.1150 
    139 H139       -4.9646  -16.3792  -44.4517 H         1 UNK         0.0800 
    140 H140       -5.7796  -17.7764  -45.0931 H         1 UNK         0.0800 
    141 H141       -4.8211  -19.9837  -45.2458 H         1 UNK         0.0800 
    142 H142       -4.5029  -20.7199  -43.7128 H         1 UNK         0.0800 
    143 H143       -2.1581  -19.7612  -45.4221 H         1 UNK         0.0600 
    144 H144       -1.1040  -20.4973  -43.5995 H         1 UNK         0.3000 
    145 H145       -1.6145  -23.1961  -41.3349 H         1 UNK         0.0600 
    146 H146        0.8015  -23.4857  -41.6828 H         1 UNK         0.0600 
    147 H147       -0.0482  -24.0767  -43.1033 H         1 UNK         0.0600 
    148 H148        0.7572  -22.5084  -43.1453 H         1 UNK         0.0600 
    149 H149       -0.0020  -20.7376  -41.7240 H         1 UNK         0.3000 
    150 H150       -1.3869  -18.6334  -40.2875 H         1 UNK         0.0600 
    151 H151       -2.2729  -19.1956  -38.0686 H         1 UNK         0.0600 
    152 H152       -0.7868  -18.2814  -37.8739 H         1 UNK         0.0600 
    153 H153       -0.7901  -20.0274  -37.6249 H         1 UNK         0.0600 
    154 H154        0.7711  -18.4893  -40.6371 H         1 UNK         0.3000 
    155 H155        3.6791  -19.6970  -39.3097 H         1 UNK         0.0600 
    156 H156        2.7262  -20.8429  -41.9924 H         1 UNK         0.0600 
    157 H157        3.3625  -21.7874  -40.6514 H         1 UNK         0.0600 
    158 H158        4.4045  -20.6492  -41.4893 H         1 UNK         0.0600 
    159 H159        3.1178  -18.4368  -41.8399 H         1 UNK         0.3000 
    160 H160        2.5220  -15.1686  -40.5342 H         1 UNK         0.0600 
    161 H161        4.8451  -16.2846  -42.1924 H         1 UNK         0.0600 
    162 H162        5.0171  -15.3796  -40.6924 H         1 UNK         0.0600 
    163 H163        4.3353  -14.5987  -42.1101 H         1 UNK         0.0600 
    164 H164        2.5861  -16.0840  -43.2046 H         1 UNK         0.3000 
    165 H165       -0.8750  -17.0964  -43.4365 H         1 UNK         0.0600 
    166 H166       -0.5466  -15.5159  -45.3608 H         1 UNK         0.0600 
    167 H167       -0.7659  -14.6717  -43.8336 H         1 UNK         0.0600 
    168 H168        0.8387  -14.8066  -44.5433 H         1 UNK         0.0600 
    169 H169        1.2633  -17.2065  -45.3220 H         1 UNK         0.3000 
    170 H170        2.3377  -20.5270  -44.6392 H         1 UNK         0.0600 
    171 H171        0.3483  -20.7607  -46.1053 H         1 UNK         0.0600 
    172 H172        0.7646  -19.3008  -46.9732 H         1 UNK         0.0600 
    173 H173        1.8142  -20.7152  -47.0707 H         1 UNK         0.0600 
    174 H174        3.0663  -18.4703  -46.5321 H         1 UNK         0.3000 
    175 H175        5.6958  -17.0463  -44.5862 H         1 UNK         0.0600 
    176 H176        5.7456  -18.8649  -47.0555 H         1 UNK         0.0600 
    177 H177        7.0059  -17.7285  -46.5747 H         1 UNK         0.0600 
    178 H178        6.6581  -19.1296  -45.5745 H         1 UNK         0.0600 
    179 H179        4.7846  -16.5808  -47.2603 H         1 UNK         0.3000 
    180 H180        2.3120  -14.1423  -46.4699 H         1 UNK         0.0600 
    181 H181        5.1075  -13.7887  -47.6725 H         1 UNK         0.0600 
    182 H182        4.4747  -12.8957  -46.2940 H         1 UNK         0.0600 
    183 H183        3.7378  -12.6965  -47.8760 H         1 UNK         0.0600 
    184 H184        3.1496  -14.7909  -49.0007 H         1 UNK         0.3000 
    185 H185        2.4975  -16.6975  -50.2946 H         1 UNK         0.0600 
    186 H186       -0.0104  -18.0617  -49.1677 H         1 UNK         0.0600 
    187 H187        0.6589  -18.3082  -50.7793 H         1 UNK         0.0600 
    188 H188        1.5687  -18.8088  -49.3635 H         1 UNK         0.0600 
    189 H189       -0.2994  -15.8921  -50.2487 H         1 UNK         0.3000 
    190 H190       -4.8184  -21.8046  -45.9097 H         1 UNK         0.3000 
    191 H191       -3.8802  -22.7080  -48.4077 H         1 UNK         0.0600 
    192 H192       -6.2704  -22.3097  -47.8805 H         1 UNK         0.0600 
    193 H193       -6.0463  -23.9617  -48.4307 H         1 UNK         0.0600 
    194 H194       -6.2623  -23.6353  -46.7156 H         1 UNK         0.0600 
    195 H195       -3.2937  -24.1127  -45.2823 H         1 UNK         0.3000 
    196 H196       -2.9010  -26.8439  -46.2206 H         1 UNK         0.0600 
    197 H197       -2.0725  -27.2285  -43.9404 H         1 UNK         0.0600 
    198 H198       -3.5636  -26.3028  -43.8626 H         1 UNK         0.0600 
    199 H199       -2.0111  -25.5041  -43.6158 H         1 UNK         0.0600 
    200 H200       -0.9791  -23.9229  -46.2680 H         1 UNK         0.3000 
    201 H201        1.5148  -25.4956  -46.8501 H         1 UNK         0.0600 
    202 H202        1.8077  -24.3131  -44.7492 H         1 UNK         0.0600 
    203 H203        1.1865  -22.8134  -45.4350 H         1 UNK         0.0600 
    204 H204        2.7287  -23.4636  -45.9781 H         1 UNK         0.0600 
    205 H205       -0.5776  -22.7567  -47.8231 H         1 UNK         0.3000 
    206 H206        1.0865  -21.7924  -49.9222 H         1 UNK         0.0600 
    207 H207       -0.9931  -20.6234  -50.6326 H         1 UNK         0.0600 
    208 H208       -1.9534  -21.6370  -49.5614 H         1 UNK         0.0600 
    209 H209       -0.7895  -20.4961  -48.8901 H         1 UNK         0.0600 
    210 H210        1.1207  -22.2259  -52.1249 H         1 UNK         0.3000 
    211 H211        0.3383  -24.8485  -53.0534 H         1 UNK         0.0600 
    212 H212        1.4722  -22.4159  -54.5403 H         1 UNK         0.0600 
    213 H213        1.3288  -24.0410  -55.1984 H         1 UNK         0.0600 
    214 H214        2.4129  -23.7386  -53.8494 H         1 UNK         0.0600 
    215 H215       -1.5084  -25.4051  -53.9917 H         1 UNK         0.3000 
    216 H216       -3.4697  -25.5314  -54.9264 H         1 UNK         0.0600 
    217 H217       -4.1952  -23.9245  -56.6670 H         1 UNK         0.0600 
    218 H218       -2.5005  -24.3438  -56.8681 H         1 UNK         0.0600 
    219 H219       -2.9520  -22.7861  -56.1777 H         1 UNK         0.0600 
    220 H220       -3.0747  -22.3447  -53.4678 H         1 UNK         0.3000 
    221 H221       -4.2523  -21.0367  -52.1487 H         1 UNK         0.0600 
    222 H222       -4.4247  -23.1310  -50.7050 H         1 UNK         0.0600 
    223 H223       -5.6949  -21.9566  -50.4183 H         1 UNK         0.0600 
    224 H224       -6.0333  -23.4035  -51.3647 H         1 UNK         0.0600 
    225 H225       -7.0413  -20.9232  -51.5099 H         1 UNK         0.3000 
    226 H226       -8.8761  -19.8673  -52.1507 H         1 UNK         0.0600 
    227 H227       -9.5048  -22.0352  -53.1275 H         1 UNK         0.0600 
    228 H228      -10.1140  -20.7458  -54.1480 H         1 UNK         0.0600 
    229 H229       -8.6902  -21.6621  -54.6385 H         1 UNK         0.0600 
    230 H230       -8.3954  -19.8834  -55.5696 H         1 UNK         0.3000 
    231 H231       -8.2358  -17.0408  -55.8049 H         1 UNK         0.0600 
    232 H232       -7.7061  -19.2625  -57.8517 H         1 UNK         0.0600 
    233 H233       -7.9452  -17.5615  -58.2334 H         1 UNK         0.0600 
    234 H234       -9.2621  -18.4919  -57.5379 H         1 UNK         0.0600 
    235 H235       -5.7387  -19.4794  -55.3810 H         1 UNK         0.3000 
    236 H236       -3.5618  -17.8397  -56.4302 H         1 UNK         0.0600 
    237 H237       -3.5527  -20.3510  -56.5328 H         1 UNK         0.0600 
    238 H238       -2.1512  -19.7034  -55.6941 H         1 UNK         0.0600 
    239 H239       -3.4667  -20.4057  -54.7726 H         1 UNK         0.0600 
    240 H240       -5.3447  -17.7256  -53.5061 H         1 UNK         0.3000 
    241 H241       -3.1820  -16.9580  -51.7316 H         1 UNK         0.0600 
    242 H242       -2.8137  -13.7265  -53.2898 H         1 UNK         0.3800 
    243 H243       -2.3794  -15.4061  -53.5729 H         1 UNK         0.3800 
    244 H244       -6.1861  -16.6698  -51.3519 H         1 UNK         0.0800 
    245 H245       -4.9991  -16.3416  -50.1319 H         1 UNK         0.0800 
    246 H246       -2.8546  -18.8845  -50.2982 H         1 UNK         0.0800 
    247 H247       -3.6730  -19.9513  -49.1871 H         1 UNK         0.0800 
@<TRIPOS>BOND
     1    1    2 1    
     2    1  127 1    
     3    1  128 1    
     4    1  129 1    
     5    2    3 2    
     6    2    4 am   BACKBONE|DICT|INTERRES
     7    4    5 1    
     8    4  130 1    
     9    5    6 1    
    10    5   65 1    
    11    5  131 1    
    12    6    7 1    
    13    6  132 1    
    14    6  133 1    
    15    7    8 1    
    16    8    9 1    
    17    8  134 1    
    18    8  135 1    
    19    9   10 ar   
    20    9   14 ar   
    21   10   11 ar   
    22   10  136 1    
    23   11   12 ar   
    24   11  126 1    
    25   12   13 ar   
    26   12  137 1    
    27   13   14 ar   
    28   13   15 1    
    29   14  138 1    
    30   15   16 1    
    31   15  139 1    
    32   15  140 1    
    33   16   17 1    
    34   17   18 1    
    35   17  141 1    
    36   17  142 1    
    37   18   19 1    
    38   18   67 1    
    39   18  143 1    
    40   19   20 am   BACKBONE|DICT|INTERRES
    41   19  144 1    
    42   20   21 2    
    43   20   22 1    
    44   22   23 1    
    45   22   24 1    
    46   22  145 1    
    47   23  146 1    
    48   23  147 1    
    49   23  148 1    
    50   24   25 am   BACKBONE|DICT|INTERRES
    51   24  149 1    
    52   25   26 2    
    53   25   27 1    
    54   27   28 1    
    55   27   29 1    
    56   27  150 1    
    57   28  151 1    
    58   28  152 1    
    59   28  153 1    
    60   29   30 am   BACKBONE|DICT|INTERRES
    61   29  154 1    
    62   30   31 2    
    63   30   32 1    
    64   32   33 1    
    65   32   34 1    
    66   32  155 1    
    67   33  156 1    
    68   33  157 1    
    69   33  158 1    
    70   34   35 am   BACKBONE|DICT|INTERRES
    71   34  159 1    
    72   35   36 2    
    73   35   37 1    
    74   37   38 1    
    75   37   39 1    
    76   37  160 1    
    77   38  161 1    
    78   38  162 1    
    79   38  163 1    
    80   39   40 am   BACKBONE|DICT|INTERRES
    81   39  164 1    
    82   40   41 2    
    83   40   42 1    
    84   42   43 1    
    85   42   44 1    
    86   42  165 1    
    87   43  166 1    
    88   43  167 1    
    89   43  168 1    
    90   44   45 am   BACKBONE|DICT|INTERRES
    91   44  169 1    
    92   45   46 2    
    93   45   47 1    
    94   47   48 1    
    95   47   49 1    
    96   47  170 1    
    97   48  171 1    
    98   48  172 1    
    99   48  173 1    
   100   49   50 am   BACKBONE|DICT|INTERRES
   101   49  174 1    
   102   50   51 2    
   103   50   52 1    
   104   52   53 1    
   105   52   54 1    
   106   52  175 1    
   107   53  176 1    
   108   53  177 1    
   109   53  178 1    
   110   54   55 am   BACKBONE|DICT|INTERRES
   111   54  179 1    
   112   55   56 2    
   113   55   57 1    
   114   57   58 1    
   115   57   59 1    
   116   57  180 1    
   117   58  181 1    
   118   58  182 1    
   119   58  183 1    
   120   59   60 am   BACKBONE|DICT|INTERRES
   121   59  184 1    
   122   60   61 2    
   123   60   62 1    
   124   62   63 1    
   125   62   64 1    
   126   62  185 1    
   127   63  186 1    
   128   63  187 1    
   129   63  188 1    
   130   64   65 am   BACKBONE|DICT|INTERRES
   131   64  189 1    
   132   65   66 2    
   133   67   68 2    
   134   67   69 am   BACKBONE|DICT|INTERRES
   135   69   70 1    
   136   69  190 1    
   137   70   71 1    
   138   70   72 1    
   139   70  191 1    
   140   71  192 1    
   141   71  193 1    
   142   71  194 1    
   143   72   73 2    
   144   72   74 am   BACKBONE|DICT|INTERRES
   145   74   75 1    
   146   74  195 1    
   147   75   76 1    
   148   75   77 1    
   149   75  196 1    
   150   76  197 1    
   151   76  198 1    
   152   76  199 1    
   153   77   78 2    
   154   77   79 am   BACKBONE|DICT|INTERRES
   155   79   80 1    
   156   79  200 1    
   157   80   81 1    
   158   80   82 1    
   159   80  201 1    
   160   81  202 1    
   161   81  203 1    
   162   81  204 1    
   163   82   83 2    
   164   82   84 am   BACKBONE|DICT|INTERRES
   165   84   85 1    
   166   84  205 1    
   167   85   86 1    
   168   85   87 1    
   169   85  206 1    
   170   86  207 1    
   171   86  208 1    
   172   86  209 1    
   173   87   88 2    
   174   87   89 am   BACKBONE|DICT|INTERRES
   175   89   90 1    
   176   89  210 1    
   177   90   91 1    
   178   90   92 1    
   179   90  211 1    
   180   91  212 1    
   181   91  213 1    
   182   91  214 1    
   183   92   93 2    
   184   92   94 am   BACKBONE|DICT|INTERRES
   185   94   95 1    
   186   94  215 1    
   187   95   96 1    
   188   95   97 1    
   189   95  216 1    
   190   96  217 1    
   191   96  218 1    
   192   96  219 1    
   193   97   98 2    
   194   97   99 am   BACKBONE|DICT|INTERRES
   195   99  100 1    
   196   99  220 1    
   197  100  101 1    
   198  100  102 1    
   199  100  221 1    
   200  101  222 1    
   201  101  223 1    
   202  101  224 1    
   203  102  103 2    
   204  102  104 am   BACKBONE|DICT|INTERRES
   205  104  105 1    
   206  104  225 1    
   207  105  106 1    
   208  105  107 1    
   209  105  226 1    
   210  106  227 1    
   211  106  228 1    
   212  106  229 1    
   213  107  108 2    
   214  107  109 am   BACKBONE|DICT|INTERRES
   215  109  110 1    
   216  109  230 1    
   217  110  111 1    
   218  110  112 1    
   219  110  231 1    
   220  111  232 1    
   221  111  233 1    
   222  111  234 1    
   223  112  113 2    
   224  112  114 am   BACKBONE|DICT|INTERRES
   225  114  115 1    
   226  114  235 1    
   227  115  116 1    
   228  115  117 1    
   229  115  236 1    
   230  116  237 1    
   231  116  238 1    
   232  116  239 1    
   233  117  118 2    
   234  117  119 am   BACKBONE|DICT|INTERRES
   235  119  120 1    
   236  119  240 1    
   237  120  121 1    
   238  120  124 1    
   239  120  241 1    
   240  121  122 am   BACKBONE|DICT|INTERRES
   241  121  123 2    
   242  122  242 1    
   243  122  243 1    
   244  124  125 1    
   245  124  244 1    
   246  124  245 1    
   247  125  126 1    
   248  126  246 1    
   249  126  247 1    
@<TRIPOS>SUBSTRUCTURE
     1 UNK         1 GROUP             0       ****    0 ROOT    
