@<TRIPOS>MOLECULE
3R540
247   249    1
SMALL
USER_CHARGES


@<TRIPOS>ATOM
      1 CA          1.2756  -16.2547  -52.6693 C.3       0 UNK        -0.1800 
      2 C           1.3238  -15.7419  -51.2378 C.2       0 UNK         0.5000 
      3 O           2.4092  -15.5850  -50.6772 O.2       0 UNK        -0.5000 
      4 N           0.1535  -15.4850  -50.6437 N.am      1 UNK        -0.5000 
      5 CA         -0.0018  -14.9857  -49.2773 C.3       1 UNK         0.1400 
      6 C6         -1.4023  -15.3095  -48.7034 C.3       23 UNK        -0.0398 
      7 S7         -1.5499  -17.0132  -48.0710 S.3       23 UNK        -0.2404 
      8 C8         -1.7802  -18.0147  -49.5816 C.3       23 UNK        -0.0205 
      9 C9         -0.5314  -18.7087  -50.1287 C.ar      23 UNK        -0.0193 
     10 C10        -0.6136  -19.2925  -51.3954 C.ar      23 UNK        -0.1150 
     11 C11         0.4793  -19.9576  -51.9550 C.ar      23 UNK        -0.0193 
     12 C12         1.6806  -20.0188  -51.2481 C.ar      23 UNK        -0.1150 
     13 C13         1.7900  -19.4281  -49.9871 C.ar      23 UNK        -0.0193 
     14 C14         0.6788  -18.7905  -49.4245 C.ar      23 UNK        -0.1150 
     15 C15         3.1258  -19.4479  -49.2603 C.3       23 UNK        -0.0205 
     16 S16         3.4276  -21.0286  -48.4106 S.3       23 UNK        -0.2404 
     17 C17         2.4172  -20.8223  -46.9086 C.3       23 UNK        -0.0398 
     18 CA          1.5494  -22.0580  -46.5769 C.3       11 UNK         0.1400 
     19 N           1.1453  -22.0593  -45.1688 N.am      11 UNK        -0.5000 
     20 C           0.5507  -23.0801  -44.5370 C.2       10 UNK         0.5000 
     21 O           0.3334  -24.1733  -45.0588 O.2       10 UNK        -0.5000 
     22 CA          0.0715  -22.8161  -43.0969 C.3       10 UNK         0.1400 
     23 CB          1.2241  -22.9765  -42.0949 C.3       10 UNK        -0.1800 
     24 N          -0.5331  -21.4908  -42.9478 N.am      10 UNK        -0.5000 
     25 C          -1.6645  -21.1076  -43.5569 C.2       9 UNK         0.5000 
     26 O          -2.3592  -21.8666  -44.2332 O.2       9 UNK        -0.5000 
     27 CA         -2.0566  -19.6211  -43.4369 C.3       9 UNK         0.1400 
     28 CB         -2.8048  -19.3529  -42.1233 C.3       9 UNK        -0.1800 
     29 N          -0.9074  -18.7185  -43.5426 N.am      9 UNK        -0.5000 
     30 C          -0.1328  -18.6027  -44.6304 C.2       8 UNK         0.5000 
     31 O          -0.3325  -19.2182  -45.6732 O.2       8 UNK        -0.5000 
     32 CA          1.1171  -17.7148  -44.5167 C.3       8 UNK         0.1400 
     33 CB          0.7822  -16.2365  -44.7573 C.3       8 UNK        -0.1800 
     34 N           1.7770  -17.8786  -43.2226 N.am      8 UNK        -0.5000 
     35 C           2.4435  -18.9826  -42.8562 C.2       7 UNK         0.5000 
     36 O           2.6093  -19.9540  -43.5935 O.2       7 UNK        -0.5000 
     37 CA          2.9748  -19.0245  -41.4115 C.3       7 UNK         0.1400 
     38 CB          4.3308  -18.3104  -41.3123 C.3       7 UNK        -0.1800 
     39 N           2.0413  -18.4284  -40.4547 N.am      7 UNK        -0.5000 
     40 C           0.8401  -18.9403  -40.1503 C.2       6 UNK         0.5000 
     41 O           0.4182  -20.0040  -40.6028 O.2       6 UNK        -0.5000 
     42 CA         -0.0606  -18.0938  -39.2288 C.3       6 UNK         0.1400 
     43 CB          0.2138  -18.4253  -37.7547 C.3       6 UNK        -0.1800 
     44 N           0.0822  -16.6482  -39.4377 N.am      6 UNK        -0.5000 
     45 C          -0.1728  -16.0171  -40.5919 C.2       5 UNK         0.5000 
     46 O          -0.5440  -16.5982  -41.6136 O.2       5 UNK        -0.5000 
     47 CA          0.1069  -14.5019  -40.6191 C.3       5 UNK         0.1400 
     48 CB          1.6192  -14.2469  -40.7328 C.3       5 UNK        -0.1800 
     49 N          -0.5531  -13.8168  -41.7311 N.am      5 UNK        -0.5000 
     50 C          -1.8755  -13.6734  -41.8952 C.2       4 UNK         0.5000 
     51 O          -2.7071  -14.0824  -41.0829 O.2       4 UNK        -0.5000 
     52 CA         -2.3452  -12.9182  -43.1592 C.3       4 UNK         0.1400 
     53 CB         -3.5341  -11.9886  -42.8558 C.3       4 UNK        -0.1800 
     54 N          -1.2696  -12.1168  -43.7546 N.am      4 UNK        -0.5000 
     55 C          -0.5520  -12.4614  -44.8293 C.2       3 UNK         0.5000 
     56 O          -0.7289  -13.4976  -45.4741 O.2       3 UNK        -0.5000 
     57 CA          0.5739  -11.4948  -45.2277 C.3       3 UNK         0.1400 
     58 CB          1.7210  -11.5224  -44.2010 C.3       3 UNK        -0.1800 
     59 N           1.0894  -11.8893  -46.5325 N.am      3 UNK        -0.5000 
     60 C           1.5506  -11.0726  -47.4855 C.2       2 UNK         0.5000 
     61 O           1.6418   -9.8516  -47.3505 O.2       2 UNK        -0.5000 
     62 CA          1.9932  -11.7233  -48.8141 C.3       2 UNK         0.1400 
     63 CB          3.5246  -11.6994  -48.9406 C.3       2 UNK        -0.1800 
     64 N           1.5338  -13.1070  -48.9660 N.am      2 UNK        -0.5000 
     65 C           0.2791  -13.4711  -49.2584 C.2       1 UNK         0.5000 
     66 O          -0.6249  -12.6715  -49.5085 O.2       1 UNK        -0.5000 
     67 C           0.3369  -22.2062  -47.5238 C.2       11 UNK         0.5000 
     68 O           0.3928  -23.0104  -48.4528 O.2       11 UNK        -0.5000 
     69 N          -0.7592  -21.4903  -47.2302 N.am      12 UNK        -0.5000 
     70 CA         -2.0402  -21.5813  -47.9323 C.3       12 UNK         0.1400 
     71 CB         -3.0371  -20.5684  -47.3464 C.3       12 UNK        -0.1800 
     72 C          -2.6419  -22.9928  -47.8695 C.2       12 UNK         0.5000 
     73 O          -3.0862  -23.5065  -48.8958 O.2       12 UNK        -0.5000 
     74 N          -2.6223  -23.5976  -46.6727 N.am      13 UNK        -0.5000 
     75 CA         -3.0698  -24.9661  -46.4192 C.3       13 UNK         0.1400 
     76 CB         -3.0952  -25.2317  -44.9069 C.3       13 UNK        -0.1800 
     77 C          -2.2116  -26.0115  -47.1535 C.2       13 UNK         0.5000 
     78 O          -2.7681  -26.9173  -47.7749 O.2       13 UNK        -0.5000 
     79 N          -0.8817  -25.8383  -47.1218 N.am      14 UNK        -0.5000 
     80 CA          0.0879  -26.6591  -47.8555 C.3       14 UNK         0.1400 
     81 CB          1.5133  -26.2709  -47.4355 C.3       14 UNK        -0.1800 
     82 C          -0.0771  -26.5664  -49.3860 C.2       14 UNK         0.5000 
     83 O           0.1270  -27.5609  -50.0820 O.2       14 UNK        -0.5000 
     84 N          -0.5053  -25.3945  -49.8721 N.am      15 UNK        -0.5000 
     85 CA         -0.8855  -25.1187  -51.2582 C.3       15 UNK         0.1400 
     86 CB         -0.6656  -23.6223  -51.5391 C.3       15 UNK        -0.1800 
     87 C          -2.3247  -25.5709  -51.6074 C.2       15 UNK         0.5000 
     88 O          -2.8563  -25.1416  -52.6320 O.2       15 UNK        -0.5000 
     89 N          -2.9217  -26.4363  -50.7727 N.am      16 UNK        -0.5000 
     90 CA         -4.2396  -27.0635  -50.9117 C.3       16 UNK         0.1400 
     91 CB         -4.3198  -27.9272  -52.1888 C.3       16 UNK        -0.1800 
     92 C          -5.4003  -26.0600  -50.7709 C.2       16 UNK         0.5000 
     93 O          -6.3520  -26.0979  -51.5530 O.2       16 UNK        -0.5000 
     94 N          -5.2948  -25.1943  -49.7526 N.am      17 UNK        -0.5000 
     95 CA         -6.2313  -24.1288  -49.3811 C.3       17 UNK         0.1400 
     96 CB         -7.6014  -24.7041  -48.9641 C.3       17 UNK        -0.1800 
     97 C          -6.3207  -23.0460  -50.4730 C.2       17 UNK         0.5000 
     98 O          -7.4116  -22.7187  -50.9449 O.2       17 UNK        -0.5000 
     99 N          -5.1494  -22.5305  -50.8676 N.am      18 UNK        -0.5000 
    100 CA        -4.9851  -21.4847  -51.8759 C.3       18 UNK         0.1400 
    101 CB        -3.4901  -21.2951  -52.1574 C.3       18 UNK        -0.1800 
    102 C         -5.6402  -20.1585  -51.4445 C.2       18 UNK         0.5000 
    103 O         -5.3374  -19.6466  -50.3634 O.2       18 UNK        -0.5000 
    104 N         -6.5294  -19.6319  -52.2943 N.am      19 UNK        -0.5000 
    105 CA        -7.3283  -18.4302  -52.0567 C.3       19 UNK         0.1400 
    106 CB        -8.5927  -18.5016  -52.9318 C.3       19 UNK        -0.1800 
    107 C         -6.5117  -17.1466  -52.3012 C.2       19 UNK         0.5000 
    108 O         -6.7546  -16.4321  -53.2760 O.2       19 UNK        -0.5000 
    109 N         -5.5333  -16.9008  -51.4202 N.am      20 UNK        -0.5000 
    110 CA        -4.5729  -15.7884  -51.3798 C.3       20 UNK         0.1400 
    111 CB        -5.2758  -14.4206  -51.2969 C.3       20 UNK        -0.1800 
    112 C         -3.5250  -15.8170  -52.5108 C.2       20 UNK         0.5000 
    113 O         -2.3332  -15.6682  -52.2354 O.2       20 UNK        -0.5000 
    114 N         -3.9810  -16.0379  -53.7457 N.am      21 UNK        -0.5000 
    115 CA        -3.1641  -16.3543  -54.9103 C.3       21 UNK         0.1400 
    116 CB        -3.7912  -15.6906  -56.1459 C.3       21 UNK        -0.1800 
    117 C         -3.1074  -17.8805  -55.0896 C.2       21 UNK         0.5000 
    118 O         -4.0246  -18.5880  -54.6640 O.2       21 UNK        -0.5000 
    119 N         -2.0387  -18.3575  -55.7342 N.am      22 UNK        -0.5000 
    120 CA        -1.7723  -19.7899  -55.9592 C.3       22 UNK         0.1400 
    121 C         -2.5234  -20.4098  -57.1743 C.2       22 UNK         0.5000 
    122 N         -3.2561  -19.6411  -57.9706 N.am      22 UNK        -0.7600 
    123 O         -2.4463  -21.6151  -57.3952 O.2       22 UNK        -0.5000 
    124 C124       -0.2514  -20.0968  -56.0267 C.3       23 UNK        -0.0398 
    125 S125        0.6872  -19.3804  -54.6349 S.3       23 UNK        -0.2404 
    126 C126        0.3575  -20.5971  -53.3267 C.3       23 UNK        -0.0205 
    127 H127        0.2570  -16.4884  -52.9811 H         1 UNK         0.0600 
    128 H128        1.8697  -17.1643  -52.7579 H         1 UNK         0.0600 
    129 H129        1.6828  -15.5098  -53.3524 H         1 UNK         0.0600 
    130 H130       -0.7057  -15.5936  -51.1762 H         1 UNK         0.3000 
    131 H131        0.7395  -15.4698  -48.6370 H         1 UNK         0.0600 
    132 H132       -2.1838  -15.1021  -49.4329 H         1 UNK         0.0800 
    133 H133       -1.6220  -14.6653  -47.8496 H         1 UNK         0.0800 
    134 H134       -2.5345  -18.7751  -49.3863 H         1 UNK         0.0800 
    135 H135       -2.2007  -17.3862  -50.3606 H         1 UNK         0.0800 
    136 H136       -1.5341  -19.2210  -51.9560 H         1 UNK         0.1150 
    137 H137        2.5357  -20.5162  -51.6837 H         1 UNK         0.1150 
    138 H138        0.7719  -18.3444  -48.4460 H         1 UNK         0.1150 
    139 H139        3.9270  -19.2826  -49.9822 H         1 UNK         0.0800 
    140 H140        3.1916  -18.6232  -48.5487 H         1 UNK         0.0800 
    141 H141        1.8044  -19.9249  -46.9809 H         1 UNK         0.0800 
    142 H142        3.1197  -20.6356  -46.0960 H         1 UNK         0.0800 
    143 H143        2.1716  -22.9452  -46.7127 H         1 UNK         0.0600 
    144 H144        1.3247  -21.2083  -44.6481 H         1 UNK         0.3000 
    145 H145       -0.6903  -23.5612  -42.8586 H         1 UNK         0.0600 
    146 H146        0.8738  -22.8547  -41.0698 H         1 UNK         0.0600 
    147 H147        1.6717  -23.9682  -42.1710 H         1 UNK         0.0600 
    148 H148        2.0142  -22.2454  -42.2659 H         1 UNK         0.0600 
    149 H149       -0.0534  -20.8313  -42.3430 H         1 UNK         0.3000 
    150 H150       -2.7313  -19.3901  -44.2639 H         1 UNK         0.0600 
    151 H151       -3.7101  -19.9579  -42.0618 H         1 UNK         0.0600 
    152 H152       -3.1039  -18.3074  -42.0450 H         1 UNK         0.0600 
    153 H153       -2.1924  -19.5922  -41.2545 H         1 UNK         0.0600 
    154 H154       -0.7051  -18.1286  -42.7399 H         1 UNK         0.3000 
    155 H155        1.8174  -18.0249  -45.2952 H         1 UNK         0.0600 
    156 H156        0.3596  -16.0948  -45.7527 H         1 UNK         0.0600 
    157 H157        0.0522  -15.8593  -44.0416 H         1 UNK         0.0600 
    158 H158        1.6719  -15.6104  -44.6912 H         1 UNK         0.0600 
    159 H159        1.6178  -17.1545  -42.5384 H         1 UNK         0.3000 
    160 H160        3.1188  -20.0725  -41.1398 H         1 UNK         0.0600 
    161 H161        4.2473  -17.2488  -41.5486 H         1 UNK         0.0600 
    162 H162        5.0520  -18.7456  -42.0056 H         1 UNK         0.0600 
    163 H163        4.7507  -18.3996  -40.3103 H         1 UNK         0.0600 
    164 H164        2.3132  -17.5532  -40.0326 H         1 UNK         0.3000 
    165 H165       -1.0966  -18.3581  -39.4492 H         1 UNK         0.0600 
    166 H166       -0.4796  -17.9013  -37.0965 H         1 UNK         0.0600 
    167 H167        0.0940  -19.4931  -37.5661 H         1 UNK         0.0600 
    168 H168        1.2282  -18.1519  -37.4615 H         1 UNK         0.0600 
    169 H169        0.3958  -16.1093  -38.6432 H         1 UNK         0.3000 
    170 H170       -0.2593  -14.0676  -39.6867 H         1 UNK         0.0600 
    171 H171        2.0293  -14.6609  -41.6552 H         1 UNK         0.0600 
    172 H172        1.8409  -13.1795  -40.7187 H         1 UNK         0.0600 
    173 H173        2.1619  -14.6973  -39.9008 H         1 UNK         0.0600 
    174 H174        0.0470  -13.4701  -42.4625 H         1 UNK         0.3000 
    175 H175       -2.6861  -13.6754  -43.8683 H         1 UNK         0.0600 
    176 H176       -3.8640  -11.4665  -43.7542 H         1 UNK         0.0600 
    177 H177       -3.2772  -11.2385  -42.1069 H         1 UNK         0.0600 
    178 H178       -4.3896  -12.5509  -42.4795 H         1 UNK         0.0600 
    179 H179       -1.0473  -11.2557  -43.2746 H         1 UNK         0.3000 
    180 H180        0.1515  -10.4893  -45.2837 H         1 UNK         0.0600 
    181 H181        2.5258  -10.8476  -44.4933 H         1 UNK         0.0600 
    182 H182        2.1454  -12.5223  -44.0999 H         1 UNK         0.0600 
    183 H183        1.3805  -11.2068  -43.2143 H         1 UNK         0.0600 
    184 H184        0.9728  -12.8713  -46.7431 H         1 UNK         0.3000 
    185 H185        1.5741  -11.1263  -49.6268 H         1 UNK         0.0600 
    186 H186        3.9075  -10.6802  -48.8737 H         1 UNK         0.0600 
    187 H187        4.0024  -12.2821  -48.1521 H         1 UNK         0.0600 
    188 H188        3.8475  -12.1037  -49.9003 H         1 UNK         0.0600 
    189 H189        2.2315  -13.8293  -48.8476 H         1 UNK         0.3000 
    190 H190       -0.6960  -20.7908  -46.4932 H         1 UNK         0.3000 
    191 H191       -1.8560  -21.3272  -48.9778 H         1 UNK         0.0600 
    192 H192       -2.5818  -19.5905  -47.2057 H         1 UNK         0.0600 
    193 H193       -3.8931  -20.4431  -48.0106 H         1 UNK         0.0600 
    194 H194       -3.4250  -20.8826  -46.3783 H         1 UNK         0.0600 
    195 H195       -2.2790  -23.0740  -45.8735 H         1 UNK         0.3000 
    196 H196       -4.0921  -25.0544  -46.7926 H         1 UNK         0.0600 
    197 H197       -3.4629  -26.2361  -44.6935 H         1 UNK         0.0600 
    198 H198       -3.7522  -24.5282  -44.3952 H         1 UNK         0.0600 
    199 H199       -2.1038  -25.1440  -44.4628 H         1 UNK         0.0600 
    200 H200       -0.5005  -25.0888  -46.5505 H         1 UNK         0.3000 
    201 H201       -0.0783  -27.6996  -47.5695 H         1 UNK         0.0600 
    202 H202        1.6554  -26.3932  -46.3616 H         1 UNK         0.0600 
    203 H203        1.7391  -25.2347  -47.6867 H         1 UNK         0.0600 
    204 H204        2.2522  -26.8981  -47.9356 H         1 UNK         0.0600 
    205 H205       -0.5760  -24.6103  -49.2311 H         1 UNK         0.3000 
    206 H206       -0.2172  -25.6773  -51.9162 H         1 UNK         0.0600 
    207 H207       -0.8666  -23.3825  -52.5833 H         1 UNK         0.0600 
    208 H208       -1.3130  -22.9991  -50.9228 H         1 UNK         0.0600 
    209 H209        0.3646  -23.3294  -51.3348 H         1 UNK         0.0600 
    210 H210       -2.4237  -26.6864  -49.9276 H         1 UNK         0.3000 
    211 H211       -4.3330  -27.7425  -50.0629 H         1 UNK         0.0600 
    212 H212       -4.3010  -27.3207  -53.0945 H         1 UNK         0.0600 
    213 H213       -5.2422  -28.5087  -52.2072 H         1 UNK         0.0600 
    214 H214       -3.4912  -28.6336  -52.2398 H         1 UNK         0.0600 
    215 H215       -4.4176  -25.1815  -49.2468 H         1 UNK         0.3000 
    216 H216       -5.8087  -23.6407  -48.5018 H         1 UNK         0.0600 
    217 H217       -8.2498  -23.9174  -48.5769 H         1 UNK         0.0600 
    218 H218       -7.4918  -25.4506  -48.1774 H         1 UNK         0.0600 
    219 H219       -8.1224  -25.1713  -49.8000 H         1 UNK         0.0600 
    220 H220       -4.3089  -22.8564  -50.4028 H         1 UNK         0.3000 
    221 H221       -5.4609  -21.8315  -52.7955 H         1 UNK         0.0600 
    222 H222       -2.9411  -21.0528  -51.2473 H         1 UNK         0.0600 
    223 H223       -3.0567  -22.1986  -52.5849 H         1 UNK         0.0600 
    224 H224       -3.3266  -20.4885  -52.8716 H         1 UNK         0.0600 
    225 H225       -6.6826  -20.0917  -53.1800 H         1 UNK         0.3000 
    226 H226       -7.6505  -18.4203  -51.0131 H         1 UNK         0.0600 
    227 H227       -9.1893  -19.3815  -52.6902 H         1 UNK         0.0600 
    228 H228       -9.2266  -17.6279  -52.7746 H         1 UNK         0.0600 
    229 H229       -8.3480  -18.5440  -53.9940 H         1 UNK         0.0600 
    230 H230       -5.3831  -17.6209  -50.7202 H         1 UNK         0.3000 
    231 H231       -4.0344  -15.9234  -50.4433 H         1 UNK         0.0600 
    232 H232       -5.8261  -14.1851  -52.2080 H         1 UNK         0.0600 
    233 H233       -4.5488  -13.6223  -51.1428 H         1 UNK         0.0600 
    234 H234       -5.9766  -14.3874  -50.4627 H         1 UNK         0.0600 
    235 H235       -4.9801  -16.1991  -53.8436 H         1 UNK         0.3000 
    236 H236       -2.1502  -15.9710  -54.7765 H         1 UNK         0.0600 
    237 H237       -3.8475  -14.6088  -56.0240 H         1 UNK         0.0600 
    238 H238       -3.1985  -15.8857  -57.0403 H         1 UNK         0.0600 
    239 H239       -4.8012  -16.0589  -56.3317 H         1 UNK         0.0600 
    240 H240       -1.3285  -17.7199  -56.0633 H         1 UNK         0.3000 
    241 H241       -2.1606  -20.3294  -55.0941 H         1 UNK         0.0600 
    242 H242       -3.3357  -18.6524  -57.7967 H         1 UNK         0.3800 
    243 H243       -3.7413  -20.0546  -58.7515 H         1 UNK         0.3800 
    244 H244       -0.0737  -21.1735  -56.0505 H         1 UNK         0.0800 
    245 H245        0.1713  -19.6992  -56.9508 H         1 UNK         0.0800 
    246 H246        1.0505  -21.4340  -53.4248 H         1 UNK         0.0800 
    247 H247       -0.6440  -21.0124  -53.4394 H         1 UNK         0.0800 
@<TRIPOS>BOND
     1    1    2 1    
     2    1  127 1    
     3    1  128 1    
     4    1  129 1    
     5    2    3 2    
     6    2    4 am   BACKBONE|DICT|INTERRES
     7    4    5 1    
     8    4  130 1    
     9    5    6 1    
    10    5   65 1    
    11    5  131 1    
    12    6    7 1    
    13    6  132 1    
    14    6  133 1    
    15    7    8 1    
    16    8    9 1    
    17    8  134 1    
    18    8  135 1    
    19    9   10 ar   
    20    9   14 ar   
    21   10   11 ar   
    22   10  136 1    
    23   11   12 ar   
    24   11  126 1    
    25   12   13 ar   
    26   12  137 1    
    27   13   14 ar   
    28   13   15 1    
    29   14  138 1    
    30   15   16 1    
    31   15  139 1    
    32   15  140 1    
    33   16   17 1    
    34   17   18 1    
    35   17  141 1    
    36   17  142 1    
    37   18   19 1    
    38   18   67 1    
    39   18  143 1    
    40   19   20 am   BACKBONE|DICT|INTERRES
    41   19  144 1    
    42   20   21 2    
    43   20   22 1    
    44   22   23 1    
    45   22   24 1    
    46   22  145 1    
    47   23  146 1    
    48   23  147 1    
    49   23  148 1    
    50   24   25 am   BACKBONE|DICT|INTERRES
    51   24  149 1    
    52   25   26 2    
    53   25   27 1    
    54   27   28 1    
    55   27   29 1    
    56   27  150 1    
    57   28  151 1    
    58   28  152 1    
    59   28  153 1    
    60   29   30 am   BACKBONE|DICT|INTERRES
    61   29  154 1    
    62   30   31 2    
    63   30   32 1    
    64   32   33 1    
    65   32   34 1    
    66   32  155 1    
    67   33  156 1    
    68   33  157 1    
    69   33  158 1    
    70   34   35 am   BACKBONE|DICT|INTERRES
    71   34  159 1    
    72   35   36 2    
    73   35   37 1    
    74   37   38 1    
    75   37   39 1    
    76   37  160 1    
    77   38  161 1    
    78   38  162 1    
    79   38  163 1    
    80   39   40 am   BACKBONE|DICT|INTERRES
    81   39  164 1    
    82   40   41 2    
    83   40   42 1    
    84   42   43 1    
    85   42   44 1    
    86   42  165 1    
    87   43  166 1    
    88   43  167 1    
    89   43  168 1    
    90   44   45 am   BACKBONE|DICT|INTERRES
    91   44  169 1    
    92   45   46 2    
    93   45   47 1    
    94   47   48 1    
    95   47   49 1    
    96   47  170 1    
    97   48  171 1    
    98   48  172 1    
    99   48  173 1    
   100   49   50 am   BACKBONE|DICT|INTERRES
   101   49  174 1    
   102   50   51 2    
   103   50   52 1    
   104   52   53 1    
   105   52   54 1    
   106   52  175 1    
   107   53  176 1    
   108   53  177 1    
   109   53  178 1    
   110   54   55 am   BACKBONE|DICT|INTERRES
   111   54  179 1    
   112   55   56 2    
   113   55   57 1    
   114   57   58 1    
   115   57   59 1    
   116   57  180 1    
   117   58  181 1    
   118   58  182 1    
   119   58  183 1    
   120   59   60 am   BACKBONE|DICT|INTERRES
   121   59  184 1    
   122   60   61 2    
   123   60   62 1    
   124   62   63 1    
   125   62   64 1    
   126   62  185 1    
   127   63  186 1    
   128   63  187 1    
   129   63  188 1    
   130   64   65 am   BACKBONE|DICT|INTERRES
   131   64  189 1    
   132   65   66 2    
   133   67   68 2    
   134   67   69 am   BACKBONE|DICT|INTERRES
   135   69   70 1    
   136   69  190 1    
   137   70   71 1    
   138   70   72 1    
   139   70  191 1    
   140   71  192 1    
   141   71  193 1    
   142   71  194 1    
   143   72   73 2    
   144   72   74 am   BACKBONE|DICT|INTERRES
   145   74   75 1    
   146   74  195 1    
   147   75   76 1    
   148   75   77 1    
   149   75  196 1    
   150   76  197 1    
   151   76  198 1    
   152   76  199 1    
   153   77   78 2    
   154   77   79 am   BACKBONE|DICT|INTERRES
   155   79   80 1    
   156   79  200 1    
   157   80   81 1    
   158   80   82 1    
   159   80  201 1    
   160   81  202 1    
   161   81  203 1    
   162   81  204 1    
   163   82   83 2    
   164   82   84 am   BACKBONE|DICT|INTERRES
   165   84   85 1    
   166   84  205 1    
   167   85   86 1    
   168   85   87 1    
   169   85  206 1    
   170   86  207 1    
   171   86  208 1    
   172   86  209 1    
   173   87   88 2    
   174   87   89 am   BACKBONE|DICT|INTERRES
   175   89   90 1    
   176   89  210 1    
   177   90   91 1    
   178   90   92 1    
   179   90  211 1    
   180   91  212 1    
   181   91  213 1    
   182   91  214 1    
   183   92   93 2    
   184   92   94 am   BACKBONE|DICT|INTERRES
   185   94   95 1    
   186   94  215 1    
   187   95   96 1    
   188   95   97 1    
   189   95  216 1    
   190   96  217 1    
   191   96  218 1    
   192   96  219 1    
   193   97   98 2    
   194   97   99 am   BACKBONE|DICT|INTERRES
   195   99  100 1    
   196   99  220 1    
   197  100  101 1    
   198  100  102 1    
   199  100  221 1    
   200  101  222 1    
   201  101  223 1    
   202  101  224 1    
   203  102  103 2    
   204  102  104 am   BACKBONE|DICT|INTERRES
   205  104  105 1    
   206  104  225 1    
   207  105  106 1    
   208  105  107 1    
   209  105  226 1    
   210  106  227 1    
   211  106  228 1    
   212  106  229 1    
   213  107  108 2    
   214  107  109 am   BACKBONE|DICT|INTERRES
   215  109  110 1    
   216  109  230 1    
   217  110  111 1    
   218  110  112 1    
   219  110  231 1    
   220  111  232 1    
   221  111  233 1    
   222  111  234 1    
   223  112  113 2    
   224  112  114 am   BACKBONE|DICT|INTERRES
   225  114  115 1    
   226  114  235 1    
   227  115  116 1    
   228  115  117 1    
   229  115  236 1    
   230  116  237 1    
   231  116  238 1    
   232  116  239 1    
   233  117  118 2    
   234  117  119 am   BACKBONE|DICT|INTERRES
   235  119  120 1    
   236  119  240 1    
   237  120  121 1    
   238  120  124 1    
   239  120  241 1    
   240  121  122 am   BACKBONE|DICT|INTERRES
   241  121  123 2    
   242  122  242 1    
   243  122  243 1    
   244  124  125 1    
   245  124  244 1    
   246  124  245 1    
   247  125  126 1    
   248  126  246 1    
   249  126  247 1    
@<TRIPOS>SUBSTRUCTURE
     1 UNK         1 GROUP             0       ****    0 ROOT    
