@<TRIPOS>MOLECULE
3R540
247   249    1
SMALL
USER_CHARGES


@<TRIPOS>ATOM
      1 CA          8.1887  -13.1497  -45.7859 C.3       0 UNK        -0.1800 
      2 C           6.6992  -13.4070  -45.6136 C.2       0 UNK         0.5000 
      3 O           6.1911  -13.3413  -44.4958 O.2       0 UNK        -0.5000 
      4 N           5.9880  -13.6795  -46.7155 N.am      1 UNK        -0.5000 
      5 CA          4.5470  -13.9734  -46.7374 C.3       1 UNK         0.1400 
      6 C6          4.1062  -14.4926  -48.1290 C.3       23 UNK        -0.0398 
      7 S7          2.6970  -15.6407  -48.0280 S.3       23 UNK        -0.2404 
      8 C8          1.9422  -15.4029  -49.6654 C.3       23 UNK        -0.0205 
      9 C9          0.9034  -16.4785  -49.9318 C.ar      23 UNK        -0.0193 
     10 C10        -0.4604  -16.2087  -49.7922 C.ar      23 UNK        -0.1150 
     11 C11        -1.4052  -17.2202  -49.9909 C.ar      23 UNK        -0.0193 
     12 C12        -0.9762  -18.5096  -50.3210 C.ar      23 UNK        -0.1150 
     13 C13         0.3855  -18.7885  -50.4743 C.ar      23 UNK        -0.0193 
     14 C14         1.3169  -17.7611  -50.2970 C.ar      23 UNK        -0.1150 
     15 C15         0.8436  -20.2042  -50.8093 C.3       23 UNK        -0.0205 
     16 S16         2.2209  -20.7967  -49.7614 S.3       23 UNK        -0.2404 
     17 C17         1.5837  -20.5073  -48.0724 C.3       23 UNK        -0.0398 
     18 CA          1.0022  -21.7700  -47.4008 C.3       11 UNK         0.1400 
     19 N           0.7902  -21.5604  -45.9685 N.am      11 UNK        -0.5000 
     20 C           0.4375  -22.5161  -45.0981 C.2       10 UNK         0.5000 
     21 O           0.3075  -23.7036  -45.3963 O.2       10 UNK        -0.5000 
     22 CA          0.1300  -22.0565  -43.6629 C.3       10 UNK         0.1400 
     23 CB          1.4277  -21.8534  -42.8671 C.3       10 UNK        -0.1800 
     24 N          -0.6718  -20.8315  -43.6286 N.am      10 UNK        -0.5000 
     25 C          -1.9220  -20.7349  -44.1052 C.2       9 UNK         0.5000 
     26 O          -2.5433  -21.6830  -44.5844 O.2       9 UNK        -0.5000 
     27 CA         -2.5770  -19.3422  -44.0810 C.3       9 UNK         0.1400 
     28 CB         -3.0929  -19.0061  -42.6745 C.3       9 UNK        -0.1800 
     29 N          -1.6811  -18.2827  -44.5445 N.am      9 UNK        -0.5000 
     30 C          -1.1662  -18.2034  -45.7800 C.2       8 UNK         0.5000 
     31 O          -1.4080  -19.0104  -46.6751 O.2       8 UNK        -0.5000 
     32 CA         -0.1719  -17.0612  -46.0450 C.3       8 UNK         0.1400 
     33 CB         -0.9031  -15.7342  -46.2982 C.3       8 UNK        -0.1800 
     34 N           0.7792  -16.8948  -44.9478 N.am      8 UNK        -0.5000 
     35 C           1.6923  -17.8073  -44.5886 C.2       7 UNK         0.5000 
     36 O           1.8579  -18.8828  -45.1657 O.2       7 UNK        -0.5000 
     37 CA          2.5157  -17.4812  -43.3312 C.3       7 UNK         0.1400 
     38 CB          3.6265  -16.4683  -43.6491 C.3       7 UNK        -0.1800 
     39 N           1.6731  -16.9680  -42.2491 N.am      7 UNK        -0.5000 
     40 C           0.7621  -17.7055  -41.5947 C.2       6 UNK         0.5000 
     41 O           0.5650  -18.8991  -41.8175 O.2       6 UNK        -0.5000 
     42 CA         -0.1055  -16.9894  -40.5417 C.3       6 UNK         0.1400 
     43 CB          0.5820  -17.0207  -39.1688 C.3       6 UNK        -0.1800 
     44 N          -0.4153  -15.6038  -40.8901 N.am      6 UNK        -0.5000 
     45 C          -1.0726  -15.2073  -41.9892 C.2       5 UNK         0.5000 
     46 O          -1.5586  -15.9848  -42.8097 O.2       5 UNK        -0.5000 
     47 CA         -1.1644  -13.6887  -42.2367 C.3       5 UNK         0.1400 
     48 CB         -2.5433  -13.1594  -41.8158 C.3       5 UNK        -0.1800 
     49 N          -0.1217  -12.9138  -41.5534 N.am      5 UNK        -0.5000 
     50 C           1.1912  -13.0173  -41.7982 C.2       4 UNK         0.5000 
     51 O           1.6781  -13.7989  -42.6179 O.2       4 UNK        -0.5000 
     52 CA          2.1172  -12.1556  -40.9360 C.3       4 UNK         0.1400 
     53 CB          2.6247  -12.9586  -39.7235 C.3       4 UNK        -0.1800 
     54 N           3.2358  -11.7135  -41.7586 N.am      4 UNK        -0.5000 
     55 C           4.0326  -10.6748  -41.4847 C.2       3 UNK         0.5000 
     56 O           3.9357   -9.9882  -40.4663 O.2       3 UNK        -0.5000 
     57 CA          5.1130  -10.3292  -42.5258 C.3       3 UNK         0.1400 
     58 CB          6.4290  -11.0483  -42.1924 C.3       3 UNK        -0.1800 
     59 N           4.7143  -10.6366  -43.9035 N.am      3 UNK        -0.5000 
     60 C           3.7905   -9.9415  -44.5876 C.2       2 UNK         0.5000 
     61 O           3.1533   -9.0073  -44.0987 O.2       2 UNK        -0.5000 
     62 CA          3.5448  -10.3081  -46.0659 C.3       2 UNK         0.1400 
     63 CB          4.0470   -9.1845  -46.9875 C.3       2 UNK        -0.1800 
     64 N           4.1852  -11.5575  -46.4732 N.am      2 UNK        -0.5000 
     65 C           3.6771  -12.7807  -46.2733 C.2       1 UNK         0.5000 
     66 O           2.5904  -12.9837  -45.7332 O.2       1 UNK        -0.5000 
     67 C          -0.2851  -22.2571  -48.0966 C.2       11 UNK         0.5000 
     68 O          -0.2395  -23.2547  -48.8148 O.2       11 UNK        -0.5000 
     69 N          -1.4136  -21.5801  -47.8401 N.am      12 UNK        -0.5000 
     70 CA         -2.7355  -21.9392  -48.3525 C.3       12 UNK         0.1400 
     71 CB         -3.7640  -20.8845  -47.9230 C.3       12 UNK        -0.1800 
     72 C          -3.1889  -23.3425  -47.9186 C.2       12 UNK         0.5000 
     73 O          -3.7119  -24.0849  -48.7486 O.2       12 UNK        -0.5000 
     74 N          -2.9507  -23.6936  -46.6475 N.am      13 UNK        -0.5000 
     75 CA         -3.2198  -25.0191  -46.0918 C.3       13 UNK         0.1400 
     76 CB         -3.0157  -24.9960  -44.5695 C.3       13 UNK        -0.1800 
     77 C          -2.3642  -26.1180  -46.7473 C.2       13 UNK         0.5000 
     78 O          -2.9047  -27.1584  -47.1236 O.2       13 UNK        -0.5000 
     79 N          -1.0593  -25.8548  -46.9096 N.am      14 UNK        -0.5000 
     80 CA         -0.1044  -26.7525  -47.5647 C.3       14 UNK         0.1400 
     81 CB          1.3217  -26.2180  -47.3632 C.3       14 UNK        -0.1800 
     82 C          -0.4016  -26.9615  -49.0620 C.2       14 UNK         0.5000 
     83 O          -0.2868  -28.0840  -49.5554 O.2       14 UNK        -0.5000 
     84 N          -0.8028  -25.8845  -49.7489 N.am      15 UNK        -0.5000 
     85 CA         -1.1874  -25.8813  -51.1608 C.3       15 UNK         0.1400 
     86 CB         -1.0815  -24.4435  -51.6962 C.3       15 UNK        -0.1800 
     87 C          -2.6019  -26.4363  -51.4208 C.2       15 UNK         0.5000 
     88 O          -2.9651  -26.6043  -52.5852 O.2       15 UNK        -0.5000 
     89 N          -3.3914  -26.6595  -50.3584 N.am      16 UNK        -0.5000 
     90 CA         -4.8076  -27.0495  -50.3700 C.3       16 UNK         0.1400 
     91 CB         -4.9717  -28.4946  -50.8835 C.3       16 UNK        -0.1800 
     92 C          -5.6826  -26.0273  -51.1299 C.2       16 UNK         0.5000 
     93 O          -6.5206  -26.4048  -51.9496 O.2       16 UNK        -0.5000 
     94 N          -5.4162  -24.7412  -50.8611 N.am      17 UNK        -0.5000 
     95 CA         -5.9584  -23.5348  -51.4954 C.3       17 UNK         0.1400 
     96 CB         -7.4907  -23.4506  -51.3444 C.3       17 UNK        -0.1800 
     97 C          -5.5022  -23.3115  -52.9534 C.2       17 UNK         0.5000 
     98 O          -5.9997  -22.3851  -53.5960 O.2       17 UNK        -0.5000 
     99 N          -4.5521  -24.1227  -53.4440 N.am      18 UNK        -0.5000 
    100 CA        -3.9899  -24.1072  -54.7973 C.3       18 UNK         0.1400 
    101 CB        -3.1271  -22.8414  -55.0056 C.3       18 UNK        -0.1800 
    102 C         -5.0818  -24.3117  -55.8714 C.2       18 UNK         0.5000 
    103 O         -5.9876  -25.1244  -55.6720 O.2       18 UNK        -0.5000 
    104 N         -5.0092  -23.5644  -56.9794 N.am      19 UNK        -0.5000 
    105 CA        -5.9991  -23.5493  -58.0588 C.3       19 UNK         0.1400 
    106 CB        -5.2940  -23.1372  -59.3642 C.3       19 UNK        -0.1800 
    107 C         -7.2000  -22.6398  -57.7136 C.2       19 UNK         0.5000 
    108 O         -7.5424  -21.7499  -58.4945 O.2       19 UNK        -0.5000 
    109 N         -7.7974  -22.8696  -56.5341 N.am      20 UNK        -0.5000 
    110 CA        -8.8867  -22.1031  -55.9162 C.3       20 UNK         0.1400 
    111 CB       -10.2025  -22.2980  -56.6983 C.3       20 UNK        -0.1800 
    112 C         -8.5130  -20.6191  -55.7091 C.2       20 UNK         0.5000 
    113 O         -9.2626  -19.7213  -56.1005 O.2       20 UNK        -0.5000 
    114 N         -7.3330  -20.4016  -55.1183 N.am      21 UNK        -0.5000 
    115 CA        -6.7649  -19.0953  -54.8025 C.3       21 UNK         0.1400 
    116 CB        -5.2450  -19.1594  -55.0587 C.3       21 UNK        -0.1800 
    117 C         -7.1231  -18.6923  -53.3557 C.2       21 UNK         0.5000 
    118 O         -8.1916  -19.0539  -52.8571 O.2       21 UNK        -0.5000 
    119 N         -6.2249  -17.9473  -52.7009 N.am      22 UNK        -0.5000 
    120 CA        -6.3248  -17.5186  -51.2955 C.3       22 UNK         0.1400 
    121 C         -6.1650  -18.6511  -50.2367 C.2       22 UNK         0.5000 
    122 N         -5.8138  -19.8742  -50.6129 N.am      22 UNK        -0.7600 
    123 O         -6.3764  -18.4167  -49.0505 O.2       22 UNK        -0.5000 
    124 C124       -5.3899  -16.3147  -51.0018 C.3       23 UNK        -0.0398 
    125 S125       -3.6438  -16.5957  -51.4670 S.3       23 UNK        -0.2404 
    126 C126       -2.8888  -16.9245  -49.8456 C.3       23 UNK        -0.0205 
    127 H127        8.7628  -13.8782  -45.2134 H         1 UNK         0.0600 
    128 H128        8.4410  -12.1537  -45.4219 H         1 UNK         0.0600 
    129 H129        8.4946  -13.2190  -46.8300 H         1 UNK         0.0600 
    130 H130        6.4598  -13.7123  -47.6084 H         1 UNK         0.3000 
    131 H131        4.3964  -14.7740  -46.0109 H         1 UNK         0.0600 
    132 H132        3.8787  -13.6690  -48.8087 H         1 UNK         0.0800 
    133 H133        4.9173  -15.0505  -48.5994 H         1 UNK         0.0800 
    134 H134        2.7135  -15.4438  -50.4362 H         1 UNK         0.0800 
    135 H135        1.4950  -14.4092  -49.7200 H         1 UNK         0.0800 
    136 H136       -0.7861  -15.2147  -49.5196 H         1 UNK         0.1150 
    137 H137       -1.7071  -19.2941  -50.4587 H         1 UNK         0.1150 
    138 H138        2.3723  -17.9682  -50.4046 H         1 UNK         0.1150 
    139 H139        0.0131  -20.9068  -50.7254 H         1 UNK         0.0800 
    140 H140        1.1611  -20.2303  -51.8522 H         1 UNK         0.0800 
    141 H141        0.8602  -19.6924  -48.0564 H         1 UNK         0.0800 
    142 H142        2.4309  -20.1480  -47.4870 H         1 UNK         0.0800 
    143 H143        1.7424  -22.5677  -47.4934 H         1 UNK         0.0600 
    144 H144        0.9061  -20.6104  -45.6296 H         1 UNK         0.3000 
    145 H145       -0.4458  -22.8472  -43.1776 H         1 UNK         0.0600 
    146 H146        1.2162  -21.6275  -41.8219 H         1 UNK         0.0600 
    147 H147        2.0441  -22.7530  -42.8868 H         1 UNK         0.0600 
    148 H148        2.0247  -21.0351  -43.2715 H         1 UNK         0.0600 
    149 H149       -0.2378  -20.0175  -43.2030 H         1 UNK         0.3000 
    150 H150       -3.4334  -19.3666  -44.7576 H         1 UNK         0.0600 
    151 H151       -3.8036  -19.7584  -42.3301 H         1 UNK         0.0600 
    152 H152       -3.6045  -18.0435  -42.6607 H         1 UNK         0.0600 
    153 H153       -2.2816  -18.9648  -41.9482 H         1 UNK         0.0600 
    154 H154       -1.4683  -17.5425  -43.8806 H         1 UNK         0.3000 
    155 H155        0.3901  -17.3179  -46.9452 H         1 UNK         0.0600 
    156 H156       -1.4370  -15.3873  -45.4138 H         1 UNK         0.0600 
    157 H157       -1.6350  -15.8399  -47.0989 H         1 UNK         0.0600 
    158 H158       -0.2036  -14.9529  -46.5969 H         1 UNK         0.0600 
    159 H159        0.6997  -16.0505  -44.3999 H         1 UNK         0.3000 
    160 H160        2.9860  -18.4055  -42.9889 H         1 UNK         0.0600 
    161 H161        3.2195  -15.5176  -43.9953 H         1 UNK         0.0600 
    162 H162        4.2860  -16.8463  -44.4312 H         1 UNK         0.0600 
    163 H163        4.2422  -16.2675  -42.7723 H         1 UNK         0.0600 
    164 H164        1.7398  -15.9770  -42.0532 H         1 UNK         0.3000 
    165 H165       -1.0498  -17.5310  -40.4638 H         1 UNK         0.0600 
    166 H166       -0.0581  -16.5935  -38.3967 H         1 UNK         0.0600 
    167 H167        0.8101  -18.0448  -38.8700 H         1 UNK         0.0600 
    168 H168        1.5199  -16.4636  -39.1749 H         1 UNK         0.0600 
    169 H169       -0.0601  -14.8920  -40.2701 H         1 UNK         0.3000 
    170 H170       -1.0490  -13.5295  -43.3109 H         1 UNK         0.0600 
    171 H171       -3.3416  -13.6984  -42.3279 H         1 UNK         0.0600 
    172 H172       -2.7073  -13.2712  -40.7433 H         1 UNK         0.0600 
    173 H173       -2.6545  -12.1041  -42.0656 H         1 UNK         0.0600 
    174 H174       -0.4395  -12.2600  -40.8520 H         1 UNK         0.3000 
    175 H175        1.5626  -11.2808  -40.5896 H         1 UNK         0.0600 
    176 H176        3.2033  -13.8298  -40.0339 H         1 UNK         0.0600 
    177 H177        3.2586  -12.3498  -39.0788 H         1 UNK         0.0600 
    178 H178        1.7940  -13.3153  -39.1134 H         1 UNK         0.0600 
    179 H179        3.3539  -12.2242  -42.6251 H         1 UNK         0.3000 
    180 H180        5.2974   -9.2544  -42.4638 H         1 UNK         0.0600 
    181 H181        6.2991  -12.1304  -42.1575 H         1 UNK         0.0600 
    182 H182        6.8050  -10.7358  -41.2174 H         1 UNK         0.0600 
    183 H183        7.2028  -10.8244  -42.9270 H         1 UNK         0.0600 
    184 H184        5.1746  -11.4240  -44.3440 H         1 UNK         0.3000 
    185 H185        2.4652  -10.4004  -46.2029 H         1 UNK         0.0600 
    186 H186        3.5633   -8.2359  -46.7502 H         1 UNK         0.0600 
    187 H187        5.1235   -9.0366  -46.8924 H         1 UNK         0.0600 
    188 H188        3.8286   -9.4044  -48.0328 H         1 UNK         0.0600 
    189 H189        5.0915  -11.4802  -46.9115 H         1 UNK         0.3000 
    190 H190       -1.3684  -20.7383  -47.2685 H         1 UNK         0.3000 
    191 H191       -2.6784  -21.9345  -49.4429 H         1 UNK         0.0600 
    192 H192       -3.7945  -20.7694  -46.8398 H         1 UNK         0.0600 
    193 H193       -4.7680  -21.1571  -48.2478 H         1 UNK         0.0600 
    194 H194       -3.5320  -19.9113  -48.3540 H         1 UNK         0.0600 
    195 H195       -2.5686  -23.0000  -46.0104 H         1 UNK         0.3000 
    196 H196       -4.2680  -25.2543  -46.2877 H         1 UNK         0.0600 
    197 H197       -3.2243  -25.9731  -44.1320 H         1 UNK         0.0600 
    198 H198       -3.6837  -24.2774  -44.0944 H         1 UNK         0.0600 
    199 H199       -1.9935  -24.7271  -44.3024 H         1 UNK         0.0600 
    200 H200       -0.6854  -24.9824  -46.5469 H         1 UNK         0.3000 
    201 H201       -0.1732  -27.7261  -47.0752 H         1 UNK         0.0600 
    202 H202        1.5695  -26.1476  -46.3040 H         1 UNK         0.0600 
    203 H203        1.4460  -25.2270  -47.8011 H         1 UNK         0.0600 
    204 H204        2.0564  -26.8775  -47.8266 H         1 UNK         0.0600 
    205 H205       -0.7985  -24.9799  -49.2819 H         1 UNK         0.3000 
    206 H206       -0.4836  -26.5049  -51.7157 H         1 UNK         0.0600 
    207 H207       -0.0788  -24.0405  -51.5520 H         1 UNK         0.0600 
    208 H208       -1.2938  -24.4061  -52.7651 H         1 UNK         0.0600 
    209 H209       -1.7852  -23.7764  -51.1964 H         1 UNK         0.0600 
    210 H210       -3.0075  -26.4557  -49.4448 H         1 UNK         0.3000 
    211 H211       -5.1402  -27.0268  -49.3311 H         1 UNK         0.0600 
    212 H212       -4.6981  -28.5864  -51.9350 H         1 UNK         0.0600 
    213 H213       -6.0051  -28.8286  -50.7844 H         1 UNK         0.0600 
    214 H214       -4.3512  -29.1865  -50.3140 H         1 UNK         0.0600 
    215 H215       -4.7148  -24.5596  -50.1425 H         1 UNK         0.3000 
    216 H216       -5.5323  -22.7066  -50.9296 H         1 UNK         0.0600 
    217 H217       -7.8601  -22.4721  -51.6545 H         1 UNK         0.0600 
    218 H218       -7.7942  -23.5962  -50.3078 H         1 UNK         0.0600 
    219 H219       -8.0006  -24.1968  -51.9539 H         1 UNK         0.0600 
    220 H220       -4.2443  -24.8965  -52.8682 H         1 UNK         0.3000 
    221 H221       -3.3312  -24.9739  -54.8637 H         1 UNK         0.0600 
    222 H222       -3.7323  -21.9357  -55.0456 H         1 UNK         0.0600 
    223 H223       -2.4092  -22.7191  -54.1948 H         1 UNK         0.0600 
    224 H224       -2.5522  -22.9009  -55.9303 H         1 UNK         0.0600 
    225 H225       -4.2591  -22.8928  -57.0554 H         1 UNK         0.3000 
    226 H226       -6.3913  -24.5586  -58.2013 H         1 UNK         0.0600 
    227 H227       -4.4751  -23.8168  -59.6009 H         1 UNK         0.0600 
    228 H228       -5.9854  -23.1603  -60.2075 H         1 UNK         0.0600 
    229 H229       -4.8849  -22.1281  -59.3003 H         1 UNK         0.0600 
    230 H230       -7.4122  -23.6186  -55.9689 H         1 UNK         0.3000 
    231 H231       -9.0307  -22.5228  -54.9194 H         1 UNK         0.0600 
    232 H232      -10.4491  -23.3551  -56.7965 H         1 UNK         0.0600 
    233 H233      -10.1474  -21.8720  -57.7005 H         1 UNK         0.0600 
    234 H234      -11.0358  -21.8173  -56.1844 H         1 UNK         0.0600 
    235 H235       -6.8252  -21.2004  -54.7432 H         1 UNK         0.3000 
    236 H236       -7.1876  -18.3382  -55.4657 H         1 UNK         0.0600 
    237 H237       -4.7427  -19.8113  -54.3427 H         1 UNK         0.0600 
    238 H238       -5.0327  -19.5410  -56.0578 H         1 UNK         0.0600 
    239 H239       -4.7855  -18.1726  -54.9942 H         1 UNK         0.0600 
    240 H240       -5.3623  -17.7010  -53.1648 H         1 UNK         0.3000 
    241 H241       -7.3453  -17.1569  -51.1560 H         1 UNK         0.0600 
    242 H242       -5.7428  -20.5915  -49.9131 H         1 UNK         0.3800 
    243 H243       -5.6582  -20.0835  -51.5851 H         1 UNK         0.3800 
    244 H244       -5.7379  -15.4516  -51.5708 H         1 UNK         0.0800 
    245 H245       -5.4549  -16.0107  -49.9556 H         1 UNK         0.0800 
    246 H246       -3.3886  -17.7685  -49.3696 H         1 UNK         0.0800 
    247 H247       -3.0426  -16.0647  -49.1921 H         1 UNK         0.0800 
@<TRIPOS>BOND
     1    1    2 1    
     2    1  127 1    
     3    1  128 1    
     4    1  129 1    
     5    2    3 2    
     6    2    4 am   BACKBONE|DICT|INTERRES
     7    4    5 1    
     8    4  130 1    
     9    5    6 1    
    10    5   65 1    
    11    5  131 1    
    12    6    7 1    
    13    6  132 1    
    14    6  133 1    
    15    7    8 1    
    16    8    9 1    
    17    8  134 1    
    18    8  135 1    
    19    9   10 ar   
    20    9   14 ar   
    21   10   11 ar   
    22   10  136 1    
    23   11   12 ar   
    24   11  126 1    
    25   12   13 ar   
    26   12  137 1    
    27   13   14 ar   
    28   13   15 1    
    29   14  138 1    
    30   15   16 1    
    31   15  139 1    
    32   15  140 1    
    33   16   17 1    
    34   17   18 1    
    35   17  141 1    
    36   17  142 1    
    37   18   19 1    
    38   18   67 1    
    39   18  143 1    
    40   19   20 am   BACKBONE|DICT|INTERRES
    41   19  144 1    
    42   20   21 2    
    43   20   22 1    
    44   22   23 1    
    45   22   24 1    
    46   22  145 1    
    47   23  146 1    
    48   23  147 1    
    49   23  148 1    
    50   24   25 am   BACKBONE|DICT|INTERRES
    51   24  149 1    
    52   25   26 2    
    53   25   27 1    
    54   27   28 1    
    55   27   29 1    
    56   27  150 1    
    57   28  151 1    
    58   28  152 1    
    59   28  153 1    
    60   29   30 am   BACKBONE|DICT|INTERRES
    61   29  154 1    
    62   30   31 2    
    63   30   32 1    
    64   32   33 1    
    65   32   34 1    
    66   32  155 1    
    67   33  156 1    
    68   33  157 1    
    69   33  158 1    
    70   34   35 am   BACKBONE|DICT|INTERRES
    71   34  159 1    
    72   35   36 2    
    73   35   37 1    
    74   37   38 1    
    75   37   39 1    
    76   37  160 1    
    77   38  161 1    
    78   38  162 1    
    79   38  163 1    
    80   39   40 am   BACKBONE|DICT|INTERRES
    81   39  164 1    
    82   40   41 2    
    83   40   42 1    
    84   42   43 1    
    85   42   44 1    
    86   42  165 1    
    87   43  166 1    
    88   43  167 1    
    89   43  168 1    
    90   44   45 am   BACKBONE|DICT|INTERRES
    91   44  169 1    
    92   45   46 2    
    93   45   47 1    
    94   47   48 1    
    95   47   49 1    
    96   47  170 1    
    97   48  171 1    
    98   48  172 1    
    99   48  173 1    
   100   49   50 am   BACKBONE|DICT|INTERRES
   101   49  174 1    
   102   50   51 2    
   103   50   52 1    
   104   52   53 1    
   105   52   54 1    
   106   52  175 1    
   107   53  176 1    
   108   53  177 1    
   109   53  178 1    
   110   54   55 am   BACKBONE|DICT|INTERRES
   111   54  179 1    
   112   55   56 2    
   113   55   57 1    
   114   57   58 1    
   115   57   59 1    
   116   57  180 1    
   117   58  181 1    
   118   58  182 1    
   119   58  183 1    
   120   59   60 am   BACKBONE|DICT|INTERRES
   121   59  184 1    
   122   60   61 2    
   123   60   62 1    
   124   62   63 1    
   125   62   64 1    
   126   62  185 1    
   127   63  186 1    
   128   63  187 1    
   129   63  188 1    
   130   64   65 am   BACKBONE|DICT|INTERRES
   131   64  189 1    
   132   65   66 2    
   133   67   68 2    
   134   67   69 am   BACKBONE|DICT|INTERRES
   135   69   70 1    
   136   69  190 1    
   137   70   71 1    
   138   70   72 1    
   139   70  191 1    
   140   71  192 1    
   141   71  193 1    
   142   71  194 1    
   143   72   73 2    
   144   72   74 am   BACKBONE|DICT|INTERRES
   145   74   75 1    
   146   74  195 1    
   147   75   76 1    
   148   75   77 1    
   149   75  196 1    
   150   76  197 1    
   151   76  198 1    
   152   76  199 1    
   153   77   78 2    
   154   77   79 am   BACKBONE|DICT|INTERRES
   155   79   80 1    
   156   79  200 1    
   157   80   81 1    
   158   80   82 1    
   159   80  201 1    
   160   81  202 1    
   161   81  203 1    
   162   81  204 1    
   163   82   83 2    
   164   82   84 am   BACKBONE|DICT|INTERRES
   165   84   85 1    
   166   84  205 1    
   167   85   86 1    
   168   85   87 1    
   169   85  206 1    
   170   86  207 1    
   171   86  208 1    
   172   86  209 1    
   173   87   88 2    
   174   87   89 am   BACKBONE|DICT|INTERRES
   175   89   90 1    
   176   89  210 1    
   177   90   91 1    
   178   90   92 1    
   179   90  211 1    
   180   91  212 1    
   181   91  213 1    
   182   91  214 1    
   183   92   93 2    
   184   92   94 am   BACKBONE|DICT|INTERRES
   185   94   95 1    
   186   94  215 1    
   187   95   96 1    
   188   95   97 1    
   189   95  216 1    
   190   96  217 1    
   191   96  218 1    
   192   96  219 1    
   193   97   98 2    
   194   97   99 am   BACKBONE|DICT|INTERRES
   195   99  100 1    
   196   99  220 1    
   197  100  101 1    
   198  100  102 1    
   199  100  221 1    
   200  101  222 1    
   201  101  223 1    
   202  101  224 1    
   203  102  103 2    
   204  102  104 am   BACKBONE|DICT|INTERRES
   205  104  105 1    
   206  104  225 1    
   207  105  106 1    
   208  105  107 1    
   209  105  226 1    
   210  106  227 1    
   211  106  228 1    
   212  106  229 1    
   213  107  108 2    
   214  107  109 am   BACKBONE|DICT|INTERRES
   215  109  110 1    
   216  109  230 1    
   217  110  111 1    
   218  110  112 1    
   219  110  231 1    
   220  111  232 1    
   221  111  233 1    
   222  111  234 1    
   223  112  113 2    
   224  112  114 am   BACKBONE|DICT|INTERRES
   225  114  115 1    
   226  114  235 1    
   227  115  116 1    
   228  115  117 1    
   229  115  236 1    
   230  116  237 1    
   231  116  238 1    
   232  116  239 1    
   233  117  118 2    
   234  117  119 am   BACKBONE|DICT|INTERRES
   235  119  120 1    
   236  119  240 1    
   237  120  121 1    
   238  120  124 1    
   239  120  241 1    
   240  121  122 am   BACKBONE|DICT|INTERRES
   241  121  123 2    
   242  122  242 1    
   243  122  243 1    
   244  124  125 1    
   245  124  244 1    
   246  124  245 1    
   247  125  126 1    
   248  126  246 1    
   249  126  247 1    
@<TRIPOS>SUBSTRUCTURE
     1 UNK         1 GROUP             0       ****    0 ROOT    
