@<TRIPOS>MOLECULE
3R540
247   249    1
SMALL
USER_CHARGES


@<TRIPOS>ATOM
      1 CA         -4.8887  -12.5359  -47.7895 C.3       0 UNK        -0.1800 
      2 C          -3.4120  -12.6057  -47.4286 C.2       0 UNK         0.5000 
      3 O          -2.9294  -11.7766  -46.6566 O.2       0 UNK        -0.5000 
      4 N          -2.6951  -13.5998  -47.9713 N.am      1 UNK        -0.5000 
      5 CA         -1.2608  -13.8321  -47.7469 C.3       1 UNK         0.1400 
      6 C6         -0.6884  -14.8994  -48.7149 C.3       23 UNK        -0.0398 
      7 S7         -1.4130  -16.5604  -48.4760 S.3       23 UNK        -0.2404 
      8 C8         -1.4387  -17.2380  -50.1612 C.3       23 UNK        -0.0205 
      9 C9         -0.0412  -17.5300  -50.6850 C.ar      23 UNK        -0.0193 
     10 C10         0.5016  -16.7488  -51.7076 C.ar      23 UNK        -0.1150 
     11 C11         1.7569  -17.0513  -52.2398 C.ar      23 UNK        -0.0193 
     12 C12         2.4837  -18.1243  -51.7177 C.ar      23 UNK        -0.1150 
     13 C13         1.9555  -18.9215  -50.6973 C.ar      23 UNK        -0.0193 
     14 C14         0.6903  -18.6104  -50.1804 C.ar      23 UNK        -0.1150 
     15 C15         2.7869  -20.0947  -50.1780 C.3       23 UNK        -0.0205 
     16 S16         1.8301  -21.6062  -49.8115 S.3       23 UNK        -0.2404 
     17 C17         1.6061  -21.3975  -48.0160 C.3       23 UNK        -0.0398 
     18 CA          0.6100  -22.3760  -47.3535 C.3       11 UNK         0.1400 
     19 N           0.6520  -22.2362  -45.8956 N.am      11 UNK        -0.5000 
     20 C           0.0281  -23.0300  -45.0160 C.2       10 UNK         0.5000 
     21 O          -0.6106  -24.0316  -45.3335 O.2       10 UNK        -0.5000 
     22 CA          0.0882  -22.6053  -43.5366 C.3       10 UNK         0.1400 
     23 CB          1.3979  -23.0721  -42.8847 C.3       10 UNK        -0.1800 
     24 N          -0.0610  -21.1595  -43.3611 N.am      10 UNK        -0.5000 
     25 C          -1.1640  -20.4651  -43.6754 C.2       9 UNK         0.5000 
     26 O          -2.1999  -20.9844  -44.0894 O.2       9 UNK        -0.5000 
     27 CA         -1.0764  -18.9308  -43.5642 C.3       9 UNK         0.1400 
     28 CB         -1.2587  -18.4689  -42.1103 C.3       9 UNK        -0.1800 
     29 N           0.1789  -18.4023  -44.1033 N.am      9 UNK        -0.5000 
     30 C           0.5435  -18.5023  -45.3902 C.2       8 UNK         0.5000 
     31 O          -0.1698  -18.9974  -46.2604 O.2       8 UNK        -0.5000 
     32 CA          1.9679  -18.0459  -45.7530 C.3       8 UNK         0.1400 
     33 CB          2.0204  -16.5427  -46.0485 C.3       8 UNK        -0.1800 
     34 N           2.9270  -18.3792  -44.7013 N.am      8 UNK        -0.5000 
     35 C           3.3342  -19.6268  -44.4278 C.2       7 UNK         0.5000 
     36 O           2.9821  -20.6142  -45.0720 O.2       7 UNK        -0.5000 
     37 CA          4.2447  -19.8041  -43.1986 C.3       7 UNK         0.1400 
     38 CB          5.7105  -19.5317  -43.5669 C.3       7 UNK        -0.1800 
     39 N           3.8541  -18.9354  -42.0871 N.am      7 UNK        -0.5000 
     40 C           2.6961  -19.0330  -41.4178 C.2       6 UNK         0.5000 
     41 O           1.8708  -19.9224  -41.6182 O.2       6 UNK        -0.5000 
     42 CA          2.3846  -17.9237  -40.3937 C.3       6 UNK         0.1400 
     43 CB          2.8507  -18.3396  -38.9910 C.3       6 UNK        -0.1800 
     44 N           2.9909  -16.6364  -40.7456 N.am      6 UNK        -0.5000 
     45 C           2.6661  -15.9129  -41.8249 C.2       5 UNK         0.5000 
     46 O           1.7805  -16.2291  -42.6234 O.2       5 UNK        -0.5000 
     47 CA          3.5510  -14.6927  -42.1024 C.3       5 UNK         0.1400 
     48 CB          4.8328  -15.1414  -42.8354 C.3       5 UNK        -0.1800 
     49 N           2.8251  -13.7156  -42.9090 N.am      5 UNK        -0.5000 
     50 C           3.2202  -12.4517  -43.1117 C.2       4 UNK         0.5000 
     51 O           4.2235  -11.9581  -42.5943 O.2       4 UNK        -0.5000 
     52 CA          2.3619  -11.5867  -44.0490 C.3       4 UNK         0.1400 
     53 CB          2.7405  -11.8453  -45.5160 C.3       4 UNK        -0.1800 
     54 N           0.9280  -11.8050  -43.8610 N.am      4 UNK        -0.5000 
     55 C           0.2157  -11.2711  -42.8564 C.2       3 UNK         0.5000 
     56 O           0.7090  -10.5607  -41.9793 O.2       3 UNK        -0.5000 
     57 CA         -1.3018  -11.5474  -42.8222 C.3       3 UNK         0.1400 
     58 CB         -2.0775  -10.3494  -43.3908 C.3       3 UNK        -0.1800 
     59 N          -1.6887  -12.7480  -43.5591 N.am      3 UNK        -0.5000 
     60 C          -1.4373  -14.0006  -43.1565 C.2       2 UNK         0.5000 
     61 O          -0.9327  -14.2758  -42.0683 O.2       2 UNK        -0.5000 
     62 CA         -1.7942  -15.1367  -44.1357 C.3       2 UNK         0.1400 
     63 CB         -3.1286  -15.7841  -43.7334 C.3       2 UNK        -0.1800 
     64 N          -1.8858  -14.7317  -45.5407 N.am      2 UNK        -0.5000 
     65 C          -0.9202  -14.1567  -46.2736 C.2       1 UNK         0.5000 
     66 O           0.1826  -13.8500  -45.8242 O.2       1 UNK        -0.5000 
     67 C          -0.8296  -22.2333  -47.8982 C.2       11 UNK         0.5000 
     68 O          -1.2715  -23.0843  -48.6712 O.2       11 UNK        -0.5000 
     69 N          -1.5585  -21.2057  -47.4370 N.am      12 UNK        -0.5000 
     70 CA         -2.9712  -20.9867  -47.7528 C.3       12 UNK         0.1400 
     71 CB         -3.4379  -19.6469  -47.1678 C.3       12 UNK        -0.1800 
     72 C          -3.8765  -22.1302  -47.2631 C.2       12 UNK         0.5000 
     73 O          -4.7574  -22.5595  -48.0072 O.2       12 UNK        -0.5000 
     74 N          -3.6247  -22.6239  -46.0422 N.am      13 UNK        -0.5000 
     75 CA         -4.3219  -23.7647  -45.4476 C.3       13 UNK         0.1400 
     76 CB         -3.9316  -23.9024  -43.9688 C.3       13 UNK        -0.1800 
     77 C          -4.0720  -25.0790  -46.2097 C.2       13 UNK         0.5000 
     78 O          -5.0197  -25.8299  -46.4393 O.2       13 UNK        -0.5000 
     79 N          -2.8226  -25.3139  -46.6359 N.am      14 UNK        -0.5000 
     80 CA         -2.4251  -26.4494  -47.4742 C.3       14 UNK         0.1400 
     81 CB         -0.8936  -26.5021  -47.5791 C.3       14 UNK        -0.1800 
     82 C          -3.0702  -26.4152  -48.8739 C.2       14 UNK         0.5000 
     83 O          -3.4307  -27.4661  -49.4043 O.2       14 UNK        -0.5000 
     84 N          -3.2511  -25.2057  -49.4205 N.am      15 UNK        -0.5000 
     85 CA         -3.9871  -24.9354  -50.6576 C.3       15 UNK         0.1400 
     86 CB         -3.4904  -23.6022  -51.2418 C.3       15 UNK        -0.1800 
     87 C          -5.5212  -24.9143  -50.4679 C.2       15 UNK         0.5000 
     88 O          -6.2395  -24.6617  -51.4364 O.2       15 UNK        -0.5000 
     89 N          -6.0026  -25.1361  -49.2331 N.am      16 UNK        -0.5000 
     90 CA         -7.4048  -25.1361  -48.7936 C.3       16 UNK         0.1400 
     91 CB         -8.1528  -26.3408  -49.4007 C.3       16 UNK        -0.1800 
     92 C          -8.1369  -23.7993  -49.0450 C.2       16 UNK         0.5000 
     93 O          -9.3615  -23.7869  -49.1803 O.2       16 UNK        -0.5000 
     94 N          -7.3652  -22.7053  -49.1390 N.am      17 UNK        -0.5000 
     95 CA         -7.7571  -21.3499  -49.5385 C.3       17 UNK         0.1400 
     96 CB         -8.6488  -20.7067  -48.4574 C.3       17 UNK        -0.1800 
     97 C          -8.3794  -21.2582  -50.9531 C.2       17 UNK         0.5000 
     98 O          -9.0270  -20.2573  -51.2651 O.2       17 UNK        -0.5000 
     99 N          -8.1807  -22.2883  -51.7898 N.am      18 UNK        -0.5000 
    100 CA        -8.7584  -22.3886  -53.1312 C.3       18 UNK         0.1400 
    101 CB        -8.8334  -23.8698  -53.5323 C.3       18 UNK        -0.1800 
    102 C         -7.9709  -21.5859  -54.1814 C.2       18 UNK         0.5000 
    103 O         -8.5403  -21.2061  -55.2056 O.2       18 UNK        -0.5000 
    104 N         -6.6843  -21.3425  -53.9135 N.am      19 UNK        -0.5000 
    105 CA        -5.7573  -20.5990  -54.7553 C.3       19 UNK         0.1400 
    106 CB        -5.2718  -21.4909  -55.9148 C.3       19 UNK        -0.1800 
    107 C         -4.5771  -20.1330  -53.8926 C.2       19 UNK         0.5000 
    108 O         -4.3887  -20.6362  -52.7817 O.2       19 UNK        -0.5000 
    109 N         -3.7866  -19.1992  -54.4347 N.am      20 UNK        -0.5000 
    110 CA        -2.5432  -18.7164  -53.8281 C.3       20 UNK         0.1400 
    111 CB        -2.1799  -17.3619  -54.4563 C.3       20 UNK        -0.1800 
    112 C         -1.3732  -19.7089  -53.9816 C.2       20 UNK         0.5000 
    113 O         -0.3874  -19.5897  -53.2607 O.2       20 UNK        -0.5000 
    114 N         -1.4820  -20.6475  -54.9338 N.am      21 UNK        -0.5000 
    115 CA        -0.5272  -21.7054  -55.2972 C.3       21 UNK         0.1400 
    116 CB        -0.2284  -22.6316  -54.1013 C.3       21 UNK        -0.1800 
    117 C          0.7748  -21.2134  -55.9668 C.2       21 UNK         0.5000 
    118 O          1.3000  -21.9201  -56.8289 O.2       21 UNK        -0.5000 
    119 N          1.2681  -20.0278  -55.5910 N.am      22 UNK        -0.5000 
    120 CA         2.4030  -19.3408  -56.2229 C.3       22 UNK         0.1400 
    121 C          2.1283  -18.8846  -57.6871 C.2       22 UNK         0.5000 
    122 N          3.1711  -18.6864  -58.4831 N.am      22 UNK        -0.7600 
    123 O          0.9892  -18.6861  -58.1061 O.2       22 UNK        -0.5000 
    124 C124        2.9409  -18.1850  -55.3384 C.3       23 UNK        -0.0398 
    125 S125        1.7422  -16.8435  -55.0036 S.3       23 UNK        -0.2404 
    126 C126        2.3153  -16.2247  -53.3878 C.3       23 UNK        -0.0205 
    127 H127       -5.1779  -13.3359  -48.4714 H         1 UNK         0.0600 
    128 H128       -5.1125  -11.5827  -48.2685 H         1 UNK         0.0600 
    129 H129       -5.4986  -12.6182  -46.8898 H         1 UNK         0.0600 
    130 H130       -3.1494  -14.2609  -48.5856 H         1 UNK         0.3000 
    131 H131       -0.7545  -12.8913  -47.9733 H         1 UNK         0.0600 
    132 H132       -0.8583  -14.5808  -49.7441 H         1 UNK         0.0800 
    133 H133        0.3949  -14.9727  -48.6080 H         1 UNK         0.0800 
    134 H134       -2.0124  -18.1661  -50.1543 H         1 UNK         0.0800 
    135 H135       -1.9731  -16.5551  -50.8232 H         1 UNK         0.0800 
    136 H136       -0.0643  -15.9216  -52.1117 H         1 UNK         0.1150 
    137 H137        3.4615  -18.3497  -52.1181 H         1 UNK         0.1150 
    138 H138        0.2543  -19.2113  -49.3969 H         1 UNK         0.1150 
    139 H139        3.5389  -20.3669  -50.9201 H         1 UNK         0.0800 
    140 H140        3.3403  -19.7738  -49.2945 H         1 UNK         0.0800 
    141 H141        1.3163  -20.3693  -47.8148 H         1 UNK         0.0800 
    142 H142        2.5891  -21.5234  -47.5604 H         1 UNK         0.0800 
    143 H143        0.9411  -23.3912  -47.5822 H         1 UNK         0.0600 
    144 H144        1.2089  -21.4688  -45.5353 H         1 UNK         0.3000 
    145 H145       -0.7401  -23.0910  -43.0171 H         1 UNK         0.0600 
    146 H146        1.5150  -24.1527  -42.9749 H         1 UNK         0.0600 
    147 H147        2.2683  -22.6074  -43.3479 H         1 UNK         0.0600 
    148 H148        1.4167  -22.8296  -41.8220 H         1 UNK         0.0600 
    149 H149        0.7281  -20.6640  -42.9552 H         1 UNK         0.3000 
    150 H150       -1.8884  -18.5104  -44.1596 H         1 UNK         0.0600 
    151 H151       -1.0993  -17.3956  -42.0064 H         1 UNK         0.0600 
    152 H152       -0.5704  -18.9728  -41.4332 H         1 UNK         0.0600 
    153 H153       -2.2693  -18.6855  -41.7625 H         1 UNK         0.0600 
    154 H154        0.8079  -17.9444  -43.4545 H         1 UNK         0.3000 
    155 H155        2.2666  -18.5683  -46.6635 H         1 UNK         0.0600 
    156 H156        1.3510  -16.2925  -46.8707 H         1 UNK         0.0600 
    157 H157        3.0229  -16.2290  -46.3390 H         1 UNK         0.0600 
    158 H158        1.7185  -15.9469  -45.1884 H         1 UNK         0.0600 
    159 H159        3.2140  -17.6259  -44.0948 H         1 UNK         0.3000 
    160 H160        4.1604  -20.8412  -42.8668 H         1 UNK         0.0600 
    161 H161        6.0331  -20.1771  -44.3851 H         1 UNK         0.0600 
    162 H162        6.3716  -19.7255  -42.7220 H         1 UNK         0.0600 
    163 H163        5.8632  -18.4990  -43.8832 H         1 UNK         0.0600 
    164 H164        4.4869  -18.1874  -41.8472 H         1 UNK         0.3000 
    165 H165        1.3014  -17.7897  -40.3688 H         1 UNK         0.0600 
    166 H166        2.5697  -17.5958  -38.2452 H         1 UNK         0.0600 
    167 H167        2.3947  -19.2848  -38.6931 H         1 UNK         0.0600 
    168 H168        3.9329  -18.4688  -38.9468 H         1 UNK         0.0600 
    169 H169        3.7351  -16.3131  -40.1439 H         1 UNK         0.3000 
    170 H170        3.8142  -14.2340  -41.1470 H         1 UNK         0.0600 
    171 H171        5.5236  -14.3115  -42.9823 H         1 UNK         0.0600 
    172 H172        5.3702  -15.9013  -42.2671 H         1 UNK         0.0600 
    173 H173        4.6064  -15.5617  -43.8162 H         1 UNK         0.0600 
    174 H174        1.9702  -14.0570  -43.3306 H         1 UNK         0.3000 
    175 H175        2.5821  -10.5390  -43.8328 H         1 UNK         0.0600 
    176 H176        2.6244  -12.8952  -45.7867 H         1 UNK         0.0600 
    177 H177        2.1267  -11.2529  -46.1947 H         1 UNK         0.0600 
    178 H178        3.7816  -11.5773  -45.6996 H         1 UNK         0.0600 
    179 H179        0.4731  -12.4176  -44.5313 H         1 UNK         0.3000 
    180 H180       -1.5903  -11.6760  -41.7768 H         1 UNK         0.0600 
    181 H181       -3.1540  -10.5035  -43.3140 H         1 UNK         0.0600 
    182 H182       -1.8378  -10.1782  -44.4412 H         1 UNK         0.0600 
    183 H183       -1.8408   -9.4346  -42.8458 H         1 UNK         0.0600 
    184 H184       -2.1007  -12.6066  -44.4721 H         1 UNK         0.3000 
    185 H185       -1.0018  -15.8825  -44.0629 H         1 UNK         0.0600 
    186 H186       -3.1014  -16.1370  -42.7020 H         1 UNK         0.0600 
    187 H187       -3.9551  -15.0769  -43.8132 H         1 UNK         0.0600 
    188 H188       -3.3616  -16.6410  -44.3654 H         1 UNK         0.0600 
    189 H189       -2.7582  -14.9338  -46.0063 H         1 UNK         0.3000 
    190 H190       -1.1142  -20.5149  -46.8366 H         1 UNK         0.3000 
    191 H191       -3.0611  -20.9324  -48.8397 H         1 UNK         0.0600 
    192 H192       -3.3660  -19.6297  -46.0805 H         1 UNK         0.0600 
    193 H193       -4.4763  -19.4447  -47.4329 H         1 UNK         0.0600 
    194 H194       -2.8385  -18.8247  -47.5512 H         1 UNK         0.0600 
    195 H195       -2.9199  -22.1695  -45.4686 H         1 UNK         0.3000 
    196 H196       -5.3927  -23.5558  -45.4942 H         1 UNK         0.0600 
    197 H197       -4.4767  -24.7205  -43.4965 H         1 UNK         0.0600 
    198 H198       -4.1633  -22.9932  -43.4137 H         1 UNK         0.0600 
    199 H199       -2.8679  -24.1053  -43.8485 H         1 UNK         0.0600 
    200 H200       -2.0818  -24.6768  -46.3536 H         1 UNK         0.3000 
    201 H201       -2.7620  -27.3621  -46.9784 H         1 UNK         0.0600 
    202 H202       -0.4349  -26.6030  -46.5954 H         1 UNK         0.0600 
    203 H203       -0.4898  -25.6030  -48.0448 H         1 UNK         0.0600 
    204 H204       -0.5719  -27.3552  -48.1775 H         1 UNK         0.0600 
    205 H205       -2.8643  -24.3983  -48.9424 H         1 UNK         0.3000 
    206 H206       -3.7626  -25.7238  -51.3785 H         1 UNK         0.0600 
    207 H207       -3.9494  -23.4003  -52.2104 H         1 UNK         0.0600 
    208 H208       -3.7259  -22.7625  -50.5874 H         1 UNK         0.0600 
    209 H209       -2.4107  -23.6133  -51.3925 H         1 UNK         0.0600 
    210 H210       -5.3319  -25.3009  -48.4927 H         1 UNK         0.3000 
    211 H211       -7.3861  -25.2685  -47.7113 H         1 UNK         0.0600 
    212 H212       -8.2708  -26.2407  -50.4802 H         1 UNK         0.0600 
    213 H213       -9.1497  -26.4423  -48.9706 H         1 UNK         0.0600 
    214 H214       -7.6216  -27.2725  -49.2060 H         1 UNK         0.0600 
    215 H215       -6.3738  -22.8184  -48.9364 H         1 UNK         0.3000 
    216 H216       -6.8303  -20.7763  -49.5843 H         1 UNK         0.0600 
    217 H217       -8.8220  -19.6507  -48.6674 H         1 UNK         0.0600 
    218 H218       -8.1806  -20.7669  -47.4748 H         1 UNK         0.0600 
    219 H219       -9.6233  -21.1917  -48.3957 H         1 UNK         0.0600 
    220 H220       -7.6173  -23.0738  -51.4814 H         1 UNK         0.3000 
    221 H221       -9.7767  -21.9947  -53.1062 H         1 UNK         0.0600 
    222 H222       -7.8415  -24.3156  -53.6138 H         1 UNK         0.0600 
    223 H223       -9.4020  -24.4482  -52.8036 H         1 UNK         0.0600 
    224 H224       -9.3257  -23.9878  -54.4984 H         1 UNK         0.0600 
    225 H225       -6.2917  -21.6464  -53.0309 H         1 UNK         0.3000 
    226 H226       -6.2626  -19.7161  -55.1523 H         1 UNK         0.0600 
    227 H227       -6.1035  -21.8258  -56.5347 H         1 UNK         0.0600 
    228 H228       -4.5843  -20.9530  -56.5681 H         1 UNK         0.0600 
    229 H229       -4.7529  -22.3772  -55.5470 H         1 UNK         0.0600 
    230 H230       -4.0197  -18.8224  -55.3425 H         1 UNK         0.3000 
    231 H231       -2.7064  -18.5648  -52.7589 H         1 UNK         0.0600 
    232 H232       -2.0099  -17.4479  -55.5302 H         1 UNK         0.0600 
    233 H233       -2.9689  -16.6271  -54.2961 H         1 UNK         0.0600 
    234 H234       -1.2683  -16.9588  -54.0153 H         1 UNK         0.0600 
    235 H235       -2.3193  -20.6241  -55.4962 H         1 UNK         0.3000 
    236 H236       -1.0431  -22.3077  -56.0467 H         1 UNK         0.0600 
    237 H237        0.3283  -22.1202  -53.3154 H         1 UNK         0.0600 
    238 H238       -1.1482  -23.0190  -53.6630 H         1 UNK         0.0600 
    239 H239        0.3692  -23.4883  -54.4147 H         1 UNK         0.0600 
    240 H240        0.7937  -19.5302  -54.8447 H         1 UNK         0.3000 
    241 H241        3.2016  -20.0828  -56.2857 H         1 UNK         0.0600 
    242 H242        3.0106  -18.3822  -59.4311 H         1 UNK         0.3800 
    243 H243        4.1171  -18.8408  -58.1694 H         1 UNK         0.3800 
    244 H244        3.2778  -18.6047  -54.3919 H         1 UNK         0.0800 
    245 H245        3.8296  -17.7418  -55.7901 H         1 UNK         0.0800 
    246 H246        3.4059  -16.2095  -53.3590 H         1 UNK         0.0800 
    247 H247        1.9958  -15.1874  -53.2778 H         1 UNK         0.0800 
@<TRIPOS>BOND
     1    1    2 1    
     2    1  127 1    
     3    1  128 1    
     4    1  129 1    
     5    2    3 2    
     6    2    4 am   BACKBONE|DICT|INTERRES
     7    4    5 1    
     8    4  130 1    
     9    5    6 1    
    10    5   65 1    
    11    5  131 1    
    12    6    7 1    
    13    6  132 1    
    14    6  133 1    
    15    7    8 1    
    16    8    9 1    
    17    8  134 1    
    18    8  135 1    
    19    9   10 ar   
    20    9   14 ar   
    21   10   11 ar   
    22   10  136 1    
    23   11   12 ar   
    24   11  126 1    
    25   12   13 ar   
    26   12  137 1    
    27   13   14 ar   
    28   13   15 1    
    29   14  138 1    
    30   15   16 1    
    31   15  139 1    
    32   15  140 1    
    33   16   17 1    
    34   17   18 1    
    35   17  141 1    
    36   17  142 1    
    37   18   19 1    
    38   18   67 1    
    39   18  143 1    
    40   19   20 am   BACKBONE|DICT|INTERRES
    41   19  144 1    
    42   20   21 2    
    43   20   22 1    
    44   22   23 1    
    45   22   24 1    
    46   22  145 1    
    47   23  146 1    
    48   23  147 1    
    49   23  148 1    
    50   24   25 am   BACKBONE|DICT|INTERRES
    51   24  149 1    
    52   25   26 2    
    53   25   27 1    
    54   27   28 1    
    55   27   29 1    
    56   27  150 1    
    57   28  151 1    
    58   28  152 1    
    59   28  153 1    
    60   29   30 am   BACKBONE|DICT|INTERRES
    61   29  154 1    
    62   30   31 2    
    63   30   32 1    
    64   32   33 1    
    65   32   34 1    
    66   32  155 1    
    67   33  156 1    
    68   33  157 1    
    69   33  158 1    
    70   34   35 am   BACKBONE|DICT|INTERRES
    71   34  159 1    
    72   35   36 2    
    73   35   37 1    
    74   37   38 1    
    75   37   39 1    
    76   37  160 1    
    77   38  161 1    
    78   38  162 1    
    79   38  163 1    
    80   39   40 am   BACKBONE|DICT|INTERRES
    81   39  164 1    
    82   40   41 2    
    83   40   42 1    
    84   42   43 1    
    85   42   44 1    
    86   42  165 1    
    87   43  166 1    
    88   43  167 1    
    89   43  168 1    
    90   44   45 am   BACKBONE|DICT|INTERRES
    91   44  169 1    
    92   45   46 2    
    93   45   47 1    
    94   47   48 1    
    95   47   49 1    
    96   47  170 1    
    97   48  171 1    
    98   48  172 1    
    99   48  173 1    
   100   49   50 am   BACKBONE|DICT|INTERRES
   101   49  174 1    
   102   50   51 2    
   103   50   52 1    
   104   52   53 1    
   105   52   54 1    
   106   52  175 1    
   107   53  176 1    
   108   53  177 1    
   109   53  178 1    
   110   54   55 am   BACKBONE|DICT|INTERRES
   111   54  179 1    
   112   55   56 2    
   113   55   57 1    
   114   57   58 1    
   115   57   59 1    
   116   57  180 1    
   117   58  181 1    
   118   58  182 1    
   119   58  183 1    
   120   59   60 am   BACKBONE|DICT|INTERRES
   121   59  184 1    
   122   60   61 2    
   123   60   62 1    
   124   62   63 1    
   125   62   64 1    
   126   62  185 1    
   127   63  186 1    
   128   63  187 1    
   129   63  188 1    
   130   64   65 am   BACKBONE|DICT|INTERRES
   131   64  189 1    
   132   65   66 2    
   133   67   68 2    
   134   67   69 am   BACKBONE|DICT|INTERRES
   135   69   70 1    
   136   69  190 1    
   137   70   71 1    
   138   70   72 1    
   139   70  191 1    
   140   71  192 1    
   141   71  193 1    
   142   71  194 1    
   143   72   73 2    
   144   72   74 am   BACKBONE|DICT|INTERRES
   145   74   75 1    
   146   74  195 1    
   147   75   76 1    
   148   75   77 1    
   149   75  196 1    
   150   76  197 1    
   151   76  198 1    
   152   76  199 1    
   153   77   78 2    
   154   77   79 am   BACKBONE|DICT|INTERRES
   155   79   80 1    
   156   79  200 1    
   157   80   81 1    
   158   80   82 1    
   159   80  201 1    
   160   81  202 1    
   161   81  203 1    
   162   81  204 1    
   163   82   83 2    
   164   82   84 am   BACKBONE|DICT|INTERRES
   165   84   85 1    
   166   84  205 1    
   167   85   86 1    
   168   85   87 1    
   169   85  206 1    
   170   86  207 1    
   171   86  208 1    
   172   86  209 1    
   173   87   88 2    
   174   87   89 am   BACKBONE|DICT|INTERRES
   175   89   90 1    
   176   89  210 1    
   177   90   91 1    
   178   90   92 1    
   179   90  211 1    
   180   91  212 1    
   181   91  213 1    
   182   91  214 1    
   183   92   93 2    
   184   92   94 am   BACKBONE|DICT|INTERRES
   185   94   95 1    
   186   94  215 1    
   187   95   96 1    
   188   95   97 1    
   189   95  216 1    
   190   96  217 1    
   191   96  218 1    
   192   96  219 1    
   193   97   98 2    
   194   97   99 am   BACKBONE|DICT|INTERRES
   195   99  100 1    
   196   99  220 1    
   197  100  101 1    
   198  100  102 1    
   199  100  221 1    
   200  101  222 1    
   201  101  223 1    
   202  101  224 1    
   203  102  103 2    
   204  102  104 am   BACKBONE|DICT|INTERRES
   205  104  105 1    
   206  104  225 1    
   207  105  106 1    
   208  105  107 1    
   209  105  226 1    
   210  106  227 1    
   211  106  228 1    
   212  106  229 1    
   213  107  108 2    
   214  107  109 am   BACKBONE|DICT|INTERRES
   215  109  110 1    
   216  109  230 1    
   217  110  111 1    
   218  110  112 1    
   219  110  231 1    
   220  111  232 1    
   221  111  233 1    
   222  111  234 1    
   223  112  113 2    
   224  112  114 am   BACKBONE|DICT|INTERRES
   225  114  115 1    
   226  114  235 1    
   227  115  116 1    
   228  115  117 1    
   229  115  236 1    
   230  116  237 1    
   231  116  238 1    
   232  116  239 1    
   233  117  118 2    
   234  117  119 am   BACKBONE|DICT|INTERRES
   235  119  120 1    
   236  119  240 1    
   237  120  121 1    
   238  120  124 1    
   239  120  241 1    
   240  121  122 am   BACKBONE|DICT|INTERRES
   241  121  123 2    
   242  122  242 1    
   243  122  243 1    
   244  124  125 1    
   245  124  244 1    
   246  124  245 1    
   247  125  126 1    
   248  126  246 1    
   249  126  247 1    
@<TRIPOS>SUBSTRUCTURE
     1 UNK         1 GROUP             0       ****    0 ROOT    
