@<TRIPOS>MOLECULE
3R540
247   249    1
SMALL
USER_CHARGES


@<TRIPOS>ATOM
      1 CA         -0.7882  -13.2883  -42.7535 C.3       0 UNK        -0.1800 
      2 C          -0.7628  -13.0374  -44.2535 C.2       0 UNK         0.5000 
      3 O          -1.6970  -12.4454  -44.7937 O.2       0 UNK        -0.5000 
      4 N           0.3074  -13.4839  -44.9217 N.am      1 UNK        -0.5000 
      5 CA          0.5273  -13.3833  -46.3700 C.3       1 UNK         0.1400 
      6 C6          1.7601  -14.2161  -46.8124 C.3       23 UNK        -0.0398 
      7 S7          1.5619  -14.9462  -48.4733 S.3       23 UNK        -0.2404 
      8 C8          0.6357  -16.4431  -48.0251 C.3       23 UNK        -0.0205 
      9 C9          0.2495  -17.2877  -49.2264 C.ar      23 UNK        -0.0193 
     10 C10        -0.7634  -16.8608  -50.0894 C.ar      23 UNK        -0.1150 
     11 C11        -1.1548  -17.6555  -51.1702 C.ar      23 UNK        -0.0193 
     12 C12        -0.5354  -18.8917  -51.3777 C.ar      23 UNK        -0.1150 
     13 C13         0.4745  -19.3305  -50.5172 C.ar      23 UNK        -0.0193 
     14 C14         0.8683  -18.5206  -49.4477 C.ar      23 UNK        -0.1150 
     15 C15         1.1358  -20.6828  -50.7363 C.3       23 UNK        -0.0205 
     16 S16         0.1219  -22.0464  -50.0843 S.3       23 UNK        -0.2404 
     17 C17         0.0130  -21.6040  -48.3156 C.3       23 UNK        -0.0398 
     18 CA         -0.3420  -22.8114  -47.4195 C.3       11 UNK         0.1400 
     19 N           0.0778  -22.6035  -46.0328 N.am      11 UNK        -0.5000 
     20 C           0.1417  -23.5704  -45.1079 C.2       10 UNK         0.5000 
     21 O          -0.1561  -24.7429  -45.3262 O.2       10 UNK        -0.5000 
     22 CA          0.5553  -23.1486  -43.6888 C.3       10 UNK         0.1400 
     23 CB          2.0650  -22.8770  -43.6088 C.3       10 UNK        -0.1800 
     24 N          -0.1867  -21.9757  -43.2308 N.am      10 UNK        -0.5000 
     25 C          -1.5095  -21.9551  -43.0142 C.2       9 UNK         0.5000 
     26 O          -2.2438  -22.9343  -43.1495 O.2       9 UNK        -0.5000 
     27 CA         -2.1151  -20.5978  -42.6215 C.3       9 UNK         0.1400 
     28 CB         -1.9686  -20.3503  -41.1128 C.3       9 UNK        -0.1800 
     29 N          -1.5065  -19.4915  -43.3602 N.am      9 UNK        -0.5000 
     30 C          -1.6922  -19.2727  -44.6702 C.2       8 UNK         0.5000 
     31 O          -2.3861  -19.9857  -45.3927 O.2       8 UNK        -0.5000 
     32 CA         -0.9345  -18.0855  -45.2882 C.3       8 UNK         0.1400 
     33 CB         -1.6483  -16.7667  -44.9511 C.3       8 UNK        -0.1800 
     34 N           0.4570  -18.0071  -44.8438 N.am      8 UNK        -0.5000 
     35 C           1.3696  -18.9799  -44.9838 C.2       7 UNK         0.5000 
     36 O           1.1646  -20.0206  -45.6068 O.2       7 UNK        -0.5000 
     37 CA          2.7276  -18.7818  -44.2823 C.3       7 UNK         0.1400 
     38 CB          3.7828  -18.3309  -45.3033 C.3       7 UNK        -0.1800 
     39 N           2.7083  -17.8247  -43.1724 N.am      7 UNK        -0.5000 
     40 C           1.9139  -17.8508  -42.0923 C.2       6 UNK         0.5000 
     41 O           1.0889  -18.7425  -41.8849 O.2       6 UNK        -0.5000 
     42 CA          2.0250  -16.6743  -41.0943 C.3       6 UNK         0.1400 
     43 CB          2.2716  -17.1911  -39.6674 C.3       6 UNK        -0.1800 
     44 N           3.0502  -15.6695  -41.4109 N.am      6 UNK        -0.5000 
     45 C           3.0461  -14.8332  -42.4572 C.2       5 UNK         0.5000 
     46 O           2.1778  -14.8416  -43.3308 O.2       5 UNK        -0.5000 
     47 CA          4.2259  -13.8488  -42.5378 C.3       5 UNK         0.1400 
     48 CB          4.7712  -13.7073  -43.9747 C.3       5 UNK        -0.1800 
     49 N           3.8856  -12.5516  -41.9436 N.am      5 UNK        -0.5000 
     50 C           3.0345  -11.6285  -42.4122 C.2       4 UNK         0.5000 
     51 O           2.4348  -11.7167  -43.4881 O.2       4 UNK        -0.5000 
     52 CA          2.8576  -10.3725  -41.5325 C.3       4 UNK         0.1400 
     53 CB          4.1281   -9.5070  -41.5568 C.3       4 UNK        -0.1800 
     54 N           1.7477   -9.5647  -42.0254 N.am      4 UNK        -0.5000 
     55 C           0.4531   -9.8049  -41.7978 C.2       3 UNK         0.5000 
     56 O           0.0407  -10.5404  -40.9007 O.2       3 UNK        -0.5000 
     57 CA         -0.5446   -9.1736  -42.7906 C.3       3 UNK         0.1400 
     58 CB         -0.7943   -7.6836  -42.4886 C.3       3 UNK        -0.1800 
     59 N          -0.1647   -9.4076  -44.1940 N.am      3 UNK        -0.5000 
     60 C           0.8773   -8.9104  -44.8809 C.2       2 UNK         0.5000 
     61 O           1.6285   -8.0341  -44.4492 O.2       2 UNK        -0.5000 
     62 CA          1.1771   -9.5890  -46.2269 C.3       2 UNK         0.1400 
     63 CB          2.5366   -9.1849  -46.8269 C.3       2 UNK        -0.1800 
     64 N           1.1455  -11.0348  -46.0260 N.am      2 UNK        -0.5000 
     65 C           0.6098  -11.9238  -46.8687 C.2       1 UNK         0.5000 
     66 O           0.1559  -11.6286  -47.9752 O.2       1 UNK        -0.5000 
     67 C          -1.8333  -23.1919  -47.5265 C.2       11 UNK         0.5000 
     68 O          -2.1797  -24.0225  -48.3671 O.2       11 UNK        -0.5000 
     69 N          -2.6912  -22.6225  -46.6661 N.am      12 UNK        -0.5000 
     70 CA         -4.1044  -22.9928  -46.5523 C.3       12 UNK         0.1400 
     71 CB         -4.8357  -22.0247  -45.6119 C.3       12 UNK        -0.1800 
     72 C          -4.3008  -24.4496  -46.0961 C.2       12 UNK         0.5000 
     73 O          -5.1626  -25.1406  -46.6380 O.2       12 UNK        -0.5000 
     74 N          -3.4827  -24.9000  -45.1370 N.am      13 UNK        -0.5000 
     75 CA         -3.4795  -26.2781  -44.6522 C.3       13 UNK         0.1400 
     76 CB         -2.7200  -26.3479  -43.3180 C.3       13 UNK        -0.1800 
     77 C          -2.8851  -27.2646  -45.6750 C.2       13 UNK         0.5000 
     78 O          -3.4702  -28.3231  -45.9076 O.2       13 UNK        -0.5000 
     79 N          -1.7260  -26.9136  -46.2468 N.am      14 UNK        -0.5000 
     80 CA         -0.9301  -27.8007  -47.0932 C.3       14 UNK         0.1400 
     81 CB          0.5318  -27.3267  -47.0890 C.3       14 UNK        -0.1800 
     82 C          -1.4380  -27.9182  -48.5393 C.2       14 UNK         0.5000 
     83 O          -1.3829  -29.0141  -49.0996 O.2       14 UNK        -0.5000 
     84 N          -1.8714  -26.7992  -49.1347 N.am      15 UNK        -0.5000 
     85 CA         -2.1054  -26.6873  -50.5776 C.3       15 UNK         0.1400 
     86 CB         -0.8761  -26.0152  -51.2177 C.3       15 UNK        -0.1800 
     87 C          -3.3947  -25.9296  -50.9331 C.2       15 UNK         0.5000 
     88 O          -3.6018  -25.6366  -52.1117 O.2       15 UNK        -0.5000 
     89 N          -4.2232  -25.5918  -49.9335 N.am      16 UNK        -0.5000 
     90 CA         -5.4493  -24.7920  -50.0534 C.3       16 UNK         0.1400 
     91 CB         -6.5396  -25.5790  -50.8112 C.3       16 UNK        -0.1800 
     92 C          -5.1917  -23.3919  -50.6518 C.2       16 UNK         0.5000 
     93 O          -5.9707  -22.9285  -51.4833 O.2       16 UNK        -0.5000 
     94 N          -4.0775  -22.7620  -50.2459 N.am      17 UNK        -0.5000 
     95 CA         -3.5629  -21.4813  -50.7521 C.3       17 UNK         0.1400 
     96 CB         -4.5140  -20.3178  -50.4046 C.3       17 UNK        -0.1800 
     97 C          -3.2121  -21.5609  -52.2536 C.2       17 UNK         0.5000 
     98 O          -3.5649  -20.6706  -53.0303 O.2       17 UNK        -0.5000 
     99 N          -2.5510  -22.6686  -52.6236 N.am      18 UNK        -0.5000 
    100 CA        -2.2064  -23.0942  -53.9820 C.3       18 UNK         0.1400 
    101 CB        -1.1502  -22.1574  -54.5995 C.3       18 UNK        -0.1800 
    102 C         -3.4685  -23.2599  -54.8507 C.2       18 UNK         0.5000 
    103 O         -3.6332  -22.5620  -55.8534 O.2       18 UNK        -0.5000 
    104 N         -4.3633  -24.1513  -54.3969 N.am      19 UNK        -0.5000 
    105 CA        -5.6656  -24.4931  -54.9856 C.3       19 UNK         0.1400 
    106 CB        -5.4645  -25.2787  -56.2976 C.3       19 UNK        -0.1800 
    107 C         -6.5978  -23.2730  -55.1577 C.2       19 UNK         0.5000 
    108 O         -7.3381  -23.1906  -56.1391 O.2       19 UNK        -0.5000 
    109 N         -6.5005  -22.3273  -54.2127 N.am      20 UNK        -0.5000 
    110 CA        -7.1387  -21.0087  -54.1570 C.3       20 UNK         0.1400 
    111 CB        -8.6690  -21.1515  -54.0330 C.3       20 UNK        -0.1800 
    112 C         -6.7355  -20.0415  -55.2938 C.2       20 UNK         0.5000 
    113 O         -7.3044  -18.9518  -55.3804 O.2       20 UNK        -0.5000 
    114 N         -5.7706  -20.4287  -56.1390 N.am      21 UNK        -0.5000 
    115 CA        -5.3057  -19.6475  -57.2832 C.3       21 UNK         0.1400 
    116 CB        -4.9177  -20.6091  -58.4175 C.3       21 UNK        -0.1800 
    117 C         -4.1222  -18.7348  -56.9236 C.2       21 UNK         0.5000 
    118 O         -3.8814  -17.7622  -57.6400 O.2       21 UNK        -0.5000 
    119 N         -3.4058  -19.0546  -55.8357 N.am      22 UNK        -0.5000 
    120 CA        -2.2121  -18.3358  -55.3608 C.3       22 UNK         0.1400 
    121 C         -0.9754  -18.4382  -56.3111 C.2       22 UNK         0.5000 
    122 N         -0.8958  -19.4474  -57.1710 N.am      22 UNK        -0.7600 
    123 O         -0.0659  -17.6149  -56.2658 O.2       22 UNK        -0.5000 
    124 C124       -2.5515  -16.8871  -54.9024 C.3       23 UNK        -0.0398 
    125 S125       -1.4923  -16.3082  -53.5364 S.3       23 UNK        -0.2404 
    126 C126       -2.2369  -17.1759  -52.1213 C.3       23 UNK        -0.0205 
    127 H127        0.2092  -13.1999  -42.3231 H         1 UNK         0.0600 
    128 H128       -1.1675  -14.2884  -42.5453 H         1 UNK         0.0600 
    129 H129       -1.4337  -12.5656  -42.2545 H         1 UNK         0.0600 
    130 H130        1.0561  -13.9242  -44.3871 H         1 UNK         0.3000 
    131 H131       -0.3651  -13.8147  -46.8276 H         1 UNK         0.0600 
    132 H132        2.6739  -13.6194  -46.7925 H         1 UNK         0.0800 
    133 H133        1.9413  -15.0339  -46.1131 H         1 UNK         0.0800 
    134 H134       -0.2738  -16.1522  -47.5027 H         1 UNK         0.0800 
    135 H135        1.2318  -17.0298  -47.3263 H         1 UNK         0.0800 
    136 H136       -1.2425  -15.9062  -49.9215 H         1 UNK         0.1150 
    137 H137       -0.8376  -19.5121  -52.2100 H         1 UNK         0.1150 
    138 H138        1.6444  -18.8595  -48.7756 H         1 UNK         0.1150 
    139 H139        1.2975  -20.8419  -51.8034 H         1 UNK         0.0800 
    140 H140        2.1223  -20.7092  -50.2709 H         1 UNK         0.0800 
    141 H141        0.9884  -21.2131  -48.0232 H         1 UNK         0.0800 
    142 H142       -0.6944  -20.7835  -48.1794 H         1 UNK         0.0800 
    143 H143        0.2276  -23.6701  -47.7826 H         1 UNK         0.0600 
    144 H144        0.3641  -21.6590  -45.7822 H         1 UNK         0.3000 
    145 H145        0.3238  -23.9755  -43.0140 H         1 UNK         0.0600 
    146 H146        2.3638  -22.5987  -42.5980 H         1 UNK         0.0600 
    147 H147        2.3713  -22.0771  -44.2824 H         1 UNK         0.0600 
    148 H148        2.6329  -23.7672  -43.8821 H         1 UNK         0.0600 
    149 H149        0.3329  -21.1185  -43.1094 H         1 UNK         0.3000 
    150 H150       -3.1806  -20.6243  -42.8595 H         1 UNK         0.0600 
    151 H151       -2.4449  -21.1468  -40.5396 H         1 UNK         0.0600 
    152 H152       -2.4402  -19.4122  -40.8197 H         1 UNK         0.0600 
    153 H153       -0.9220  -20.3083  -40.8091 H         1 UNK         0.0600 
    154 H154       -0.8491  -18.9131  -42.8512 H         1 UNK         0.3000 
    155 H155       -0.9369  -18.2225  -46.3710 H         1 UNK         0.0600 
    156 H156       -2.6759  -16.7753  -45.3167 H         1 UNK         0.0600 
    157 H157       -1.1506  -15.9127  -45.4065 H         1 UNK         0.0600 
    158 H158       -1.6843  -16.5905  -43.8753 H         1 UNK         0.0600 
    159 H159        0.7205  -17.1885  -44.3148 H         1 UNK         0.3000 
    160 H160        3.0283  -19.7484  -43.8750 H         1 UNK         0.0600 
    161 H161        3.5486  -17.3484  -45.7161 H         1 UNK         0.0600 
    162 H162        3.8456  -19.0309  -46.1378 H         1 UNK         0.0600 
    163 H163        4.7734  -18.2781  -44.8512 H         1 UNK         0.0600 
    164 H164        3.3265  -17.0328  -43.2626 H         1 UNK         0.3000 
    165 H165        1.0571  -16.1691  -41.1063 H         1 UNK         0.0600 
    166 H166        2.2659  -16.3747  -38.9450 H         1 UNK         0.0600 
    167 H167        1.4957  -17.8943  -39.3615 H         1 UNK         0.0600 
    168 H168        3.2302  -17.7053  -39.5875 H         1 UNK         0.0600 
    169 H169        3.8108  -15.6044  -40.7496 H         1 UNK         0.3000 
    170 H170        5.0387  -14.2534  -41.9326 H         1 UNK         0.0600 
    171 H171        4.0161  -13.3511  -44.6750 H         1 UNK         0.0600 
    172 H172        5.6118  -13.0145  -44.0100 H         1 UNK         0.0600 
    173 H173        5.1254  -14.6685  -44.3489 H         1 UNK         0.0600 
    174 H174        4.3199  -12.3719  -41.0491 H         1 UNK         0.3000 
    175 H175        2.6547  -10.6858  -40.5065 H         1 UNK         0.0600 
    176 H176        4.3821   -9.1960  -42.5713 H         1 UNK         0.0600 
    177 H177        4.0024   -8.6075  -40.9538 H         1 UNK         0.0600 
    178 H178        4.9853  -10.0474  -41.1541 H         1 UNK         0.0600 
    179 H179        1.9573   -8.9649  -42.8179 H         1 UNK         0.3000 
    180 H180       -1.4935   -9.6953  -42.6556 H         1 UNK         0.0600 
    181 H181        0.1200   -7.0923  -42.5376 H         1 UNK         0.0600 
    182 H182       -1.2048   -7.5582  -41.4861 H         1 UNK         0.0600 
    183 H183       -1.5103   -7.2542  -43.1893 H         1 UNK         0.0600 
    184 H184       -0.6830  -10.1519  -44.6432 H         1 UNK         0.3000 
    185 H185        0.3859   -9.2837  -46.9147 H         1 UNK         0.0600 
    186 H186        3.3610   -9.4536  -46.1651 H         1 UNK         0.0600 
    187 H187        2.7043   -9.6748  -47.7861 H         1 UNK         0.0600 
    188 H188        2.5857   -8.1090  -46.9988 H         1 UNK         0.0600 
    189 H189        1.4992  -11.3621  -45.1274 H         1 UNK         0.3000 
    190 H190       -2.3642  -21.8923  -46.0414 H         1 UNK         0.3000 
    191 H191       -4.5581  -22.8938  -47.5386 H         1 UNK         0.0600 
    192 H192       -4.8085  -21.0060  -45.9985 H         1 UNK         0.0600 
    193 H193       -4.3947  -22.0188  -44.6153 H         1 UNK         0.0600 
    194 H194       -5.8855  -22.3007  -45.5050 H         1 UNK         0.0600 
    195 H195       -2.8240  -24.2603  -44.7070 H         1 UNK         0.3000 
    196 H196       -4.5128  -26.5771  -44.4631 H         1 UNK         0.0600 
    197 H197       -3.1876  -25.7114  -42.5665 H         1 UNK         0.0600 
    198 H198       -1.6829  -26.0283  -43.4245 H         1 UNK         0.0600 
    199 H199       -2.7125  -27.3652  -42.9248 H         1 UNK         0.0600 
    200 H200       -1.2834  -26.0408  -45.9657 H         1 UNK         0.3000 
    201 H201       -0.9518  -28.8011  -46.6554 H         1 UNK         0.0600 
    202 H202        0.9384  -27.3112  -46.0776 H         1 UNK         0.0600 
    203 H203        0.6306  -26.3231  -47.5047 H         1 UNK         0.0600 
    204 H204        1.1613  -27.9912  -47.6822 H         1 UNK         0.0600 
    205 H205       -1.8914  -25.9262  -48.6150 H         1 UNK         0.3000 
    206 H206       -2.2213  -27.6771  -51.0228 H         1 UNK         0.0600 
    207 H207        0.0332  -26.5796  -51.0111 H         1 UNK         0.0600 
    208 H208       -0.7326  -25.0025  -50.8390 H         1 UNK         0.0600 
    209 H209       -0.9743  -25.9533  -52.3020 H         1 UNK         0.0600 
    210 H210       -3.9659  -25.8606  -48.9940 H         1 UNK         0.3000 
    211 H211       -5.8200  -24.6204  -49.0444 H         1 UNK         0.0600 
    212 H212       -6.2700  -25.7497  -51.8533 H         1 UNK         0.0600 
    213 H213       -7.4877  -25.0399  -50.8039 H         1 UNK         0.0600 
    214 H214       -6.7167  -26.5495  -50.3480 H         1 UNK         0.0600 
    215 H215       -3.4726  -23.2513  -49.5920 H         1 UNK         0.3000 
    216 H216       -2.6292  -21.2927  -50.2246 H         1 UNK         0.0600 
    217 H217       -4.0605  -19.3589  -50.6571 H         1 UNK         0.0600 
    218 H218       -4.7378  -20.2989  -49.3379 H         1 UNK         0.0600 
    219 H219       -5.4579  -20.3837  -50.9458 H         1 UNK         0.0600 
    220 H220       -2.3528  -23.3467  -51.9028 H         1 UNK         0.3000 
    221 H221       -1.7558  -24.0838  -53.8951 H         1 UNK         0.0600 
    222 H222       -1.5368  -21.1512  -54.7426 H         1 UNK         0.0600 
    223 H223       -0.2659  -22.0887  -53.9658 H         1 UNK         0.0600 
    224 H224       -0.8271  -22.5238  -55.5744 H         1 UNK         0.0600 
    225 H225       -4.1284  -24.6594  -53.5447 H         1 UNK         0.3000 
    226 H226       -6.1598  -25.1553  -54.2738 H         1 UNK         0.0600 
    227 H227       -4.8178  -26.1425  -56.1439 H         1 UNK         0.0600 
    228 H228       -6.4146  -25.6511  -56.6822 H         1 UNK         0.0600 
    229 H229       -5.0166  -24.6580  -57.0745 H         1 UNK         0.0600 
    230 H230       -5.9182  -22.5360  -53.4069 H         1 UNK         0.3000 
    231 H231       -6.7753  -20.5499  -53.2364 H         1 UNK         0.0600 
    232 H232       -9.1386  -20.1871  -53.8363 H         1 UNK         0.0600 
    233 H233       -8.9361  -21.8139  -53.2094 H         1 UNK         0.0600 
    234 H234       -9.1144  -21.5507  -54.9445 H         1 UNK         0.0600 
    235 H235       -5.3132  -21.3214  -55.9890 H         1 UNK         0.3000 
    236 H236       -6.1158  -19.0122  -57.6474 H         1 UNK         0.0600 
    237 H237       -4.0824  -21.2512  -58.1373 H         1 UNK         0.0600 
    238 H238       -5.7547  -21.2509  -58.6932 H         1 UNK         0.0600 
    239 H239       -4.6214  -20.0585  -59.3112 H         1 UNK         0.0600 
    240 H240       -3.6770  -19.8650  -55.2927 H         1 UNK         0.3000 
    241 H241       -1.9088  -18.8915  -54.4747 H         1 UNK         0.0600 
    242 H242       -0.0965  -19.5160  -57.7809 H         1 UNK         0.3800 
    243 H243       -1.6276  -20.1379  -57.2216 H         1 UNK         0.3800 
    244 H244       -3.5858  -16.8259  -54.5603 H         1 UNK         0.0800 
    245 H245       -2.4753  -16.1875  -55.7363 H         1 UNK         0.0800 
    246 H246       -2.8299  -18.0276  -52.4573 H         1 UNK         0.0800 
    247 H247       -2.9296  -16.5055  -51.6105 H         1 UNK         0.0800 
@<TRIPOS>BOND
     1    1    2 1    
     2    1  127 1    
     3    1  128 1    
     4    1  129 1    
     5    2    3 2    
     6    2    4 am   BACKBONE|DICT|INTERRES
     7    4    5 1    
     8    4  130 1    
     9    5    6 1    
    10    5   65 1    
    11    5  131 1    
    12    6    7 1    
    13    6  132 1    
    14    6  133 1    
    15    7    8 1    
    16    8    9 1    
    17    8  134 1    
    18    8  135 1    
    19    9   10 ar   
    20    9   14 ar   
    21   10   11 ar   
    22   10  136 1    
    23   11   12 ar   
    24   11  126 1    
    25   12   13 ar   
    26   12  137 1    
    27   13   14 ar   
    28   13   15 1    
    29   14  138 1    
    30   15   16 1    
    31   15  139 1    
    32   15  140 1    
    33   16   17 1    
    34   17   18 1    
    35   17  141 1    
    36   17  142 1    
    37   18   19 1    
    38   18   67 1    
    39   18  143 1    
    40   19   20 am   BACKBONE|DICT|INTERRES
    41   19  144 1    
    42   20   21 2    
    43   20   22 1    
    44   22   23 1    
    45   22   24 1    
    46   22  145 1    
    47   23  146 1    
    48   23  147 1    
    49   23  148 1    
    50   24   25 am   BACKBONE|DICT|INTERRES
    51   24  149 1    
    52   25   26 2    
    53   25   27 1    
    54   27   28 1    
    55   27   29 1    
    56   27  150 1    
    57   28  151 1    
    58   28  152 1    
    59   28  153 1    
    60   29   30 am   BACKBONE|DICT|INTERRES
    61   29  154 1    
    62   30   31 2    
    63   30   32 1    
    64   32   33 1    
    65   32   34 1    
    66   32  155 1    
    67   33  156 1    
    68   33  157 1    
    69   33  158 1    
    70   34   35 am   BACKBONE|DICT|INTERRES
    71   34  159 1    
    72   35   36 2    
    73   35   37 1    
    74   37   38 1    
    75   37   39 1    
    76   37  160 1    
    77   38  161 1    
    78   38  162 1    
    79   38  163 1    
    80   39   40 am   BACKBONE|DICT|INTERRES
    81   39  164 1    
    82   40   41 2    
    83   40   42 1    
    84   42   43 1    
    85   42   44 1    
    86   42  165 1    
    87   43  166 1    
    88   43  167 1    
    89   43  168 1    
    90   44   45 am   BACKBONE|DICT|INTERRES
    91   44  169 1    
    92   45   46 2    
    93   45   47 1    
    94   47   48 1    
    95   47   49 1    
    96   47  170 1    
    97   48  171 1    
    98   48  172 1    
    99   48  173 1    
   100   49   50 am   BACKBONE|DICT|INTERRES
   101   49  174 1    
   102   50   51 2    
   103   50   52 1    
   104   52   53 1    
   105   52   54 1    
   106   52  175 1    
   107   53  176 1    
   108   53  177 1    
   109   53  178 1    
   110   54   55 am   BACKBONE|DICT|INTERRES
   111   54  179 1    
   112   55   56 2    
   113   55   57 1    
   114   57   58 1    
   115   57   59 1    
   116   57  180 1    
   117   58  181 1    
   118   58  182 1    
   119   58  183 1    
   120   59   60 am   BACKBONE|DICT|INTERRES
   121   59  184 1    
   122   60   61 2    
   123   60   62 1    
   124   62   63 1    
   125   62   64 1    
   126   62  185 1    
   127   63  186 1    
   128   63  187 1    
   129   63  188 1    
   130   64   65 am   BACKBONE|DICT|INTERRES
   131   64  189 1    
   132   65   66 2    
   133   67   68 2    
   134   67   69 am   BACKBONE|DICT|INTERRES
   135   69   70 1    
   136   69  190 1    
   137   70   71 1    
   138   70   72 1    
   139   70  191 1    
   140   71  192 1    
   141   71  193 1    
   142   71  194 1    
   143   72   73 2    
   144   72   74 am   BACKBONE|DICT|INTERRES
   145   74   75 1    
   146   74  195 1    
   147   75   76 1    
   148   75   77 1    
   149   75  196 1    
   150   76  197 1    
   151   76  198 1    
   152   76  199 1    
   153   77   78 2    
   154   77   79 am   BACKBONE|DICT|INTERRES
   155   79   80 1    
   156   79  200 1    
   157   80   81 1    
   158   80   82 1    
   159   80  201 1    
   160   81  202 1    
   161   81  203 1    
   162   81  204 1    
   163   82   83 2    
   164   82   84 am   BACKBONE|DICT|INTERRES
   165   84   85 1    
   166   84  205 1    
   167   85   86 1    
   168   85   87 1    
   169   85  206 1    
   170   86  207 1    
   171   86  208 1    
   172   86  209 1    
   173   87   88 2    
   174   87   89 am   BACKBONE|DICT|INTERRES
   175   89   90 1    
   176   89  210 1    
   177   90   91 1    
   178   90   92 1    
   179   90  211 1    
   180   91  212 1    
   181   91  213 1    
   182   91  214 1    
   183   92   93 2    
   184   92   94 am   BACKBONE|DICT|INTERRES
   185   94   95 1    
   186   94  215 1    
   187   95   96 1    
   188   95   97 1    
   189   95  216 1    
   190   96  217 1    
   191   96  218 1    
   192   96  219 1    
   193   97   98 2    
   194   97   99 am   BACKBONE|DICT|INTERRES
   195   99  100 1    
   196   99  220 1    
   197  100  101 1    
   198  100  102 1    
   199  100  221 1    
   200  101  222 1    
   201  101  223 1    
   202  101  224 1    
   203  102  103 2    
   204  102  104 am   BACKBONE|DICT|INTERRES
   205  104  105 1    
   206  104  225 1    
   207  105  106 1    
   208  105  107 1    
   209  105  226 1    
   210  106  227 1    
   211  106  228 1    
   212  106  229 1    
   213  107  108 2    
   214  107  109 am   BACKBONE|DICT|INTERRES
   215  109  110 1    
   216  109  230 1    
   217  110  111 1    
   218  110  112 1    
   219  110  231 1    
   220  111  232 1    
   221  111  233 1    
   222  111  234 1    
   223  112  113 2    
   224  112  114 am   BACKBONE|DICT|INTERRES
   225  114  115 1    
   226  114  235 1    
   227  115  116 1    
   228  115  117 1    
   229  115  236 1    
   230  116  237 1    
   231  116  238 1    
   232  116  239 1    
   233  117  118 2    
   234  117  119 am   BACKBONE|DICT|INTERRES
   235  119  120 1    
   236  119  240 1    
   237  120  121 1    
   238  120  124 1    
   239  120  241 1    
   240  121  122 am   BACKBONE|DICT|INTERRES
   241  121  123 2    
   242  122  242 1    
   243  122  243 1    
   244  124  125 1    
   245  124  244 1    
   246  124  245 1    
   247  125  126 1    
   248  126  246 1    
   249  126  247 1    
@<TRIPOS>SUBSTRUCTURE
     1 UNK         1 GROUP             0       ****    0 ROOT    
