@<TRIPOS>MOLECULE
3R540
247   249    1
SMALL
USER_CHARGES


@<TRIPOS>ATOM
      1 CA         -3.2560  -13.3216  -47.6954 C.3       0 UNK        -0.1800 
      2 C          -2.0500  -12.6730  -48.3609 C.2       0 UNK         0.5000 
      3 O          -2.1699  -11.5857  -48.9264 O.2       0 UNK        -0.5000 
      4 N          -0.8940  -13.3422  -48.3021 N.am      1 UNK        -0.5000 
      5 CA          0.3883  -12.8645  -48.8227 C.3       1 UNK         0.1400 
      6 C6          1.3922  -14.0274  -49.0417 C.3       23 UNK        -0.0398 
      7 S7          1.6365  -15.0799  -47.5654 S.3       23 UNK        -0.2404 
      8 C8          2.1728  -16.6567  -48.3094 C.3       23 UNK        -0.0205 
      9 C9          1.1097  -17.4757  -49.0465 C.ar      23 UNK        -0.0193 
     10 C10        -0.2049  -17.0371  -49.2589 C.ar      23 UNK        -0.1150 
     11 C11        -1.1145  -17.8098  -49.9895 C.ar      23 UNK        -0.0193 
     12 C12        -0.7106  -19.0532  -50.4806 C.ar      23 UNK        -0.1150 
     13 C13         0.5792  -19.5288  -50.2357 C.ar      23 UNK        -0.0193 
     14 C14         1.4837  -18.7304  -49.5327 C.ar      23 UNK        -0.1150 
     15 C15         0.9931  -20.9170  -50.7013 C.3       23 UNK        -0.0205 
     16 S16         0.0704  -22.2434  -49.8562 S.3       23 UNK        -0.2404 
     17 C17         0.0726  -21.6868  -48.1135 C.3       23 UNK        -0.0398 
     18 CA         -0.2974  -22.8091  -47.1177 C.3       11 UNK         0.1400 
     19 N           0.0535  -22.4494  -45.7415 N.am      11 UNK        -0.5000 
     20 C           0.0456  -23.3074  -44.7117 C.2       10 UNK         0.5000 
     21 O          -0.2202  -24.5032  -44.8215 O.2       10 UNK        -0.5000 
     22 CA          0.3168  -22.7233  -43.3156 C.3       10 UNK         0.1400 
     23 CB          1.8174  -22.4742  -43.1044 C.3       10 UNK        -0.1800 
     24 N          -0.4377  -21.4927  -43.0780 N.am      10 UNK        -0.5000 
     25 C          -1.7764  -21.4250  -43.0469 C.2       9 UNK         0.5000 
     26 O          -2.5088  -22.4096  -43.1486 O.2       9 UNK        -0.5000 
     27 CA         -2.4053  -20.0248  -42.9228 C.3       9 UNK         0.1400 
     28 CB         -2.4491  -19.5786  -41.4543 C.3       9 UNK        -0.1800 
     29 N          -1.7193  -19.0121  -43.7283 N.am      9 UNK        -0.5000 
     30 C          -1.6361  -19.0260  -45.0669 C.2       8 UNK         0.5000 
     31 O          -2.1527  -19.8890  -45.7740 O.2       8 UNK        -0.5000 
     32 CA         -0.7853  -17.9261  -45.7264 C.3       8 UNK         0.1400 
     33 CB         -1.5535  -16.5980  -45.8017 C.3       8 UNK        -0.1800 
     34 N           0.4900  -17.7294  -45.0387 N.am      8 UNK        -0.5000 
     35 C           1.4449  -18.6667  -44.9477 C.2       7 UNK         0.5000 
     36 O           1.3811  -19.7685  -45.4958 O.2       7 UNK        -0.5000 
     37 CA          2.6397  -18.3401  -44.0362 C.3       7 UNK         0.1400 
     38 CB          3.6837  -17.4809  -44.7665 C.3       7 UNK        -0.1800 
     39 N           2.2114  -17.6708  -42.8063 N.am      7 UNK        -0.5000 
     40 C           1.5379  -18.2792  -41.8182 C.2       6 UNK         0.5000 
     41 O           1.2448  -19.4734  -41.8305 O.2       6 UNK        -0.5000 
     42 CA          1.0842  -17.4066  -40.6331 C.3       6 UNK         0.1400 
     43 CB          2.1986  -17.3075  -39.5810 C.3       6 UNK        -0.1800 
     44 N           0.6831  -16.0601  -41.0380 N.am      6 UNK        -0.5000 
     45 C          -0.3695  -15.7735  -41.8183 C.2       5 UNK         0.5000 
     46 O          -1.1593  -16.6181  -42.2365 O.2       5 UNK        -0.5000 
     47 CA         -0.5253  -14.3020  -42.2502 C.3       5 UNK         0.1400 
     48 CB         -1.3966  -13.5319  -41.2473 C.3       5 UNK        -0.1800 
     49 N           0.7675  -13.6254  -42.3965 N.am      5 UNK        -0.5000 
     50 C           1.6861  -13.9682  -43.3081 C.2       4 UNK         0.5000 
     51 O           1.5078  -14.8397  -44.1619 O.2       4 UNK        -0.5000 
     52 CA          3.0625  -13.3100  -43.1740 C.3       4 UNK         0.1400 
     53 CB          3.9563  -14.1865  -42.2699 C.3       4 UNK        -0.1800 
     54 N           3.6398  -13.1575  -44.5056 N.am      4 UNK        -0.5000 
     55 C           4.7964  -12.5502  -44.7970 C.2       3 UNK         0.5000 
     56 O           5.5498  -12.0554  -43.9575 O.2       3 UNK        -0.5000 
     57 CA          5.1561  -12.4447  -46.2895 C.3       3 UNK         0.1400 
     58 CB          5.4140  -13.8320  -46.9018 C.3       3 UNK        -0.1800 
     59 N           4.1278  -11.7485  -47.0639 N.am      3 UNK        -0.5000 
     60 C           3.7637  -10.4669  -46.8977 C.2       2 UNK         0.5000 
     61 O           4.2817   -9.7105  -46.0754 O.2       2 UNK        -0.5000 
     62 CA          2.6492   -9.9197  -47.8151 C.3       2 UNK         0.1400 
     63 CB          3.2376   -8.9628  -48.8643 C.3       2 UNK        -0.1800 
     64 N           1.8922  -10.9653  -48.5074 N.am      2 UNK        -0.5000 
     65 C           0.9916  -11.7651  -47.9225 C.2       1 UNK         0.5000 
     66 O           0.6780  -11.6827  -46.7319 O.2       1 UNK        -0.5000 
     67 C          -1.7765  -23.2401  -47.2426 C.2       11 UNK         0.5000 
     68 O          -2.0632  -24.2092  -47.9462 O.2       11 UNK        -0.5000 
     69 N          -2.6900  -22.5523  -46.5410 N.am      12 UNK        -0.5000 
     70 CA         -4.1125  -22.8969  -46.4568 C.3       12 UNK         0.1400 
     71 CB         -4.8781  -21.8224  -45.6718 C.3       12 UNK        -0.1800 
     72 C          -4.3577  -24.2974  -45.8704 C.2       12 UNK         0.5000 
     73 O          -5.1916  -25.0353  -46.3952 O.2       12 UNK        -0.5000 
     74 N          -3.6037  -24.6475  -44.8220 N.am      13 UNK        -0.5000 
     75 CA         -3.6371  -25.9628  -44.1909 C.3       13 UNK         0.1400 
     76 CB         -2.9687  -25.8790  -42.8093 C.3       13 UNK        -0.1800 
     77 C          -2.9788  -27.0555  -45.0545 C.2       13 UNK         0.5000 
     78 O          -3.5733  -28.1175  -45.2439 O.2       13 UNK        -0.5000 
     79 N          -1.7555  -26.7937  -45.5332 N.am      14 UNK        -0.5000 
     80 CA         -0.8977  -27.7980  -46.1630 C.3       14 UNK         0.1400 
     81 CB          0.5718  -27.3860  -45.9833 C.3       14 UNK        -0.1800 
     82 C          -1.1891  -28.0436  -47.6525 C.2       14 UNK         0.5000 
     83 O          -1.0133  -29.1735  -48.1114 O.2       14 UNK        -0.5000 
     84 N          -1.5762  -26.9961  -48.3908 N.am      15 UNK        -0.5000 
     85 CA         -1.6171  -26.9982  -49.8560 C.3       15 UNK         0.1400 
     86 CB         -0.3316  -26.3325  -50.3830 C.3       15 UNK        -0.1800 
     87 C          -2.8797  -26.3248  -50.4197 C.2       15 UNK         0.5000 
     88 O          -2.8860  -25.9498  -51.5935 O.2       15 UNK        -0.5000 
     89 N          -3.9173  -26.1545  -49.5850 N.am      16 UNK        -0.5000 
     90 CA         -5.2076  -25.5257  -49.9062 C.3       16 UNK         0.1400 
     91 CB         -6.0250  -26.4317  -50.8505 C.3       16 UNK        -0.1800 
     92 C          -5.0667  -24.0833  -50.4436 C.2       16 UNK         0.5000 
     93 O          -5.8238  -23.6704  -51.3242 O.2       16 UNK        -0.5000 
     94 N          -4.0563  -23.3617  -49.9346 N.am      17 UNK        -0.5000 
     95 CA         -3.6441  -22.0071  -50.3199 C.3       17 UNK         0.1400 
     96 CB         -4.7284  -20.9711  -49.9560 C.3       17 UNK        -0.1800 
     97 C          -3.2007  -21.9156  -51.7944 C.2       17 UNK         0.5000 
     98 O          -3.3352  -20.8583  -52.4058 O.2       17 UNK        -0.5000 
     99 N          -2.7212  -23.0397  -52.3517 N.am      18 UNK        -0.5000 
    100 CA        -2.3511  -23.2518  -53.7552 C.3       18 UNK         0.1400 
    101 CB        -1.1314  -22.3878  -54.1371 C.3       18 UNK        -0.1800 
    102 C         -3.5310  -23.0860  -54.7407 C.2       18 UNK         0.5000 
    103 O         -3.2999  -22.9214  -55.9401 O.2       18 UNK        -0.5000 
    104 N         -4.7682  -23.1325  -54.2208 N.am      19 UNK        -0.5000 
    105 CA        -6.0701  -22.9671  -54.8740 C.3       19 UNK         0.1400 
    106 CB        -6.3287  -24.0938  -55.8924 C.3       19 UNK        -0.1800 
    107 C         -6.3111  -21.5785  -55.5013 C.2       19 UNK         0.5000 
    108 O         -7.3222  -20.9450  -55.1961 O.2       19 UNK        -0.5000 
    109 N         -5.4067  -21.1456  -56.3855 N.am      20 UNK        -0.5000 
    110 CA        -5.5295  -19.9300  -57.1877 C.3       20 UNK         0.1400 
    111 CB        -4.8429  -20.1691  -58.5417 C.3       20 UNK        -0.1800 
    112 C         -4.9403  -18.6811  -56.5089 C.2       20 UNK         0.5000 
    113 O         -5.3513  -17.5698  -56.8492 O.2       20 UNK        -0.5000 
    114 N         -3.9771  -18.8607  -55.5942 N.am      21 UNK        -0.5000 
    115 CA        -3.3031  -17.7586  -54.9058 C.3       21 UNK         0.1400 
    116 CB        -1.9751  -18.2479  -54.3066 C.3       21 UNK        -0.1800 
    117 C         -4.1975  -17.1230  -53.8262 C.2       21 UNK         0.5000 
    118 O         -5.0240  -17.8080  -53.2200 O.2       21 UNK        -0.5000 
    119 N         -3.9930  -15.8191  -53.6050 N.am      22 UNK        -0.5000 
    120 CA        -4.6789  -14.9831  -52.6008 C.3       22 UNK         0.1400 
    121 C         -6.1925  -14.7230  -52.8783 C.2       22 UNK         0.5000 
    122 N         -6.7134  -15.0220  -54.0624 N.am      22 UNK        -0.7600 
    123 O         -6.9038  -14.2071  -52.0202 O.2       22 UNK        -0.5000 
    124 C124       -4.4156  -15.4358  -51.1355 C.3       23 UNK        -0.0398 
    125 S125       -2.6362  -15.5902  -50.7537 S.3       23 UNK        -0.2404 
    126 C126       -2.5433  -17.3324  -50.2253 C.3       23 UNK        -0.0205 
    127 H127       -3.5536  -12.7489  -46.8171 H         1 UNK         0.0600 
    128 H128       -3.0435  -14.3441  -47.3826 H         1 UNK         0.0600 
    129 H129       -4.0971  -13.3496  -48.3879 H         1 UNK         0.0600 
    130 H130       -0.8409  -14.1998  -47.7738 H         1 UNK         0.3000 
    131 H131        0.1971  -12.4115  -49.7981 H         1 UNK         0.0600 
    132 H132        1.0384  -14.6449  -49.8673 H         1 UNK         0.0800 
    133 H133        2.3644  -13.6549  -49.3678 H         1 UNK         0.0800 
    134 H134        3.0005  -16.4551  -48.9907 H         1 UNK         0.0800 
    135 H135        2.5797  -17.2743  -47.5091 H         1 UNK         0.0800 
    136 H136       -0.5356  -16.0887  -48.8687 H         1 UNK         0.1150 
    137 H137       -1.4068  -19.6675  -51.0319 H         1 UNK         0.1150 
    138 H138        2.4867  -19.0917  -49.3528 H         1 UNK         0.1150 
    139 H139        0.8304  -20.9992  -51.7765 H         1 UNK         0.0800 
    140 H140        2.0601  -21.0766  -50.5390 H         1 UNK         0.0800 
    141 H141       -0.5987  -20.8333  -48.0014 H         1 UNK         0.0800 
    142 H142        1.0735  -21.3156  -47.8875 H         1 UNK         0.0800 
    143 H143        0.3075  -23.6830  -47.3704 H         1 UNK         0.0600 
    144 H144        0.3062  -21.4805  -45.5715 H         1 UNK         0.3000 
    145 H145       -0.0092  -23.4609  -42.5793 H         1 UNK         0.0600 
    146 H146        2.0215  -22.1452  -42.0855 H         1 UNK         0.0600 
    147 H147        2.3916  -23.3862  -43.2723 H         1 UNK         0.0600 
    148 H148        2.2019  -21.7141  -43.7843 H         1 UNK         0.0600 
    149 H149        0.1040  -20.6496  -42.9144 H         1 UNK         0.3000 
    150 H150       -3.4330  -20.0899  -43.2845 H         1 UNK         0.0600 
    151 H151       -2.9877  -20.3031  -40.8422 H         1 UNK         0.0600 
    152 H152       -2.9583  -18.6206  -41.3479 H         1 UNK         0.0600 
    153 H153       -1.4483  -19.4748  -41.0356 H         1 UNK         0.0600 
    154 H154       -1.3131  -18.2296  -43.2220 H         1 UNK         0.3000 
    155 H155       -0.5644  -18.2504  -46.7445 H         1 UNK         0.0600 
    156 H156       -2.4671  -16.7128  -46.3862 H         1 UNK         0.0600 
    157 H157       -0.9564  -15.8226  -46.2790 H         1 UNK         0.0600 
    158 H158       -1.8383  -16.2362  -44.8140 H         1 UNK         0.0600 
    159 H159        0.6411  -16.8337  -44.5903 H         1 UNK         0.3000 
    160 H160        3.1166  -19.2835  -43.7617 H         1 UNK         0.0600 
    161 H161        3.2719  -16.5278  -45.0980 H         1 UNK         0.0600 
    162 H162        4.0605  -17.9983  -45.6494 H         1 UNK         0.0600 
    163 H163        4.5403  -17.2714  -44.1261 H         1 UNK         0.0600 
    164 H164        2.3607  -16.6744  -42.7562 H         1 UNK         0.3000 
    165 H165        0.2213  -17.8911  -40.1723 H         1 UNK         0.0600 
    166 H166        1.8643  -16.7548  -38.7028 H         1 UNK         0.0600 
    167 H167        2.5041  -18.2986  -39.2426 H         1 UNK         0.0600 
    168 H168        3.0843  -16.8082  -39.9759 H         1 UNK         0.0600 
    169 H169        1.2696  -15.2999  -40.7291 H         1 UNK         0.3000 
    170 H170       -1.0267  -14.2920  -43.2205 H         1 UNK         0.0600 
    171 H171       -2.3729  -14.0056  -41.1357 H         1 UNK         0.0600 
    172 H172       -0.9362  -13.4917  -40.2593 H         1 UNK         0.0600 
    173 H173       -1.5696  -12.5084  -41.5801 H         1 UNK         0.0600 
    174 H174        0.9817  -12.9056  -41.7212 H         1 UNK         0.3000 
    175 H175        2.9431  -12.3200  -42.7299 H         1 UNK         0.0600 
    176 H176        4.1778  -15.1473  -42.7353 H         1 UNK         0.0600 
    177 H177        4.9050  -13.7011  -42.0439 H         1 UNK         0.0600 
    178 H178        3.4741  -14.3878  -41.3127 H         1 UNK         0.0600 
    179 H179        3.0676  -13.5359  -45.2508 H         1 UNK         0.3000 
    180 H180        6.0791  -11.8663  -46.3686 H         1 UNK         0.0600 
    181 H181        4.5209  -14.4569  -46.8914 H         1 UNK         0.0600 
    182 H182        6.1894  -14.3630  -46.3481 H         1 UNK         0.0600 
    183 H183        5.7524  -13.7502  -47.9348 H         1 UNK         0.0600 
    184 H184        3.6470  -12.2899  -47.7647 H         1 UNK         0.3000 
    185 H185        1.9597   -9.3524  -47.1862 H         1 UNK         0.0600 
    186 H186        3.7792   -8.1443  -48.3881 H         1 UNK         0.0600 
    187 H187        3.9347   -9.4739  -49.5294 H         1 UNK         0.0600 
    188 H188        2.4533   -8.5170  -49.4763 H         1 UNK         0.0600 
    189 H189        2.0942  -11.0821  -49.4902 H         1 UNK         0.3000 
    190 H190       -2.3984  -21.7134  -46.0447 H         1 UNK         0.3000 
    191 H191       -4.5182  -22.8973  -47.4648 H         1 UNK         0.0600 
    192 H192       -4.7452  -20.8369  -46.1183 H         1 UNK         0.0600 
    193 H193       -5.9478  -22.0345  -45.6673 H         1 UNK         0.0600 
    194 H194       -4.5542  -21.7683  -44.6340 H         1 UNK         0.0600 
    195 H195       -2.9727  -23.9601  -44.4227 H         1 UNK         0.3000 
    196 H196       -4.6818  -26.2428  -44.0391 H         1 UNK         0.0600 
    197 H197       -2.9873  -26.8464  -42.3061 H         1 UNK         0.0600 
    198 H198       -3.4858  -25.1667  -42.1660 H         1 UNK         0.0600 
    199 H199       -1.9269  -25.5647  -42.8814 H         1 UNK         0.0600 
    200 H200       -1.3191  -25.8995  -45.3169 H         1 UNK         0.3000 
    201 H201       -1.0372  -28.7478  -45.6418 H         1 UNK         0.0600 
    202 H202        0.8213  -27.2621  -44.9293 H         1 UNK         0.0600 
    203 H203        0.7905  -26.4461  -46.4921 H         1 UNK         0.0600 
    204 H204        1.2438  -28.1428  -46.3898 H         1 UNK         0.0600 
    205 H205       -1.7123  -26.0891  -47.9513 H         1 UNK         0.3000 
    206 H206       -1.6458  -28.0222  -50.2328 H         1 UNK         0.0600 
    207 H207        0.5573  -26.8447  -50.0149 H         1 UNK         0.0600 
    208 H208       -0.2873  -26.3553  -51.4725 H         1 UNK         0.0600 
    209 H209       -0.2691  -25.2894  -50.0717 H         1 UNK         0.0600 
    210 H210       -3.8080  -26.4705  -48.6313 H         1 UNK         0.3000 
    211 H211       -5.7583  -25.4473  -48.9688 H         1 UNK         0.0600 
    212 H212       -5.5650  -26.5090  -51.8363 H         1 UNK         0.0600 
    213 H213       -7.0342  -26.0426  -50.9906 H         1 UNK         0.0600 
    214 H214       -6.1210  -27.4388  -50.4450 H         1 UNK         0.0600 
    215 H215       -3.4508  -23.8178  -49.2570 H         1 UNK         0.3000 
    216 H216       -2.7659  -21.7705  -49.7216 H         1 UNK         0.0600 
    217 H217       -4.3666  -19.9552  -50.1175 H         1 UNK         0.0600 
    218 H218       -5.0151  -21.0447  -48.9076 H         1 UNK         0.0600 
    219 H219       -5.6271  -21.0944  -50.5608 H         1 UNK         0.0600 
    220 H220       -2.7016  -23.8803  -51.7844 H         1 UNK         0.3000 
    221 H221       -2.0483  -24.2971  -53.8279 H         1 UNK         0.0600 
    222 H222       -1.3732  -21.3252  -54.1520 H         1 UNK         0.0600 
    223 H223       -0.3111  -22.5359  -53.4350 H         1 UNK         0.0600 
    224 H224       -0.7592  -22.6506  -55.1278 H         1 UNK         0.0600 
    225 H225       -4.8328  -23.2545  -53.2164 H         1 UNK         0.3000 
    226 H226       -6.8065  -23.0784  -54.0764 H         1 UNK         0.0600 
    227 H227       -6.2528  -25.0737  -55.4211 H         1 UNK         0.0600 
    228 H228       -7.3312  -24.0131  -56.3143 H         1 UNK         0.0600 
    229 H229       -5.6234  -24.0664  -56.7233 H         1 UNK         0.0600 
    230 H230       -4.5849  -21.7265  -56.5352 H         1 UNK         0.3000 
    231 H231       -6.5861  -19.7308  -57.3793 H         1 UNK         0.0600 
    232 H232       -3.7809  -20.3871  -58.4210 H         1 UNK         0.0600 
    233 H233       -4.9280  -19.2923  -59.1851 H         1 UNK         0.0600 
    234 H234       -5.2987  -21.0054  -59.0721 H         1 UNK         0.0600 
    235 H235       -3.7403  -19.7981  -55.3049 H         1 UNK         0.3000 
    236 H236       -3.0657  -16.9945  -55.6495 H         1 UNK         0.0600 
    237 H237       -1.3434  -18.7123  -55.0638 H         1 UNK         0.0600 
    238 H238       -1.4130  -17.4171  -53.8781 H         1 UNK         0.0600 
    239 H239       -2.1308  -18.9702  -53.5086 H         1 UNK         0.0600 
    240 H240       -3.2947  -15.3391  -54.1543 H         1 UNK         0.3000 
    241 H241       -4.2225  -13.9983  -52.7059 H         1 UNK         0.0600 
    242 H242       -7.6893  -14.8387  -54.2357 H         1 UNK         0.3800 
    243 H243       -6.1489  -15.4519  -54.7786 H         1 UNK         0.3800 
    244 H244       -4.8331  -14.7118  -50.4344 H         1 UNK         0.0800 
    245 H245       -4.9260  -16.3778  -50.9303 H         1 UNK         0.0800 
    246 H246       -3.1143  -17.4612  -49.3049 H         1 UNK         0.0800 
    247 H247       -3.0244  -17.9513  -50.9851 H         1 UNK         0.0800 
@<TRIPOS>BOND
     1    1    2 1    
     2    1  127 1    
     3    1  128 1    
     4    1  129 1    
     5    2    3 2    
     6    2    4 am   BACKBONE|DICT|INTERRES
     7    4    5 1    
     8    4  130 1    
     9    5    6 1    
    10    5   65 1    
    11    5  131 1    
    12    6    7 1    
    13    6  132 1    
    14    6  133 1    
    15    7    8 1    
    16    8    9 1    
    17    8  134 1    
    18    8  135 1    
    19    9   10 ar   
    20    9   14 ar   
    21   10   11 ar   
    22   10  136 1    
    23   11   12 ar   
    24   11  126 1    
    25   12   13 ar   
    26   12  137 1    
    27   13   14 ar   
    28   13   15 1    
    29   14  138 1    
    30   15   16 1    
    31   15  139 1    
    32   15  140 1    
    33   16   17 1    
    34   17   18 1    
    35   17  141 1    
    36   17  142 1    
    37   18   19 1    
    38   18   67 1    
    39   18  143 1    
    40   19   20 am   BACKBONE|DICT|INTERRES
    41   19  144 1    
    42   20   21 2    
    43   20   22 1    
    44   22   23 1    
    45   22   24 1    
    46   22  145 1    
    47   23  146 1    
    48   23  147 1    
    49   23  148 1    
    50   24   25 am   BACKBONE|DICT|INTERRES
    51   24  149 1    
    52   25   26 2    
    53   25   27 1    
    54   27   28 1    
    55   27   29 1    
    56   27  150 1    
    57   28  151 1    
    58   28  152 1    
    59   28  153 1    
    60   29   30 am   BACKBONE|DICT|INTERRES
    61   29  154 1    
    62   30   31 2    
    63   30   32 1    
    64   32   33 1    
    65   32   34 1    
    66   32  155 1    
    67   33  156 1    
    68   33  157 1    
    69   33  158 1    
    70   34   35 am   BACKBONE|DICT|INTERRES
    71   34  159 1    
    72   35   36 2    
    73   35   37 1    
    74   37   38 1    
    75   37   39 1    
    76   37  160 1    
    77   38  161 1    
    78   38  162 1    
    79   38  163 1    
    80   39   40 am   BACKBONE|DICT|INTERRES
    81   39  164 1    
    82   40   41 2    
    83   40   42 1    
    84   42   43 1    
    85   42   44 1    
    86   42  165 1    
    87   43  166 1    
    88   43  167 1    
    89   43  168 1    
    90   44   45 am   BACKBONE|DICT|INTERRES
    91   44  169 1    
    92   45   46 2    
    93   45   47 1    
    94   47   48 1    
    95   47   49 1    
    96   47  170 1    
    97   48  171 1    
    98   48  172 1    
    99   48  173 1    
   100   49   50 am   BACKBONE|DICT|INTERRES
   101   49  174 1    
   102   50   51 2    
   103   50   52 1    
   104   52   53 1    
   105   52   54 1    
   106   52  175 1    
   107   53  176 1    
   108   53  177 1    
   109   53  178 1    
   110   54   55 am   BACKBONE|DICT|INTERRES
   111   54  179 1    
   112   55   56 2    
   113   55   57 1    
   114   57   58 1    
   115   57   59 1    
   116   57  180 1    
   117   58  181 1    
   118   58  182 1    
   119   58  183 1    
   120   59   60 am   BACKBONE|DICT|INTERRES
   121   59  184 1    
   122   60   61 2    
   123   60   62 1    
   124   62   63 1    
   125   62   64 1    
   126   62  185 1    
   127   63  186 1    
   128   63  187 1    
   129   63  188 1    
   130   64   65 am   BACKBONE|DICT|INTERRES
   131   64  189 1    
   132   65   66 2    
   133   67   68 2    
   134   67   69 am   BACKBONE|DICT|INTERRES
   135   69   70 1    
   136   69  190 1    
   137   70   71 1    
   138   70   72 1    
   139   70  191 1    
   140   71  192 1    
   141   71  193 1    
   142   71  194 1    
   143   72   73 2    
   144   72   74 am   BACKBONE|DICT|INTERRES
   145   74   75 1    
   146   74  195 1    
   147   75   76 1    
   148   75   77 1    
   149   75  196 1    
   150   76  197 1    
   151   76  198 1    
   152   76  199 1    
   153   77   78 2    
   154   77   79 am   BACKBONE|DICT|INTERRES
   155   79   80 1    
   156   79  200 1    
   157   80   81 1    
   158   80   82 1    
   159   80  201 1    
   160   81  202 1    
   161   81  203 1    
   162   81  204 1    
   163   82   83 2    
   164   82   84 am   BACKBONE|DICT|INTERRES
   165   84   85 1    
   166   84  205 1    
   167   85   86 1    
   168   85   87 1    
   169   85  206 1    
   170   86  207 1    
   171   86  208 1    
   172   86  209 1    
   173   87   88 2    
   174   87   89 am   BACKBONE|DICT|INTERRES
   175   89   90 1    
   176   89  210 1    
   177   90   91 1    
   178   90   92 1    
   179   90  211 1    
   180   91  212 1    
   181   91  213 1    
   182   91  214 1    
   183   92   93 2    
   184   92   94 am   BACKBONE|DICT|INTERRES
   185   94   95 1    
   186   94  215 1    
   187   95   96 1    
   188   95   97 1    
   189   95  216 1    
   190   96  217 1    
   191   96  218 1    
   192   96  219 1    
   193   97   98 2    
   194   97   99 am   BACKBONE|DICT|INTERRES
   195   99  100 1    
   196   99  220 1    
   197  100  101 1    
   198  100  102 1    
   199  100  221 1    
   200  101  222 1    
   201  101  223 1    
   202  101  224 1    
   203  102  103 2    
   204  102  104 am   BACKBONE|DICT|INTERRES
   205  104  105 1    
   206  104  225 1    
   207  105  106 1    
   208  105  107 1    
   209  105  226 1    
   210  106  227 1    
   211  106  228 1    
   212  106  229 1    
   213  107  108 2    
   214  107  109 am   BACKBONE|DICT|INTERRES
   215  109  110 1    
   216  109  230 1    
   217  110  111 1    
   218  110  112 1    
   219  110  231 1    
   220  111  232 1    
   221  111  233 1    
   222  111  234 1    
   223  112  113 2    
   224  112  114 am   BACKBONE|DICT|INTERRES
   225  114  115 1    
   226  114  235 1    
   227  115  116 1    
   228  115  117 1    
   229  115  236 1    
   230  116  237 1    
   231  116  238 1    
   232  116  239 1    
   233  117  118 2    
   234  117  119 am   BACKBONE|DICT|INTERRES
   235  119  120 1    
   236  119  240 1    
   237  120  121 1    
   238  120  124 1    
   239  120  241 1    
   240  121  122 am   BACKBONE|DICT|INTERRES
   241  121  123 2    
   242  122  242 1    
   243  122  243 1    
   244  124  125 1    
   245  124  244 1    
   246  124  245 1    
   247  125  126 1    
   248  126  246 1    
   249  126  247 1    
@<TRIPOS>SUBSTRUCTURE
     1 UNK         1 GROUP             0       ****    0 ROOT    
