@<TRIPOS>MOLECULE
3R540
247   249    1
SMALL
USER_CHARGES


@<TRIPOS>ATOM
      1 CA          1.8166  -15.2734  -49.0317 C.3       0 UNK        -0.1800 
      2 C           0.3214  -15.2059  -48.7543 C.2       0 UNK         0.5000 
      3 O          -0.3967  -14.4755  -49.4357 O.2       0 UNK        -0.5000 
      4 N          -0.1406  -15.9641  -47.7513 N.am      1 UNK        -0.5000 
      5 CA         -1.5412  -16.1161  -47.3251 C.3       1 UNK         0.1400 
      6 C6         -2.4309  -16.8515  -48.3608 C.3       23 UNK        -0.0398 
      7 S7         -1.7026  -18.4507  -48.8527 S.3       23 UNK        -0.2404 
      8 C8         -1.3711  -18.1605  -50.6195 C.3       23 UNK        -0.0205 
      9 C9         -0.2029  -18.9959  -51.1175 C.ar      23 UNK        -0.0193 
     10 C10        -0.4022  -20.0507  -52.0127 C.ar      23 UNK        -0.1150 
     11 C11         0.6856  -20.7834  -52.4988 C.ar      23 UNK        -0.0193 
     12 C12         1.9787  -20.4581  -52.0771 C.ar      23 UNK        -0.1150 
     13 C13         2.1893  -19.4070  -51.1804 C.ar      23 UNK        -0.0193 
     14 C14         1.0939  -18.6827  -50.7053 C.ar      23 UNK        -0.1150 
     15 C15         3.5986  -19.0258  -50.7499 C.3       23 UNK        -0.0205 
     16 S16         4.3605  -20.2565  -49.6457 S.3       23 UNK        -0.2404 
     17 C17         3.2527  -20.2173  -48.1953 C.3       23 UNK        -0.0398 
     18 CA          2.8769  -21.6353  -47.7034 C.3       11 UNK         0.1400 
     19 N           2.3989  -21.6000  -46.3207 N.am      11 UNK        -0.5000 
     20 C           2.2078  -22.6751  -45.5433 C.2       10 UNK         0.5000 
     21 O           2.5432  -23.8150  -45.8633 O.2       10 UNK        -0.5000 
     22 CA          1.5006  -22.4518  -44.1907 C.3       10 UNK         0.1400 
     23 CB          2.5122  -22.5478  -43.0397 C.3       10 UNK        -0.1800 
     24 N           0.7733  -21.1815  -44.0914 N.am      10 UNK        -0.5000 
     25 C          -0.2597  -20.8080  -44.8609 C.2       9 UNK         0.5000 
     26 O          -0.7333  -21.5151  -45.7509 O.2       9 UNK        -0.5000 
     27 CA         -0.8183  -19.3921  -44.6378 C.3       9 UNK         0.1400 
     28 CB         -1.9314  -19.4041  -43.5807 C.3       9 UNK        -0.1800 
     29 N           0.2215  -18.4430  -44.2348 N.am      9 UNK        -0.5000 
     30 C           1.1163  -17.8952  -45.0687 C.2       8 UNK         0.5000 
     31 O           1.1404  -18.0981  -46.2823 O.2       8 UNK        -0.5000 
     32 CA          2.1636  -16.9613  -44.4402 C.3       8 UNK         0.1400 
     33 CB          1.5845  -15.5503  -44.2471 C.3       8 UNK        -0.1800 
     34 N           2.6555  -17.4752  -43.1624 N.am      8 UNK        -0.5000 
     35 C           3.4680  -18.5377  -43.0494 C.2       7 UNK         0.5000 
     36 O           3.9132  -19.1597  -44.0143 O.2       7 UNK        -0.5000 
     37 CA          3.8304  -19.0028  -41.6244 C.3       7 UNK         0.1400 
     38 CB          5.1526  -18.3631  -41.1753 C.3       7 UNK        -0.1800 
     39 N           2.8019  -18.7149  -40.6240 N.am      7 UNK        -0.5000 
     40 C           1.5397  -19.1668  -40.6447 C.2       6 UNK         0.5000 
     41 O           1.0907  -19.9055  -41.5201 O.2       6 UNK        -0.5000 
     42 CA          0.6066  -18.6515  -39.5324 C.3       6 UNK         0.1400 
     43 CB          0.5958  -19.6263  -38.3459 C.3       6 UNK        -0.1800 
     44 N           0.9547  -17.3077  -39.0551 N.am      6 UNK        -0.5000 
     45 C           0.9498  -16.2083  -39.8193 C.2       5 UNK         0.5000 
     46 O           0.6623  -16.2106  -41.0215 O.2       5 UNK        -0.5000 
     47 CA          1.3758  -14.8980  -39.1455 C.3       5 UNK         0.1400 
     48 CB          2.9072  -14.7562  -39.1319 C.3       5 UNK        -0.1800 
     49 N           0.7864  -13.8160  -39.9159 N.am      5 UNK        -0.5000 
     50 C           0.4106  -12.6162  -39.4640 C.2       4 UNK         0.5000 
     51 O           0.6378  -12.2063  -38.3251 O.2       4 UNK        -0.5000 
     52 CA         -0.3806  -11.7391  -40.4555 C.3       4 UNK         0.1400 
     53 CB          0.5577  -10.7640  -41.1831 C.3       4 UNK        -0.1800 
     54 N          -1.1016  -12.5369  -41.4524 N.am      4 UNK        -0.5000 
     55 C          -2.1810  -13.2923  -41.1994 C.2       3 UNK         0.5000 
     56 O          -2.7363  -13.3296  -40.1003 O.2       3 UNK        -0.5000 
     57 CA         -2.6964  -14.1889  -42.3472 C.3       3 UNK         0.1400 
     58 CB         -4.2342  -14.3113  -42.3614 C.3       3 UNK        -0.1800 
     59 N          -2.1824  -13.8264  -43.6750 N.am      3 UNK        -0.5000 
     60 C          -2.4255  -12.7064  -44.3749 C.2       2 UNK         0.5000 
     61 O          -3.1296  -11.7798  -43.9739 O.2       2 UNK        -0.5000 
     62 CA         -1.7405  -12.5919  -45.7511 C.3       2 UNK         0.1400 
     63 CB         -0.4970  -11.6939  -45.6525 C.3       2 UNK        -0.1800 
     64 N          -1.3395  -13.8849  -46.3115 N.am      2 UNK        -0.5000 
     65 C          -2.1788  -14.8042  -46.8108 C.2       1 UNK         0.5000 
     66 O          -3.4009  -14.6551  -46.8477 O.2       1 UNK        -0.5000 
     67 C           1.8703  -22.3492  -48.6393 C.2       11 UNK         0.5000 
     68 O           2.2896  -23.1243  -49.5003 O.2       11 UNK        -0.5000 
     69 N           0.5664  -22.1286  -48.4140 N.am      12 UNK        -0.5000 
     70 CA         -0.5124  -22.8749  -49.0616 C.3       12 UNK         0.1400 
     71 CB         -1.7800  -22.0130  -49.1083 C.3       12 UNK        -0.1800 
     72 C          -0.8050  -24.1889  -48.3204 C.2       12 UNK         0.5000 
     73 O          -1.0276  -25.2132  -48.9646 O.2       12 UNK        -0.5000 
     74 N          -0.8275  -24.1201  -46.9801 N.am      13 UNK        -0.5000 
     75 CA         -1.1001  -25.1796  -45.9969 C.3       13 UNK         0.1400 
     76 CB         -0.1436  -26.3754  -46.1662 C.3       13 UNK        -0.1800 
     77 C          -2.5713  -25.6409  -45.9270 C.2       13 UNK         0.5000 
     78 O          -3.0013  -26.1069  -44.8709 O.2       13 UNK        -0.5000 
     79 N          -3.3268  -25.4776  -47.0153 N.am      14 UNK        -0.5000 
     80 CA         -4.7619  -25.7060  -47.1190 C.3       14 UNK         0.1400 
     81 CB         -5.0276  -27.1538  -47.5621 C.3       14 UNK        -0.1800 
     82 C          -5.3244  -24.7013  -48.1329 C.2       14 UNK         0.5000 
     83 O          -4.5917  -24.2629  -49.0210 O.2       14 UNK        -0.5000 
     84 N          -6.6019  -24.3332  -47.9697 N.am      15 UNK        -0.5000 
     85 CA         -7.3968  -23.4036  -48.7927 C.3       15 UNK         0.1400 
     86 CB         -7.5060  -23.9094  -50.2447 C.3       15 UNK        -0.1800 
     87 C          -6.9626  -21.9191  -48.7448 C.2       15 UNK         0.5000 
     88 O          -7.7517  -21.0573  -49.1358 O.2       15 UNK        -0.5000 
     89 N          -5.7512  -21.6364  -48.2453 N.am      16 UNK        -0.5000 
     90 CA         -5.1411  -20.3169  -48.0671 C.3       16 UNK         0.1400 
     91 CB         -5.8402  -19.5461  -46.9251 C.3       16 UNK        -0.1800 
     92 C          -5.0555  -19.5459  -49.3992 C.2       16 UNK         0.5000 
     93 O          -4.4889  -20.0703  -50.3573 O.2       16 UNK        -0.5000 
     94 N          -5.6174  -18.3306  -49.4548 N.am      17 UNK        -0.5000 
     95 CA         -5.5747  -17.4291  -50.6098 C.3       17 UNK         0.1400 
     96 CB         -6.2484  -16.1023  -50.2317 C.3       17 UNK        -0.1800 
     97 C          -6.1885  -18.0046  -51.9027 C.2       17 UNK         0.5000 
     98 O          -5.8090  -17.5716  -52.9899 O.2       17 UNK        -0.5000 
     99 N          -7.0873  -18.9915  -51.7791 N.am      18 UNK        -0.5000 
    100 CA        -7.6562  -19.7284  -52.9087 C.3       18 UNK         0.1400 
    101 CB        -8.9012  -20.4929  -52.4374 C.3       18 UNK        -0.1800 
    102 C         -6.6499  -20.6815  -53.5886 C.2       18 UNK         0.5000 
    103 O         -6.8635  -21.0482  -54.7446 O.2       18 UNK        -0.5000 
    104 N         -5.5668  -21.0540  -52.8888 N.am      19 UNK        -0.5000 
    105 CA        -4.4988  -21.9077  -53.4132 C.3       19 UNK         0.1400 
    106 CB        -3.7778  -22.6004  -52.2475 C.3       19 UNK        -0.1800 
    107 C         -3.4792  -21.1403  -54.2748 C.2       19 UNK         0.5000 
    108 O         -2.6440  -21.7826  -54.9086 O.2       19 UNK        -0.5000 
    109 N         -3.5519  -19.7985  -54.3019 N.am      20 UNK        -0.5000 
    110 CA        -2.6214  -18.8902  -54.9907 C.3       20 UNK         0.1400 
    111 CB        -2.9867  -17.4404  -54.6410 C.3       20 UNK        -0.1800 
    112 C         -2.5173  -19.0766  -56.5214 C.2       20 UNK         0.5000 
    113 O         -1.6008  -18.5321  -57.1387 O.2       20 UNK        -0.5000 
    114 N         -3.4141  -19.8861  -57.1017 N.am      21 UNK        -0.5000 
    115 CA        -3.3376  -20.4270  -58.4609 C.3       21 UNK         0.1400 
    116 CB        -4.6496  -21.1684  -58.7624 C.3       21 UNK        -0.1800 
    117 C         -2.1201  -21.3519  -58.7056 C.2       21 UNK         0.5000 
    118 O         -1.8449  -21.6806  -59.8603 O.2       21 UNK        -0.5000 
    119 N         -1.4107  -21.7430  -57.6357 N.am      22 UNK        -0.5000 
    120 CA        -0.1299  -22.4694  -57.6435 C.3       22 UNK         0.1400 
    121 C          1.0209  -21.8167  -58.4720 C.2       22 UNK         0.5000 
    122 N          0.9980  -20.5137  -58.7303 N.am      22 UNK        -0.7600 
    123 O          1.9451  -22.5091  -58.8900 O.2       22 UNK        -0.5000 
    124 C124        0.3412  -22.7851  -56.1963 C.3       23 UNK        -0.0398 
    125 S125        0.6916  -21.2902  -55.1979 S.3       23 UNK        -0.2404 
    126 C126        0.4714  -21.9062  -53.5011 C.3       23 UNK        -0.0205 
    127 H127        2.3051  -16.0418  -48.4313 H         1 UNK         0.0600 
    128 H128        2.2832  -14.3149  -48.8050 H         1 UNK         0.0600 
    129 H129        1.9946  -15.4995  -50.0831 H         1 UNK         0.0600 
    130 H130        0.4980  -16.6073  -47.2912 H         1 UNK         0.3000 
    131 H131       -1.4977  -16.7564  -46.4435 H         1 UNK         0.0600 
    132 H132       -2.6048  -16.2241  -49.2360 H         1 UNK         0.0800 
    133 H133       -3.4148  -17.0591  -47.9381 H         1 UNK         0.0800 
    134 H134       -2.2754  -18.3772  -51.1902 H         1 UNK         0.0800 
    135 H135       -1.1378  -17.1090  -50.7917 H         1 UNK         0.0800 
    136 H136       -1.4023  -20.2932  -52.3399 H         1 UNK         0.1150 
    137 H137        2.8237  -21.0162  -52.4552 H         1 UNK         0.1150 
    138 H138        1.2460  -17.8688  -50.0128 H         1 UNK         0.1150 
    139 H139        4.2232  -18.9167  -51.6375 H         1 UNK         0.0800 
    140 H140        3.6033  -18.0534  -50.2546 H         1 UNK         0.0800 
    141 H141        2.3585  -19.6256  -48.3943 H         1 UNK         0.0800 
    142 H142        3.7874  -19.6824  -47.4088 H         1 UNK         0.0800 
    143 H143        3.7885  -22.2372  -47.6960 H         1 UNK         0.0600 
    144 H144        2.1172  -20.6988  -45.9620 H         1 UNK         0.3000 
    145 H145        0.7726  -23.2552  -44.0690 H         1 UNK         0.0600 
    146 H146        2.0259  -22.4350  -42.0707 H         1 UNK         0.0600 
    147 H147        3.0127  -23.5169  -43.0394 H         1 UNK         0.0600 
    148 H148        3.2834  -21.7830  -43.1247 H         1 UNK         0.0600 
    149 H149        1.0457  -20.5700  -43.3271 H         1 UNK         0.3000 
    150 H150       -1.2519  -19.0591  -45.5832 H         1 UNK         0.0600 
    151 H151       -2.7324  -20.0875  -43.8659 H         1 UNK         0.0600 
    152 H152       -2.3743  -18.4148  -43.4643 H         1 UNK         0.0600 
    153 H153       -1.5586  -19.7219  -42.6061 H         1 UNK         0.0600 
    154 H154        0.2987  -18.2474  -43.2464 H         1 UNK         0.3000 
    155 H155        3.0074  -16.8893  -45.1301 H         1 UNK         0.0600 
    156 H156        2.3146  -14.8839  -43.7874 H         1 UNK         0.0600 
    157 H157        0.6953  -15.5577  -43.6163 H         1 UNK         0.0600 
    158 H158        1.3054  -15.1112  -45.2050 H         1 UNK         0.0600 
    159 H159        2.2970  -17.0351  -42.3244 H         1 UNK         0.3000 
    160 H160        3.9681  -20.0847  -41.6531 H         1 UNK         0.0600 
    161 H161        5.0675  -17.2786  -41.0934 H         1 UNK         0.0600 
    162 H162        5.9520  -18.5773  -41.8861 H         1 UNK         0.0600 
    163 H163        5.4698  -18.7498  -40.2066 H         1 UNK         0.0600 
    164 H164        3.0717  -18.1071  -39.8652 H         1 UNK         0.3000 
    165 H165       -0.4021  -18.6073  -39.9488 H         1 UNK         0.0600 
    166 H166       -0.1270  -19.3196  -37.5896 H         1 UNK         0.0600 
    167 H167        0.3193  -20.6310  -38.6688 H         1 UNK         0.0600 
    168 H168        1.5747  -19.6923  -37.8693 H         1 UNK         0.0600 
    169 H169        1.2079  -17.2283  -38.0804 H         1 UNK         0.3000 
    170 H170        0.9867  -14.8807  -38.1253 H         1 UNK         0.0600 
    171 H171        3.3713  -15.5591  -38.5582 H         1 UNK         0.0600 
    172 H172        3.3228  -14.7877  -40.1401 H         1 UNK         0.0600 
    173 H173        3.2113  -13.8142  -38.6751 H         1 UNK         0.0600 
    174 H174        0.5204  -14.0916  -40.8526 H         1 UNK         0.3000 
    175 H175       -1.1072  -11.1583  -39.8835 H         1 UNK         0.0600 
    176 H176        1.3037  -11.2910  -41.7793 H         1 UNK         0.0600 
    177 H177        0.0011  -10.1034  -41.8484 H         1 UNK         0.0600 
    178 H178        1.0919  -10.1329  -40.4717 H         1 UNK         0.0600 
    179 H179       -0.7194  -12.5513  -42.3855 H         1 UNK         0.3000 
    180 H180       -2.2962  -15.1826  -42.1393 H         1 UNK         0.0600 
    181 H181       -4.5705  -14.9564  -43.1732 H         1 UNK         0.0600 
    182 H182       -4.7180  -13.3416  -42.4804 H         1 UNK         0.0600 
    183 H183       -4.6015  -14.7456  -41.4310 H         1 UNK         0.0600 
    184 H184       -1.5809  -14.5119  -44.1067 H         1 UNK         0.3000 
    185 H185       -2.4509  -12.1238  -46.4358 H         1 UNK         0.0600 
    186 H186       -0.7549  -10.7091  -45.2605 H         1 UNK         0.0600 
    187 H187        0.2597  -12.1217  -44.9936 H         1 UNK         0.0600 
    188 H188       -0.0424  -11.5422  -46.6318 H         1 UNK         0.0600 
    189 H189       -0.3493  -14.0717  -46.3595 H         1 UNK         0.3000 
    190 H190        0.2936  -21.5184  -47.6543 H         1 UNK         0.3000 
    191 H191       -0.2307  -23.1164  -50.0890 H         1 UNK         0.0600 
    192 H192       -2.6321  -22.5838  -49.4751 H         1 UNK         0.0600 
    193 H193       -1.6527  -21.1690  -49.7813 H         1 UNK         0.0600 
    194 H194       -2.0449  -21.6245  -48.1255 H         1 UNK         0.0600 
    195 H195       -0.7113  -23.1955  -46.5718 H         1 UNK         0.3000 
    196 H196       -0.8840  -24.7290  -45.0277 H         1 UNK         0.0600 
    197 H197       -0.3350  -26.9253  -47.0878 H         1 UNK         0.0600 
    198 H198        0.8968  -26.0510  -46.1776 H         1 UNK         0.0600 
    199 H199       -0.2552  -27.0800  -45.3413 H         1 UNK         0.0600 
    200 H200       -2.9014  -25.0974  -47.8540 H         1 UNK         0.3000 
    201 H201       -5.2341  -25.5250  -46.1511 H         1 UNK         0.0600 
    202 H202       -4.5680  -27.3675  -48.5281 H         1 UNK         0.0600 
    203 H203       -6.0971  -27.3451  -47.6561 H         1 UNK         0.0600 
    204 H204       -4.6319  -27.8666  -46.8384 H         1 UNK         0.0600 
    205 H205       -7.1047  -24.7300  -47.1876 H         1 UNK         0.3000 
    206 H206       -8.4008  -23.4303  -48.3666 H         1 UNK         0.0600 
    207 H207       -7.8206  -24.9525  -50.2770 H         1 UNK         0.0600 
    208 H208       -8.2440  -23.3349  -50.8033 H         1 UNK         0.0600 
    209 H209       -6.5597  -23.8281  -50.7780 H         1 UNK         0.0600 
    210 H210       -5.1445  -22.4266  -48.0720 H         1 UNK         0.3000 
    211 H211       -4.1107  -20.4922  -47.7574 H         1 UNK         0.0600 
    212 H212       -5.3325  -18.6040  -46.7144 H         1 UNK         0.0600 
    213 H213       -5.8250  -20.1261  -46.0022 H         1 UNK         0.0600 
    214 H214       -6.8829  -19.3239  -47.1547 H         1 UNK         0.0600 
    215 H215       -6.0987  -17.9882  -48.6364 H         1 UNK         0.3000 
    216 H216       -4.5235  -17.2259  -50.8228 H         1 UNK         0.0600 
    217 H217       -7.2973  -16.2452  -49.9690 H         1 UNK         0.0600 
    218 H218       -6.2107  -15.3939  -51.0606 H         1 UNK         0.0600 
    219 H219       -5.7485  -15.6334  -49.3836 H         1 UNK         0.0600 
    220 H220       -7.3288  -19.3188  -50.8525 H         1 UNK         0.3000 
    221 H221       -7.9741  -19.0044  -53.6620 H         1 UNK         0.0600 
    222 H222       -8.6549  -21.2235  -51.6687 H         1 UNK         0.0600 
    223 H223       -9.3681  -21.0301  -53.2640 H         1 UNK         0.0600 
    224 H224       -9.6492  -19.8144  -52.0269 H         1 UNK         0.0600 
    225 H225       -5.4198  -20.6870  -51.9522 H         1 UNK         0.3000 
    226 H226       -4.9439  -22.6833  -54.0398 H         1 UNK         0.0600 
    227 H227       -3.1909  -21.8905  -51.6668 H         1 UNK         0.0600 
    228 H228       -4.4784  -23.0889  -51.5718 H         1 UNK         0.0600 
    229 H229       -3.0902  -23.3644  -52.6119 H         1 UNK         0.0600 
    230 H230       -4.2900  -19.3557  -53.7719 H         1 UNK         0.3000 
    231 H231       -1.6259  -19.0901  -54.5900 H         1 UNK         0.0600 
    232 H232       -3.9780  -17.1779  -55.0120 H         1 UNK         0.0600 
    233 H233       -2.2757  -16.7392  -55.0797 H         1 UNK         0.0600 
    234 H234       -2.9759  -17.2785  -53.5630 H         1 UNK         0.0600 
    235 H235       -4.1240  -20.2866  -56.5062 H         1 UNK         0.3000 
    236 H236       -3.2489  -19.5862  -59.1515 H         1 UNK         0.0600 
    237 H237       -5.5097  -20.5058  -58.6636 H         1 UNK         0.0600 
    238 H238       -4.6562  -21.5566  -59.7818 H         1 UNK         0.0600 
    239 H239       -4.7966  -22.0130  -58.0879 H         1 UNK         0.0600 
    240 H240       -1.7490  -21.4839  -56.7149 H         1 UNK         0.3000 
    241 H241       -0.3355  -23.4245  -58.1297 H         1 UNK         0.0600 
    242 H242        1.7420  -20.0984  -59.2681 H         1 UNK         0.3800 
    243 H243        0.2555  -19.9354  -58.3654 H         1 UNK         0.3800 
    244 H244        1.2348  -23.4114  -56.2113 H         1 UNK         0.0800 
    245 H245       -0.4244  -23.3739  -55.6889 H         1 UNK         0.0800 
    246 H246        1.1776  -22.7159  -53.3114 H         1 UNK         0.0800 
    247 H247       -0.5267  -22.3304  -53.3854 H         1 UNK         0.0800 
@<TRIPOS>BOND
     1    1    2 1    
     2    1  127 1    
     3    1  128 1    
     4    1  129 1    
     5    2    3 2    
     6    2    4 am   BACKBONE|DICT|INTERRES
     7    4    5 1    
     8    4  130 1    
     9    5    6 1    
    10    5   65 1    
    11    5  131 1    
    12    6    7 1    
    13    6  132 1    
    14    6  133 1    
    15    7    8 1    
    16    8    9 1    
    17    8  134 1    
    18    8  135 1    
    19    9   10 ar   
    20    9   14 ar   
    21   10   11 ar   
    22   10  136 1    
    23   11   12 ar   
    24   11  126 1    
    25   12   13 ar   
    26   12  137 1    
    27   13   14 ar   
    28   13   15 1    
    29   14  138 1    
    30   15   16 1    
    31   15  139 1    
    32   15  140 1    
    33   16   17 1    
    34   17   18 1    
    35   17  141 1    
    36   17  142 1    
    37   18   19 1    
    38   18   67 1    
    39   18  143 1    
    40   19   20 am   BACKBONE|DICT|INTERRES
    41   19  144 1    
    42   20   21 2    
    43   20   22 1    
    44   22   23 1    
    45   22   24 1    
    46   22  145 1    
    47   23  146 1    
    48   23  147 1    
    49   23  148 1    
    50   24   25 am   BACKBONE|DICT|INTERRES
    51   24  149 1    
    52   25   26 2    
    53   25   27 1    
    54   27   28 1    
    55   27   29 1    
    56   27  150 1    
    57   28  151 1    
    58   28  152 1    
    59   28  153 1    
    60   29   30 am   BACKBONE|DICT|INTERRES
    61   29  154 1    
    62   30   31 2    
    63   30   32 1    
    64   32   33 1    
    65   32   34 1    
    66   32  155 1    
    67   33  156 1    
    68   33  157 1    
    69   33  158 1    
    70   34   35 am   BACKBONE|DICT|INTERRES
    71   34  159 1    
    72   35   36 2    
    73   35   37 1    
    74   37   38 1    
    75   37   39 1    
    76   37  160 1    
    77   38  161 1    
    78   38  162 1    
    79   38  163 1    
    80   39   40 am   BACKBONE|DICT|INTERRES
    81   39  164 1    
    82   40   41 2    
    83   40   42 1    
    84   42   43 1    
    85   42   44 1    
    86   42  165 1    
    87   43  166 1    
    88   43  167 1    
    89   43  168 1    
    90   44   45 am   BACKBONE|DICT|INTERRES
    91   44  169 1    
    92   45   46 2    
    93   45   47 1    
    94   47   48 1    
    95   47   49 1    
    96   47  170 1    
    97   48  171 1    
    98   48  172 1    
    99   48  173 1    
   100   49   50 am   BACKBONE|DICT|INTERRES
   101   49  174 1    
   102   50   51 2    
   103   50   52 1    
   104   52   53 1    
   105   52   54 1    
   106   52  175 1    
   107   53  176 1    
   108   53  177 1    
   109   53  178 1    
   110   54   55 am   BACKBONE|DICT|INTERRES
   111   54  179 1    
   112   55   56 2    
   113   55   57 1    
   114   57   58 1    
   115   57   59 1    
   116   57  180 1    
   117   58  181 1    
   118   58  182 1    
   119   58  183 1    
   120   59   60 am   BACKBONE|DICT|INTERRES
   121   59  184 1    
   122   60   61 2    
   123   60   62 1    
   124   62   63 1    
   125   62   64 1    
   126   62  185 1    
   127   63  186 1    
   128   63  187 1    
   129   63  188 1    
   130   64   65 am   BACKBONE|DICT|INTERRES
   131   64  189 1    
   132   65   66 2    
   133   67   68 2    
   134   67   69 am   BACKBONE|DICT|INTERRES
   135   69   70 1    
   136   69  190 1    
   137   70   71 1    
   138   70   72 1    
   139   70  191 1    
   140   71  192 1    
   141   71  193 1    
   142   71  194 1    
   143   72   73 2    
   144   72   74 am   BACKBONE|DICT|INTERRES
   145   74   75 1    
   146   74  195 1    
   147   75   76 1    
   148   75   77 1    
   149   75  196 1    
   150   76  197 1    
   151   76  198 1    
   152   76  199 1    
   153   77   78 2    
   154   77   79 am   BACKBONE|DICT|INTERRES
   155   79   80 1    
   156   79  200 1    
   157   80   81 1    
   158   80   82 1    
   159   80  201 1    
   160   81  202 1    
   161   81  203 1    
   162   81  204 1    
   163   82   83 2    
   164   82   84 am   BACKBONE|DICT|INTERRES
   165   84   85 1    
   166   84  205 1    
   167   85   86 1    
   168   85   87 1    
   169   85  206 1    
   170   86  207 1    
   171   86  208 1    
   172   86  209 1    
   173   87   88 2    
   174   87   89 am   BACKBONE|DICT|INTERRES
   175   89   90 1    
   176   89  210 1    
   177   90   91 1    
   178   90   92 1    
   179   90  211 1    
   180   91  212 1    
   181   91  213 1    
   182   91  214 1    
   183   92   93 2    
   184   92   94 am   BACKBONE|DICT|INTERRES
   185   94   95 1    
   186   94  215 1    
   187   95   96 1    
   188   95   97 1    
   189   95  216 1    
   190   96  217 1    
   191   96  218 1    
   192   96  219 1    
   193   97   98 2    
   194   97   99 am   BACKBONE|DICT|INTERRES
   195   99  100 1    
   196   99  220 1    
   197  100  101 1    
   198  100  102 1    
   199  100  221 1    
   200  101  222 1    
   201  101  223 1    
   202  101  224 1    
   203  102  103 2    
   204  102  104 am   BACKBONE|DICT|INTERRES
   205  104  105 1    
   206  104  225 1    
   207  105  106 1    
   208  105  107 1    
   209  105  226 1    
   210  106  227 1    
   211  106  228 1    
   212  106  229 1    
   213  107  108 2    
   214  107  109 am   BACKBONE|DICT|INTERRES
   215  109  110 1    
   216  109  230 1    
   217  110  111 1    
   218  110  112 1    
   219  110  231 1    
   220  111  232 1    
   221  111  233 1    
   222  111  234 1    
   223  112  113 2    
   224  112  114 am   BACKBONE|DICT|INTERRES
   225  114  115 1    
   226  114  235 1    
   227  115  116 1    
   228  115  117 1    
   229  115  236 1    
   230  116  237 1    
   231  116  238 1    
   232  116  239 1    
   233  117  118 2    
   234  117  119 am   BACKBONE|DICT|INTERRES
   235  119  120 1    
   236  119  240 1    
   237  120  121 1    
   238  120  124 1    
   239  120  241 1    
   240  121  122 am   BACKBONE|DICT|INTERRES
   241  121  123 2    
   242  122  242 1    
   243  122  243 1    
   244  124  125 1    
   245  124  244 1    
   246  124  245 1    
   247  125  126 1    
   248  126  246 1    
   249  126  247 1    
@<TRIPOS>SUBSTRUCTURE
     1 UNK         1 GROUP             0       ****    0 ROOT    
