@<TRIPOS>MOLECULE
3R540
247   249    1
SMALL
USER_CHARGES


@<TRIPOS>ATOM
      1 CA         -4.3788  -16.0846  -45.0228 C.3       0 UNK        -0.1800 
      2 C          -3.6780  -14.7765  -44.6920 C.2       0 UNK         0.5000 
      3 O          -3.9591  -14.1745  -43.6554 O.2       0 UNK        -0.5000 
      4 N          -2.7578  -14.3373  -45.5598 N.am      1 UNK        -0.5000 
      5 CA         -2.0185  -13.0703  -45.4687 C.3       1 UNK         0.1400 
      6 C6         -1.5457  -12.5869  -46.8648 C.3       23 UNK        -0.0398 
      7 S7         -2.9658  -12.2241  -47.9551 S.3       23 UNK        -0.2404 
      8 C8         -2.2985  -12.5733  -49.6138 C.3       23 UNK        -0.0205 
      9 C9         -2.1259  -14.0620  -49.8844 C.ar      23 UNK        -0.0193 
     10 C10        -0.8570  -14.5838  -50.1533 C.ar      23 UNK        -0.1150 
     11 C11        -0.6902  -15.9458  -50.4188 C.ar      23 UNK        -0.0193 
     12 C12        -1.8049  -16.7865  -50.4162 C.ar      23 UNK        -0.1150 
     13 C13        -3.0834  -16.2751  -50.1778 C.ar      23 UNK        -0.0193 
     14 C14        -3.2373  -14.9120  -49.9085 C.ar      23 UNK        -0.1150 
     15 C15        -4.2966  -17.1922  -50.2484 C.3       23 UNK        -0.0205 
     16 S16        -4.8710  -17.7633  -48.6137 S.3       23 UNK        -0.2404 
     17 C17        -3.3788  -18.5137  -47.8796 C.3       23 UNK        -0.0398 
     18 CA         -2.9389  -19.8315  -48.5621 C.3       11 UNK         0.1400 
     19 N          -1.4990  -20.0416  -48.4191 N.am      11 UNK        -0.5000 
     20 C          -0.7400  -20.7968  -49.2208 C.2       10 UNK         0.5000 
     21 O          -1.1513  -21.2953  -50.2695 O.2       10 UNK        -0.5000 
     22 CA          0.7151  -21.0450  -48.7741 C.3       10 UNK         0.1400 
     23 CB          1.7030  -20.1583  -49.5451 C.3       10 UNK        -0.1800 
     24 N           0.9091  -20.8326  -47.3392 N.am      10 UNK        -0.5000 
     25 C           0.5941  -21.7179  -46.3846 C.2       9 UNK         0.5000 
     26 O           0.1659  -22.8477  -46.6141 O.2       9 UNK        -0.5000 
     27 CA          0.7500  -21.2444  -44.9270 C.3       9 UNK         0.1400 
     28 CB          2.1633  -21.5480  -44.4088 C.3       9 UNK        -0.1800 
     29 N           0.4643  -19.8157  -44.7636 N.am      9 UNK        -0.5000 
     30 C          -0.7598  -19.2802  -44.8841 C.2       8 UNK         0.5000 
     31 O          -1.7640  -19.9423  -45.1390 O.2       8 UNK        -0.5000 
     32 CA         -0.8908  -17.7493  -44.7679 C.3       8 UNK         0.1400 
     33 CB         -1.1460  -17.3414  -43.3125 C.3       8 UNK        -0.1800 
     34 N           0.2638  -17.0141  -45.2822 N.am      8 UNK        -0.5000 
     35 C           0.7293  -17.1006  -46.5353 C.2       7 UNK         0.5000 
     36 O           0.1809  -17.7600  -47.4176 O.2       7 UNK        -0.5000 
     37 CA          2.0542  -16.3803  -46.8469 C.3       7 UNK         0.1400 
     38 CB          1.7720  -14.9805  -47.4112 C.3       7 UNK        -0.1800 
     39 N           2.9706  -16.2259  -45.7154 N.am      7 UNK        -0.5000 
     40 C           3.3857  -17.1422  -44.8288 C.2       6 UNK         0.5000 
     41 O           3.0194  -18.3178  -44.8451 O.2       6 UNK        -0.5000 
     42 CA          4.3625  -16.6610  -43.7278 C.3       6 UNK         0.1400 
     43 CB          5.6021  -17.5682  -43.6583 C.3       6 UNK        -0.1800 
     44 N           4.8084  -15.2693  -43.8873 N.am      6 UNK        -0.5000 
     45 C           4.0546  -14.1779  -43.6948 C.2       5 UNK         0.5000 
     46 O           2.8945  -14.2298  -43.2852 O.2       5 UNK        -0.5000 
     47 CA          4.6657  -12.8241  -44.1025 C.3       5 UNK         0.1400 
     48 CB          5.5459  -12.9459  -45.3716 C.3       5 UNK        -0.1800 
     49 N           3.5736  -11.8766  -44.3212 N.am      5 UNK        -0.5000 
     50 C           3.6932  -10.5646  -44.5576 C.2       4 UNK         0.5000 
     51 O           4.7654   -9.9585  -44.5652 O.2       4 UNK        -0.5000 
     52 CA          2.3897   -9.7966  -44.8247 C.3       4 UNK         0.1400 
     53 CB          1.8282  -10.1307  -46.2171 C.3       4 UNK        -0.1800 
     54 N           1.3842  -10.0828  -43.8037 N.am      4 UNK        -0.5000 
     55 C           1.3276   -9.4623  -42.6156 C.2       3 UNK         0.5000 
     56 O           2.1121   -8.5772  -42.2714 O.2       3 UNK        -0.5000 
     57 CA          0.2009   -9.8767  -41.6487 C.3       3 UNK         0.1400 
     58 CB         -0.9698   -8.8850  -41.7337 C.3       3 UNK        -0.1800 
     59 N          -0.3046  -11.2242  -41.9024 N.am      3 UNK        -0.5000 
     60 C           0.3476  -12.3537  -41.5973 C.2       2 UNK         0.5000 
     61 O           1.4181  -12.3790  -40.9899 O.2       2 UNK        -0.5000 
     62 CA         -0.3126  -13.6732  -42.0442 C.3       2 UNK         0.1400 
     63 CB         -1.0949  -14.2898  -40.8732 C.3       2 UNK        -0.1800 
     64 N          -1.2134  -13.5307  -43.1939 N.am      2 UNK        -0.5000 
     65 C          -0.8741  -13.1319  -44.4276 C.2       1 UNK         0.5000 
     66 O           0.2712  -12.8000  -44.7366 O.2       1 UNK        -0.5000 
     67 C          -3.7234  -21.0525  -48.0384 C.2       11 UNK         0.5000 
     68 O          -4.6445  -21.5208  -48.7029 O.2       11 UNK        -0.5000 
     69 N          -3.3113  -21.5765  -46.8772 N.am      12 UNK        -0.5000 
     70 CA         -3.8996  -22.7439  -46.2175 C.3       12 UNK         0.1400 
     71 CB         -3.6038  -22.6476  -44.7120 C.3       12 UNK        -0.1800 
     72 C          -3.4114  -24.0953  -46.7798 C.2       12 UNK         0.5000 
     73 O          -3.8332  -25.1351  -46.2714 O.2       12 UNK        -0.5000 
     74 N          -2.5346  -24.0700  -47.7931 N.am      13 UNK        -0.5000 
     75 CA         -1.8802  -25.2210  -48.4187 C.3       13 UNK         0.1400 
     76 CB         -1.0553  -24.7326  -49.6171 C.3       13 UNK        -0.1800 
     77 C          -2.8559  -26.3354  -48.8434 C.2       13 UNK         0.5000 
     78 O          -3.8015  -26.0711  -49.5901 O.2       13 UNK        -0.5000 
     79 N          -2.6099  -27.5505  -48.3313 N.am      14 UNK        -0.5000 
     80 CA         -3.4136  -28.7674  -48.5031 C.3       14 UNK         0.1400 
     81 CB         -3.3398  -29.2643  -49.9621 C.3       14 UNK        -0.1800 
     82 C          -4.8634  -28.6026  -47.9976 C.2       14 UNK         0.5000 
     83 O          -5.8003  -29.0392  -48.6642 O.2       14 UNK        -0.5000 
     84 N          -5.0265  -27.9272  -46.8490 N.am      15 UNK        -0.5000 
     85 CA         -6.3052  -27.5091  -46.2537 C.3       15 UNK         0.1400 
     86 CB         -7.1281  -28.7274  -45.7845 C.3       15 UNK        -0.1800 
     87 C          -7.0920  -26.5619  -47.1870 C.2       15 UNK         0.5000 
     88 O          -8.3102  -26.6795  -47.3255 O.2       15 UNK        -0.5000 
     89 N          -6.3412  -25.6604  -47.8330 N.am      16 UNK        -0.5000 
     90 CA         -6.7392  -24.6868  -48.8517 C.3       16 UNK         0.1400 
     91 CB         -7.7798  -23.6917  -48.3001 C.3       16 UNK        -0.1800 
     92 C          -7.1616  -25.3052  -50.2030 C.2       16 UNK         0.5000 
     93 O          -7.6682  -24.5790  -51.0591 O.2       16 UNK        -0.5000 
     94 N          -6.9167  -26.6074  -50.4169 N.am      17 UNK        -0.5000 
     95 CA         -7.1458  -27.2751  -51.7028 C.3       17 UNK         0.1400 
     96 CB         -7.2190  -28.7950  -51.4978 C.3       17 UNK        -0.1800 
     97 C          -6.0720  -26.9261  -52.7522 C.2       17 UNK         0.5000 
     98 O          -6.3421  -27.0387  -53.9484 O.2       17 UNK        -0.5000 
     99 N          -4.8887  -26.4987  -52.2933 N.am      18 UNK        -0.5000 
    100 CA        -3.7618  -26.0570  -53.1130 C.3       18 UNK         0.1400 
    101 CB        -2.5776  -27.0161  -52.8909 C.3       18 UNK        -0.1800 
    102 C         -3.4038  -24.5958  -52.7812 C.2       18 UNK         0.5000 
    103 O         -2.2324  -24.2231  -52.8562 O.2       18 UNK        -0.5000 
    104 N         -4.4174  -23.8026  -52.4000 N.am      19 UNK        -0.5000 
    105 CA        -4.3089  -22.4002  -51.9964 C.3       19 UNK         0.1400 
    106 CB        -5.7103  -21.8630  -51.6671 C.3       19 UNK        -0.1800 
    107 C         -3.6495  -21.4972  -53.0536 C.2       19 UNK         0.5000 
    108 O         -3.8272  -21.7189  -54.2540 O.2       19 UNK        -0.5000 
    109 N         -2.9328  -20.4778  -52.5632 N.am      20 UNK        -0.5000 
    110 CA        -2.1173  -19.5272  -53.3223 C.3       20 UNK         0.1400 
    111 CB        -2.9542  -18.7133  -54.3308 C.3       20 UNK        -0.1800 
    112 C         -0.8787  -20.2039  -53.9368 C.2       20 UNK         0.5000 
    113 O         -0.4833  -19.8873  -55.0608 O.2       20 UNK        -0.5000 
    114 N         -0.2497  -21.0932  -53.1515 N.am      21 UNK        -0.5000 
    115 CA         0.9926  -21.7984  -53.4894 C.3       21 UNK         0.1400 
    116 CB         1.2744  -22.8558  -52.4106 C.3       21 UNK        -0.1800 
    117 C          2.2086  -20.8631  -53.6766 C.2       21 UNK         0.5000 
    118 O          3.2110  -21.2750  -54.2612 O.2       21 UNK        -0.5000 
    119 N          2.0817  -19.6174  -53.2028 N.am      22 UNK        -0.5000 
    120 CA         2.9752  -18.4868  -53.4787 C.3       22 UNK         0.1400 
    121 C          2.9669  -17.9923  -54.9582 C.2       22 UNK         0.5000 
    122 N          1.9943  -18.3603  -55.7861 N.am      22 UNK        -0.7600 
    123 O          3.8714  -17.2679  -55.3646 O.2       22 UNK        -0.5000 
    124 C124        2.7179  -17.3200  -52.4875 C.3       23 UNK        -0.0398 
    125 S125        0.9867  -16.7172  -52.4817 S.3       23 UNK        -0.2404 
    126 C126        0.6907  -16.5160  -50.6996 C.3       23 UNK        -0.0205 
    127 H127       -5.4600  -15.9536  -44.9794 H         1 UNK         0.0600 
    128 H128       -4.0978  -16.8576  -44.3079 H         1 UNK         0.0600 
    129 H129       -4.1222  -16.4284  -46.0230 H         1 UNK         0.0600 
    130 H130       -2.5749  -14.8762  -46.3936 H         1 UNK         0.3000 
    131 H131       -2.7074  -12.3114  -45.0910 H         1 UNK         0.0600 
    132 H132       -0.8985  -13.3320  -47.3294 H         1 UNK         0.0800 
    133 H133       -0.9568  -11.6718  -46.7828 H         1 UNK         0.0800 
    134 H134       -1.3560  -12.0382  -49.7396 H         1 UNK         0.0800 
    135 H135       -2.9828  -12.1629  -50.3575 H         1 UNK         0.0800 
    136 H136        0.0034  -13.9295  -50.1581 H         1 UNK         0.1150 
    137 H137       -1.6732  -17.8410  -50.6028 H         1 UNK         0.1150 
    138 H138       -4.2234  -14.5101  -49.7215 H         1 UNK         0.1150 
    139 H139       -5.1171  -16.6624  -50.7345 H         1 UNK         0.0800 
    140 H140       -4.0874  -18.0517  -50.8861 H         1 UNK         0.0800 
    141 H141       -3.5593  -18.6667  -46.8144 H         1 UNK         0.0800 
    142 H142       -2.5801  -17.7728  -47.9244 H         1 UNK         0.0800 
    143 H143       -3.1470  -19.7528  -49.6292 H         1 UNK         0.0600 
    144 H144       -1.0506  -19.5940  -47.6306 H         1 UNK         0.3000 
    145 H145        0.9453  -22.0841  -49.0144 H         1 UNK         0.0600 
    146 H146        2.7089  -20.5764  -49.5074 H         1 UNK         0.0600 
    147 H147        1.4272  -20.0704  -50.5947 H         1 UNK         0.0600 
    148 H148        1.7542  -19.1540  -49.1287 H         1 UNK         0.0600 
    149 H149        1.2264  -19.9156  -47.0574 H         1 UNK         0.3000 
    150 H150        0.0378  -21.8052  -44.3180 H         1 UNK         0.0600 
    151 H151        2.3758  -22.6166  -44.4607 H         1 UNK         0.0600 
    152 H152        2.2766  -21.2434  -43.3683 H         1 UNK         0.0600 
    153 H153        2.9268  -21.0337  -44.9936 H         1 UNK         0.0600 
    154 H154        1.2645  -19.2071  -44.6161 H         1 UNK         0.3000 
    155 H155       -1.7562  -17.4532  -45.3625 H         1 UNK         0.0600 
    156 H156       -0.2821  -17.5424  -42.6777 H         1 UNK         0.0600 
    157 H157       -1.9967  -17.8818  -42.8951 H         1 UNK         0.0600 
    158 H158       -1.3750  -16.2804  -43.2458 H         1 UNK         0.0600 
    159 H159        0.7854  -16.4588  -44.6199 H         1 UNK         0.3000 
    160 H160        2.5660  -16.9690  -47.6102 H         1 UNK         0.0600 
    161 H161        1.4395  -14.2940  -46.6323 H         1 UNK         0.0600 
    162 H162        0.9896  -15.0075  -48.1657 H         1 UNK         0.0600 
    163 H163        2.6610  -14.5538  -47.8757 H         1 UNK         0.0600 
    164 H164        3.3251  -15.2921  -45.5798 H         1 UNK         0.3000 
    165 H165        3.8305  -16.7411  -42.7777 H         1 UNK         0.0600 
    166 H166        6.2662  -17.2676  -42.8477 H         1 UNK         0.0600 
    167 H167        5.3216  -18.6063  -43.4748 H         1 UNK         0.0600 
    168 H168        6.1717  -17.5415  -44.5880 H         1 UNK         0.0600 
    169 H169        5.7453  -15.1465  -44.2440 H         1 UNK         0.3000 
    170 H170        5.2734  -12.4688  -43.2684 H         1 UNK         0.0600 
    171 H171        6.4011  -13.6020  -45.2080 H         1 UNK         0.0600 
    172 H172        4.9788  -13.3410  -46.2154 H         1 UNK         0.0600 
    173 H173        5.9594  -11.9853  -45.6761 H         1 UNK         0.0600 
    174 H174        2.6493  -12.2922  -44.2647 H         1 UNK         0.3000 
    175 H175        2.6179   -8.7284  -44.8114 H         1 UNK         0.0600 
    176 H176        1.6175  -11.1941  -46.3311 H         1 UNK         0.0600 
    177 H177        0.9061   -9.5832  -46.4127 H         1 UNK         0.0600 
    178 H178        2.5402   -9.8567  -46.9965 H         1 UNK         0.0600 
    179 H179        0.7490  -10.8474  -43.9947 H         1 UNK         0.3000 
    180 H180        0.6050   -9.8417  -40.6347 H         1 UNK         0.0600 
    181 H181       -1.7473   -9.1290  -41.0095 H         1 UNK         0.0600 
    182 H182       -1.4229   -8.8805  -42.7259 H         1 UNK         0.0600 
    183 H183       -0.6369   -7.8683  -41.5204 H         1 UNK         0.0600 
    184 H184       -1.1916  -11.2979  -42.3779 H         1 UNK         0.3000 
    185 H185        0.4814  -14.3651  -42.3277 H         1 UNK         0.0600 
    186 H186       -1.5098  -15.2626  -41.1338 H         1 UNK         0.0600 
    187 H187       -0.4487  -14.4378  -40.0069 H         1 UNK         0.0600 
    188 H188       -1.9201  -13.6484  -40.5613 H         1 UNK         0.0600 
    189 H189       -2.1890  -13.7730  -43.0430 H         1 UNK         0.3000 
    190 H190       -2.5809  -21.0977  -46.3559 H         1 UNK         0.3000 
    191 H191       -4.9828  -22.7144  -46.3522 H         1 UNK         0.0600 
    192 H192       -4.0767  -23.4623  -44.1622 H         1 UNK         0.0600 
    193 H193       -3.9823  -21.7142  -44.2947 H         1 UNK         0.0600 
    194 H194       -2.5324  -22.6926  -44.5119 H         1 UNK         0.0600 
    195 H195       -2.2477  -23.1640  -48.1292 H         1 UNK         0.3000 
    196 H196       -1.1876  -25.6303  -47.6809 H         1 UNK         0.0600 
    197 H197       -1.6596  -24.1327  -50.2967 H         1 UNK         0.0600 
    198 H198       -0.2164  -24.1199  -49.2904 H         1 UNK         0.0600 
    199 H199       -0.6440  -25.5664  -50.1875 H         1 UNK         0.0600 
    200 H200       -1.8124  -27.6517  -47.7188 H         1 UNK         0.3000 
    201 H201       -2.9576  -29.5314  -47.8721 H         1 UNK         0.0600 
    202 H202       -3.8439  -28.5839  -50.6473 H         1 UNK         0.0600 
    203 H203       -3.8142  -30.2406  -50.0669 H         1 UNK         0.0600 
    204 H204       -2.3067  -29.3684  -50.2933 H         1 UNK         0.0600 
    205 H205       -4.2014  -27.5496  -46.4014 H         1 UNK         0.3000 
    206 H206       -6.0534  -26.9223  -45.3691 H         1 UNK         0.0600 
    207 H207       -6.5410  -29.3705  -45.1291 H         1 UNK         0.0600 
    208 H208       -8.0077  -28.4095  -45.2237 H         1 UNK         0.0600 
    209 H209       -7.4779  -29.3314  -46.6221 H         1 UNK         0.0600 
    210 H210       -5.3473  -25.6815  -47.6342 H         1 UNK         0.3000 
    211 H211       -5.8341  -24.1171  -49.0674 H         1 UNK         0.0600 
    212 H212       -7.9435  -22.8705  -48.9987 H         1 UNK         0.0600 
    213 H213       -7.4443  -23.2512  -47.3613 H         1 UNK         0.0600 
    214 H214       -8.7449  -24.1673  -48.1253 H         1 UNK         0.0600 
    215 H215       -6.4976  -27.1630  -49.6814 H         1 UNK         0.3000 
    216 H216       -8.1112  -26.9464  -52.0935 H         1 UNK         0.0600 
    217 H217       -6.2494  -29.2128  -51.2273 H         1 UNK         0.0600 
    218 H218       -7.5408  -29.2935  -52.4129 H         1 UNK         0.0600 
    219 H219       -7.9312  -29.0579  -50.7154 H         1 UNK         0.0600 
    220 H220       -4.7485  -26.4107  -51.2897 H         1 UNK         0.3000 
    221 H221       -4.0233  -26.0794  -54.1725 H         1 UNK         0.0600 
    222 H222       -2.8586  -28.0463  -53.1094 H         1 UNK         0.0600 
    223 H223       -2.2182  -26.9773  -51.8623 H         1 UNK         0.0600 
    224 H224       -1.7398  -26.7641  -53.5419 H         1 UNK         0.0600 
    225 H225       -5.3460  -24.1983  -52.3875 H         1 UNK         0.3000 
    226 H226       -3.6985  -22.3762  -51.0916 H         1 UNK         0.0600 
    227 H227       -6.3878  -21.9535  -52.5170 H         1 UNK         0.0600 
    228 H228       -6.1504  -22.3964  -50.8269 H         1 UNK         0.0600 
    229 H229       -5.6724  -20.8096  -51.3856 H         1 UNK         0.0600 
    230 H230       -2.7934  -20.4545  -51.5622 H         1 UNK         0.3000 
    231 H231       -1.7251  -18.8173  -52.5964 H         1 UNK         0.0600 
    232 H232       -3.3061  -19.3249  -55.1616 H         1 UNK         0.0600 
    233 H233       -2.3629  -17.9013  -54.7556 H         1 UNK         0.0600 
    234 H234       -3.8230  -18.2637  -53.8500 H         1 UNK         0.0600 
    235 H235       -0.6483  -21.3037  -52.2419 H         1 UNK         0.3000 
    236 H236        0.8313  -22.3135  -54.4384 H         1 UNK         0.0600 
    237 H237        0.4391  -23.5493  -52.3095 H         1 UNK         0.0600 
    238 H238        2.1567  -23.4455  -52.6619 H         1 UNK         0.0600 
    239 H239        1.4505  -22.4022  -51.4363 H         1 UNK         0.0600 
    240 H240        1.2111  -19.3742  -52.7569 H         1 UNK         0.3000 
    241 H241        3.9916  -18.8415  -53.2977 H         1 UNK         0.0600 
    242 H242        2.0104  -18.0341  -56.7392 H         1 UNK         0.3800 
    243 H243        1.2207  -18.9360  -55.4702 H         1 UNK         0.3800 
    244 H244        3.3795  -16.4782  -52.6993 H         1 UNK         0.0800 
    245 H245        2.9822  -17.6500  -51.4819 H         1 UNK         0.0800 
    246 H246        1.4650  -15.8713  -50.2828 H         1 UNK         0.0800 
    247 H247        0.7840  -17.4793  -50.2032 H         1 UNK         0.0800 
@<TRIPOS>BOND
     1    1    2 1    
     2    1  127 1    
     3    1  128 1    
     4    1  129 1    
     5    2    3 2    
     6    2    4 am   BACKBONE|DICT|INTERRES
     7    4    5 1    
     8    4  130 1    
     9    5    6 1    
    10    5   65 1    
    11    5  131 1    
    12    6    7 1    
    13    6  132 1    
    14    6  133 1    
    15    7    8 1    
    16    8    9 1    
    17    8  134 1    
    18    8  135 1    
    19    9   10 ar   
    20    9   14 ar   
    21   10   11 ar   
    22   10  136 1    
    23   11   12 ar   
    24   11  126 1    
    25   12   13 ar   
    26   12  137 1    
    27   13   14 ar   
    28   13   15 1    
    29   14  138 1    
    30   15   16 1    
    31   15  139 1    
    32   15  140 1    
    33   16   17 1    
    34   17   18 1    
    35   17  141 1    
    36   17  142 1    
    37   18   19 1    
    38   18   67 1    
    39   18  143 1    
    40   19   20 am   BACKBONE|DICT|INTERRES
    41   19  144 1    
    42   20   21 2    
    43   20   22 1    
    44   22   23 1    
    45   22   24 1    
    46   22  145 1    
    47   23  146 1    
    48   23  147 1    
    49   23  148 1    
    50   24   25 am   BACKBONE|DICT|INTERRES
    51   24  149 1    
    52   25   26 2    
    53   25   27 1    
    54   27   28 1    
    55   27   29 1    
    56   27  150 1    
    57   28  151 1    
    58   28  152 1    
    59   28  153 1    
    60   29   30 am   BACKBONE|DICT|INTERRES
    61   29  154 1    
    62   30   31 2    
    63   30   32 1    
    64   32   33 1    
    65   32   34 1    
    66   32  155 1    
    67   33  156 1    
    68   33  157 1    
    69   33  158 1    
    70   34   35 am   BACKBONE|DICT|INTERRES
    71   34  159 1    
    72   35   36 2    
    73   35   37 1    
    74   37   38 1    
    75   37   39 1    
    76   37  160 1    
    77   38  161 1    
    78   38  162 1    
    79   38  163 1    
    80   39   40 am   BACKBONE|DICT|INTERRES
    81   39  164 1    
    82   40   41 2    
    83   40   42 1    
    84   42   43 1    
    85   42   44 1    
    86   42  165 1    
    87   43  166 1    
    88   43  167 1    
    89   43  168 1    
    90   44   45 am   BACKBONE|DICT|INTERRES
    91   44  169 1    
    92   45   46 2    
    93   45   47 1    
    94   47   48 1    
    95   47   49 1    
    96   47  170 1    
    97   48  171 1    
    98   48  172 1    
    99   48  173 1    
   100   49   50 am   BACKBONE|DICT|INTERRES
   101   49  174 1    
   102   50   51 2    
   103   50   52 1    
   104   52   53 1    
   105   52   54 1    
   106   52  175 1    
   107   53  176 1    
   108   53  177 1    
   109   53  178 1    
   110   54   55 am   BACKBONE|DICT|INTERRES
   111   54  179 1    
   112   55   56 2    
   113   55   57 1    
   114   57   58 1    
   115   57   59 1    
   116   57  180 1    
   117   58  181 1    
   118   58  182 1    
   119   58  183 1    
   120   59   60 am   BACKBONE|DICT|INTERRES
   121   59  184 1    
   122   60   61 2    
   123   60   62 1    
   124   62   63 1    
   125   62   64 1    
   126   62  185 1    
   127   63  186 1    
   128   63  187 1    
   129   63  188 1    
   130   64   65 am   BACKBONE|DICT|INTERRES
   131   64  189 1    
   132   65   66 2    
   133   67   68 2    
   134   67   69 am   BACKBONE|DICT|INTERRES
   135   69   70 1    
   136   69  190 1    
   137   70   71 1    
   138   70   72 1    
   139   70  191 1    
   140   71  192 1    
   141   71  193 1    
   142   71  194 1    
   143   72   73 2    
   144   72   74 am   BACKBONE|DICT|INTERRES
   145   74   75 1    
   146   74  195 1    
   147   75   76 1    
   148   75   77 1    
   149   75  196 1    
   150   76  197 1    
   151   76  198 1    
   152   76  199 1    
   153   77   78 2    
   154   77   79 am   BACKBONE|DICT|INTERRES
   155   79   80 1    
   156   79  200 1    
   157   80   81 1    
   158   80   82 1    
   159   80  201 1    
   160   81  202 1    
   161   81  203 1    
   162   81  204 1    
   163   82   83 2    
   164   82   84 am   BACKBONE|DICT|INTERRES
   165   84   85 1    
   166   84  205 1    
   167   85   86 1    
   168   85   87 1    
   169   85  206 1    
   170   86  207 1    
   171   86  208 1    
   172   86  209 1    
   173   87   88 2    
   174   87   89 am   BACKBONE|DICT|INTERRES
   175   89   90 1    
   176   89  210 1    
   177   90   91 1    
   178   90   92 1    
   179   90  211 1    
   180   91  212 1    
   181   91  213 1    
   182   91  214 1    
   183   92   93 2    
   184   92   94 am   BACKBONE|DICT|INTERRES
   185   94   95 1    
   186   94  215 1    
   187   95   96 1    
   188   95   97 1    
   189   95  216 1    
   190   96  217 1    
   191   96  218 1    
   192   96  219 1    
   193   97   98 2    
   194   97   99 am   BACKBONE|DICT|INTERRES
   195   99  100 1    
   196   99  220 1    
   197  100  101 1    
   198  100  102 1    
   199  100  221 1    
   200  101  222 1    
   201  101  223 1    
   202  101  224 1    
   203  102  103 2    
   204  102  104 am   BACKBONE|DICT|INTERRES
   205  104  105 1    
   206  104  225 1    
   207  105  106 1    
   208  105  107 1    
   209  105  226 1    
   210  106  227 1    
   211  106  228 1    
   212  106  229 1    
   213  107  108 2    
   214  107  109 am   BACKBONE|DICT|INTERRES
   215  109  110 1    
   216  109  230 1    
   217  110  111 1    
   218  110  112 1    
   219  110  231 1    
   220  111  232 1    
   221  111  233 1    
   222  111  234 1    
   223  112  113 2    
   224  112  114 am   BACKBONE|DICT|INTERRES
   225  114  115 1    
   226  114  235 1    
   227  115  116 1    
   228  115  117 1    
   229  115  236 1    
   230  116  237 1    
   231  116  238 1    
   232  116  239 1    
   233  117  118 2    
   234  117  119 am   BACKBONE|DICT|INTERRES
   235  119  120 1    
   236  119  240 1    
   237  120  121 1    
   238  120  124 1    
   239  120  241 1    
   240  121  122 am   BACKBONE|DICT|INTERRES
   241  121  123 2    
   242  122  242 1    
   243  122  243 1    
   244  124  125 1    
   245  124  244 1    
   246  124  245 1    
   247  125  126 1    
   248  126  246 1    
   249  126  247 1    
@<TRIPOS>SUBSTRUCTURE
     1 UNK         1 GROUP             0       ****    0 ROOT    
