@<TRIPOS>MOLECULE
3R540
247   249    1
SMALL
USER_CHARGES


@<TRIPOS>ATOM
      1 CA         -0.4845  -11.7850  -45.4220 C.3       0 UNK        -0.1800 
      2 C          -0.7152  -13.2635  -45.6938 C.2       0 UNK         0.5000 
      3 O          -0.5900  -14.0831  -44.7828 O.2       0 UNK        -0.5000 
      4 N          -1.0762  -13.5973  -46.9410 N.am      1 UNK        -0.5000 
      5 CA         -1.3177  -14.9573  -47.4503 C.3       1 UNK         0.1400 
      6 C6         -1.5296  -14.9373  -48.9870 C.3       23 UNK        -0.0398 
      7 S7         -1.2376  -16.5533  -49.7836 S.3       23 UNK        -0.2404 
      8 C8          0.5184  -16.4158  -50.2375 C.3       23 UNK        -0.0205 
      9 C9          1.0236  -17.7251  -50.8210 C.ar      23 UNK        -0.0193 
     10 C10         0.8737  -17.9942  -52.1827 C.ar      23 UNK        -0.1150 
     11 C11         1.3021  -19.2115  -52.7162 C.ar      23 UNK        -0.0193 
     12 C12         1.8874  -20.1629  -51.8764 C.ar      23 UNK        -0.1150 
     13 C13         2.0478  -19.9114  -50.5097 C.ar      23 UNK        -0.0193 
     14 C14         1.6248  -18.6774  -49.9943 C.ar      23 UNK        -0.1150 
     15 C15         2.6796  -21.0025  -49.6404 C.3       23 UNK        -0.0205 
     16 S16         2.4554  -20.8195  -47.8359 S.3       23 UNK        -0.2404 
     17 C17         0.6411  -20.9449  -47.6771 C.3       23 UNK        -0.0398 
     18 CA          0.1887  -22.2381  -46.9613 C.3       11 UNK         0.1400 
     19 N           0.8039  -22.4132  -45.6424 N.am      11 UNK        -0.5000 
     20 C           0.7216  -23.5251  -44.8987 C.2       10 UNK         0.5000 
     21 O           0.1427  -24.5488  -45.2605 O.2       10 UNK        -0.5000 
     22 CA          1.3529  -23.4629  -43.4964 C.3       10 UNK         0.1400 
     23 CB          2.8636  -23.7291  -43.5670 C.3       10 UNK        -0.1800 
     24 N           1.1143  -22.1737  -42.8471 N.am      10 UNK        -0.5000 
     25 C          -0.0880  -21.7528  -42.4258 C.2       9 UNK         0.5000 
     26 O          -1.1076  -22.4410  -42.4725 O.2       9 UNK        -0.5000 
     27 CA         -0.1774  -20.2937  -41.9361 C.3       9 UNK         0.1400 
     28 CB          0.1391  -20.1955  -40.4380 C.3       9 UNK        -0.1800 
     29 N           0.7022  -19.3948  -42.6896 N.am      9 UNK        -0.5000 
     30 C           0.5576  -19.1522  -44.0016 C.2       8 UNK         0.5000 
     31 O          -0.3635  -19.6193  -44.6657 O.2       8 UNK        -0.5000 
     32 CA          1.5915  -18.2632  -44.7137 C.3       8 UNK         0.1400 
     33 CB          0.9679  -16.9052  -45.0494 C.3       8 UNK        -0.1800 
     34 N           2.8249  -18.0488  -43.9642 N.am      8 UNK        -0.5000 
     35 C           3.7306  -18.9887  -43.6615 C.2       7 UNK         0.5000 
     36 O           3.6405  -20.1663  -44.0093 O.2       7 UNK        -0.5000 
     37 CA          4.8960  -18.5322  -42.7613 C.3       7 UNK         0.1400 
     38 CB          6.0882  -18.0718  -43.6124 C.3       7 UNK        -0.1800 
     39 N           4.5056  -17.4483  -41.8527 N.am      7 UNK        -0.5000 
     40 C           3.5926  -17.5626  -40.8794 C.2       6 UNK         0.5000 
     41 O           3.0303  -18.6209  -40.6003 O.2       6 UNK        -0.5000 
     42 CA          3.1807  -16.2753  -40.1499 C.3       6 UNK         0.1400 
     43 CB          4.2767  -15.7771  -39.1883 C.3       6 UNK        -0.1800 
     44 N           2.7132  -15.2246  -41.0624 N.am      6 UNK        -0.5000 
     45 C           3.4132  -14.4543  -41.9096 C.2       5 UNK         0.5000 
     46 O           4.6288  -14.5658  -42.0750 O.2       5 UNK        -0.5000 
     47 CA          2.6377  -13.3986  -42.7336 C.3       5 UNK         0.1400 
     48 CB          2.8620  -13.5972  -44.2410 C.3       5 UNK        -0.1800 
     49 N           1.1959  -13.3701  -42.4610 N.am      5 UNK        -0.5000 
     50 C           0.6406  -12.8292  -41.3671 C.2       4 UNK         0.5000 
     51 O           1.2848  -12.2225  -40.5107 O.2       4 UNK        -0.5000 
     52 CA         -0.8769  -13.0214  -41.1632 C.3       4 UNK         0.1400 
     53 CB         -1.6426  -11.7661  -41.6074 C.3       4 UNK        -0.1800 
     54 N          -1.4663  -14.1916  -41.8235 N.am      4 UNK        -0.5000 
     55 C          -1.0968  -15.4719  -41.6649 C.2       3 UNK         0.5000 
     56 O          -0.1284  -15.8227  -40.9910 O.2       3 UNK        -0.5000 
     57 CA         -1.9468  -16.5437  -42.3704 C.3       3 UNK         0.1400 
     58 CB         -2.7956  -17.2713  -41.3040 C.3       3 UNK        -0.1800 
     59 N          -2.7232  -15.9529  -43.4756 N.am      3 UNK        -0.5000 
     60 C          -3.9231  -16.2985  -43.9742 C.2       2 UNK         0.5000 
     61 O          -4.6450  -17.1900  -43.5297 O.2       2 UNK        -0.5000 
     62 CA         -4.4197  -15.5028  -45.2003 C.3       2 UNK         0.1400 
     63 CB         -5.3227  -14.3426  -44.7538 C.3       2 UNK        -0.1800 
     64 N          -3.3449  -14.9687  -46.0381 N.am      2 UNK        -0.5000 
     65 C          -2.4571  -15.7104  -46.7166 C.2       1 UNK         0.5000 
     66 O          -2.4966  -16.9399  -46.7493 O.2       1 UNK        -0.5000 
     67 C          -1.3471  -22.2879  -46.8678 C.2       11 UNK         0.5000 
     68 O          -1.9769  -22.9854  -47.6591 O.2       11 UNK        -0.5000 
     69 N          -1.9154  -21.5901  -45.8752 N.am      12 UNK        -0.5000 
     70 CA         -3.3432  -21.5725  -45.5649 C.3       12 UNK         0.1400 
     71 CB         -3.6152  -20.5382  -44.4620 C.3       12 UNK        -0.1800 
     72 C          -3.8794  -22.9598  -45.1692 C.2       12 UNK         0.5000 
     73 O          -4.9434  -23.3512  -45.6485 O.2       12 UNK        -0.5000 
     74 N          -3.1130  -23.7008  -44.3545 N.am      13 UNK        -0.5000 
     75 CA         -3.4065  -25.0844  -43.9693 C.3       13 UNK         0.1400 
     76 CB         -2.4353  -25.5274  -42.8648 C.3       13 UNK        -0.1800 
     77 C          -3.3651  -26.0642  -45.1594 C.2       13 UNK         0.5000 
     78 O          -4.1909  -26.9751  -45.2258 O.2       13 UNK        -0.5000 
     79 N          -2.4307  -25.8389  -46.0928 N.am      14 UNK        -0.5000 
     80 CA         -2.2999  -26.5790  -47.3509 C.3       14 UNK         0.1400 
     81 CB         -0.8671  -26.3981  -47.8788 C.3       14 UNK        -0.1800 
     82 C          -3.3258  -26.1597  -48.4268 C.2       14 UNK         0.5000 
     83 O          -3.4130  -26.8258  -49.4590 O.2       14 UNK        -0.5000 
     84 N          -4.0595  -25.0636  -48.1812 N.am      15 UNK        -0.5000 
     85 CA         -5.0041  -24.3871  -49.0766 C.3       15 UNK         0.1400 
     86 CB         -6.2047  -25.2955  -49.4133 C.3       15 UNK        -0.1800 
     87 C          -4.3325  -23.7802  -50.3288 C.2       15 UNK         0.5000 
     88 O          -4.9769  -23.6410  -51.3688 O.2       15 UNK        -0.5000 
     89 N          -3.0560  -23.3970  -50.2033 N.am      16 UNK        -0.5000 
     90 CA         -2.2517  -22.7397  -51.2298 C.3       16 UNK         0.1400 
     91 CB         -0.7735  -23.1168  -51.0210 C.3       16 UNK        -0.1800 
     92 C          -2.4907  -21.2191  -51.1909 C.2       16 UNK         0.5000 
     93 O          -1.6092  -20.4585  -50.7938 O.2       16 UNK        -0.5000 
     94 N          -3.7093  -20.8112  -51.5601 N.am      17 UNK        -0.5000 
     95 CA         -4.1150  -19.4158  -51.6891 C.3       17 UNK         0.1400 
     96 CB         -5.6491  -19.3471  -51.6785 C.3       17 UNK        -0.1800 
     97 C          -3.5561  -18.7964  -52.9821 C.2       17 UNK         0.5000 
     98 O          -3.6830  -19.4031  -54.0522 O.2       17 UNK        -0.5000 
     99 N          -2.9889  -17.5876  -52.8611 N.am      18 UNK        -0.5000 
    100 CA        -2.4298  -16.7886  -53.9535 C.3       18 UNK         0.1400 
    101 CB        -1.9471  -15.4378  -53.4020 C.3       18 UNK        -0.1800 
    102 C         -3.4415  -16.5641  -55.0903 C.2       18 UNK         0.5000 
    103 O         -4.5602  -16.1161  -54.8275 O.2       18 UNK        -0.5000 
    104 N         -3.0332  -16.9143  -56.3172 N.am      19 UNK        -0.5000 
    105 CA        -3.7918  -16.9272  -57.5757 C.3       19 UNK         0.1400 
    106 CB        -4.2659  -15.5142  -57.9646 C.3       19 UNK        -0.1800 
    107 C         -4.9587  -17.9363  -57.6101 C.2       19 UNK         0.5000 
    108 O         -5.0822  -18.6754  -58.5868 O.2       19 UNK        -0.5000 
    109 N         -5.7779  -17.9631  -56.5521 N.am      20 UNK        -0.5000 
    110 CA        -6.9670  -18.8007  -56.3974 C.3       20 UNK         0.1400 
    111 CB        -7.6797  -18.4240  -55.0901 C.3       20 UNK        -0.1800 
    112 C         -6.6734  -20.3108  -56.4462 C.2       20 UNK         0.5000 
    113 O         -7.4319  -21.0486  -57.0772 O.2       20 UNK        -0.5000 
    114 N         -5.5758  -20.7333  -55.8067 N.am      21 UNK        -0.5000 
    115 CA        -5.0662  -22.1029  -55.8595 C.3       21 UNK         0.1400 
    116 CB        -4.9008  -22.6421  -54.4336 C.3       21 UNK        -0.1800 
    117 C         -3.7267  -22.1583  -56.6083 C.2       21 UNK         0.5000 
    118 O         -3.4929  -23.1153  -57.3475 O.2       21 UNK        -0.5000 
    119 N         -2.8737  -21.1424  -56.4122 N.am      22 UNK        -0.5000 
    120 CA        -1.5377  -21.0551  -57.0288 C.3       22 UNK         0.1400 
    121 C         -1.5310  -20.7893  -58.5642 C.2       22 UNK         0.5000 
    122 N         -2.6250  -20.3610  -59.1820 N.am      22 UNK        -0.7600 
    123 O         -0.5054  -20.9801  -59.2119 O.2       22 UNK        -0.5000 
    124 C124       -0.6260  -20.0325  -56.3062 C.3       23 UNK        -0.0398 
    125 S125       -0.4387  -20.3581  -54.5222 S.3       23 UNK        -0.2404 
    126 C126        1.1270  -19.4936  -54.1986 C.3       23 UNK        -0.0205 
    127 H127       -0.1103  -11.2738  -46.3091 H         1 UNK         0.0600 
    128 H128        0.2437  -11.6492  -44.6231 H         1 UNK         0.0600 
    129 H129       -1.4170  -11.3101  -45.1184 H         1 UNK         0.0600 
    130 H130       -1.1756  -12.8584  -47.6228 H         1 UNK         0.3000 
    131 H131       -0.3994  -15.5122  -47.2533 H         1 UNK         0.0600 
    132 H132       -2.5382  -14.6018  -49.2349 H         1 UNK         0.0800 
    133 H133       -0.8583  -14.2135  -49.4515 H         1 UNK         0.0800 
    134 H134        0.6523  -15.6075  -50.9578 H         1 UNK         0.0800 
    135 H135        1.1031  -16.1470  -49.3564 H         1 UNK         0.0800 
    136 H136        0.4113  -17.2616  -52.8265 H         1 UNK         0.1150 
    137 H137        2.2091  -21.1088  -52.2893 H         1 UNK         0.1150 
    138 H138        1.7381  -18.4521  -48.9445 H         1 UNK         0.1150 
    139 H139        2.2816  -21.9750  -49.9347 H         1 UNK         0.0800 
    140 H140        3.7494  -21.0302  -49.8503 H         1 UNK         0.0800 
    141 H141        0.1856  -20.8888  -48.6672 H         1 UNK         0.0800 
    142 H142        0.2897  -20.0592  -47.1474 H         1 UNK         0.0800 
    143 H143        0.5023  -23.0837  -47.5773 H         1 UNK         0.0600 
    144 H144        1.2988  -21.6169  -45.2699 H         1 UNK         0.3000 
    145 H145        0.8956  -24.2451  -42.8866 H         1 UNK         0.0600 
    146 H146        3.3090  -23.7402  -42.5721 H         1 UNK         0.0600 
    147 H147        3.0673  -24.6976  -44.0255 H         1 UNK         0.0600 
    148 H148        3.3805  -22.9713  -44.1573 H         1 UNK         0.0600 
    149 H149        1.8962  -21.5344  -42.8033 H         1 UNK         0.3000 
    150 H150       -1.2051  -19.9567  -42.0855 H         1 UNK         0.0600 
    151 H151       -0.5557  -20.7998  -39.8535 H         1 UNK         0.0600 
    152 H152        0.0559  -19.1676  -40.0836 H         1 UNK         0.0600 
    153 H153        1.1470  -20.5473  -40.2154 H         1 UNK         0.0600 
    154 H154        1.4860  -18.9968  -42.1874 H         1 UNK         0.3000 
    155 H155        1.8498  -18.7602  -45.6501 H         1 UNK         0.0600 
    156 H156        0.8212  -16.2990  -44.1553 H         1 UNK         0.0600 
    157 H157        1.5903  -16.3477  -45.7486 H         1 UNK         0.0600 
    158 H158       -0.0073  -17.0319  -45.5184 H         1 UNK         0.0600 
    159 H159        2.9865  -17.1157  -43.6180 H         1 UNK         0.3000 
    160 H160        5.2081  -19.3881  -42.1594 H         1 UNK         0.0600 
    161 H161        6.9417  -17.8114  -42.9863 H         1 UNK         0.0600 
    162 H162        5.8378  -17.1998  -44.2180 H         1 UNK         0.0600 
    163 H163        6.4121  -18.8622  -44.2908 H         1 UNK         0.0600 
    164 H164        4.8880  -16.5244  -42.0314 H         1 UNK         0.3000 
    165 H165        2.3125  -16.5294  -39.5394 H         1 UNK         0.0600 
    166 H166        3.9524  -14.8856  -38.6515 H         1 UNK         0.0600 
    167 H167        4.5103  -16.5383  -38.4431 H         1 UNK         0.0600 
    168 H168        5.2056  -15.5377  -39.7060 H         1 UNK         0.0600 
    169 H169        1.7035  -15.1115  -41.0610 H         1 UNK         0.3000 
    170 H170        3.0569  -12.4267  -42.4655 H         1 UNK         0.0600 
    171 H171        3.9244  -13.5892  -44.4877 H         1 UNK         0.0600 
    172 H172        2.4537  -14.5440  -44.5862 H         1 UNK         0.0600 
    173 H173        2.3951  -12.8003  -44.8187 H         1 UNK         0.0600 
    174 H174        0.5890  -13.8200  -43.1390 H         1 UNK         0.3000 
    175 H175       -1.0346  -13.1505  -40.0907 H         1 UNK         0.0600 
    176 H176       -2.6988  -11.8342  -41.3460 H         1 UNK         0.0600 
    177 H177       -1.5724  -11.6141  -42.6840 H         1 UNK         0.0600 
    178 H178       -1.2473  -10.8723  -41.1229 H         1 UNK         0.0600 
    179 H179       -2.2811  -14.0098  -42.3892 H         1 UNK         0.3000 
    180 H180       -1.2573  -17.2612  -42.8120 H         1 UNK         0.0600 
    181 H181       -3.6127  -16.6467  -40.9417 H         1 UNK         0.0600 
    182 H182       -2.1917  -17.5527  -40.4399 H         1 UNK         0.0600 
    183 H183       -3.2164  -18.1981  -41.6930 H         1 UNK         0.0600 
    184 H184       -2.2105  -15.2452  -43.9917 H         1 UNK         0.3000 
    185 H185       -5.0139  -16.1834  -45.8137 H         1 UNK         0.0600 
    186 H186       -4.7747  -13.6113  -44.1582 H         1 UNK         0.0600 
    187 H187       -5.7528  -13.8243  -45.6110 H         1 UNK         0.0600 
    188 H188       -6.1527  -14.7052  -44.1458 H         1 UNK         0.0600 
    189 H189       -3.2431  -13.9649  -46.0626 H         1 UNK         0.3000 
    190 H190       -1.3240  -20.9866  -45.3060 H         1 UNK         0.3000 
    191 H191       -3.8715  -21.2554  -46.4664 H         1 UNK         0.0600 
    192 H192       -3.2841  -19.5437  -44.7638 H         1 UNK         0.0600 
    193 H193       -4.6811  -20.4717  -44.2410 H         1 UNK         0.0600 
    194 H194       -3.1022  -20.7920  -43.5344 H         1 UNK         0.0600 
    195 H195       -2.2732  -23.2883  -43.9621 H         1 UNK         0.3000 
    196 H196       -4.4181  -25.1074  -43.5588 H         1 UNK         0.0600 
    197 H197       -2.6491  -26.5470  -42.5422 H         1 UNK         0.0600 
    198 H198       -2.5168  -24.8850  -41.9878 H         1 UNK         0.0600 
    199 H199       -1.3996  -25.5002  -43.2035 H         1 UNK         0.0600 
    200 H200       -1.7477  -25.1067  -45.9296 H         1 UNK         0.3000 
    201 H201       -2.4556  -27.6405  -47.1484 H         1 UNK         0.0600 
    202 H202       -0.1318  -26.7352  -47.1480 H         1 UNK         0.0600 
    203 H203       -0.6529  -25.3546  -48.1114 H         1 UNK         0.0600 
    204 H204       -0.7074  -26.9761  -48.7898 H         1 UNK         0.0600 
    205 H205       -3.8853  -24.5833  -47.3079 H         1 UNK         0.3000 
    206 H206       -5.3891  -23.5385  -48.5097 H         1 UNK         0.0600 
    207 H207       -6.6546  -25.7050  -48.5088 H         1 UNK         0.0600 
    208 H208       -6.9816  -24.7371  -49.9366 H         1 UNK         0.0600 
    209 H209       -5.9170  -26.1293  -50.0539 H         1 UNK         0.0600 
    210 H210       -2.6347  -23.4461  -49.2773 H         1 UNK         0.3000 
    211 H211       -2.5486  -23.1005  -52.2166 H         1 UNK         0.0600 
    212 H212       -0.4125  -22.8131  -50.0389 H         1 UNK         0.0600 
    213 H213       -0.1401  -22.6356  -51.7676 H         1 UNK         0.0600 
    214 H214       -0.6261  -24.1930  -51.1116 H         1 UNK         0.0600 
    215 H215       -4.3802  -21.5116  -51.8484 H         1 UNK         0.3000 
    216 H216       -3.7375  -18.8577  -50.8291 H         1 UNK         0.0600 
    217 H217       -5.9965  -18.3203  -51.8001 H         1 UNK         0.0600 
    218 H218       -6.0526  -19.7181  -50.7362 H         1 UNK         0.0600 
    219 H219       -6.0825  -19.9414  -52.4840 H         1 UNK         0.0600 
    220 H220       -2.9295  -17.1744  -51.9419 H         1 UNK         0.3000 
    221 H221       -1.5676  -17.3322  -54.3442 H         1 UNK         0.0600 
    222 H222       -2.7656  -14.8701  -52.9575 H         1 UNK         0.0600 
    223 H223       -1.1809  -15.5662  -52.6401 H         1 UNK         0.0600 
    224 H224       -1.5145  -14.8247  -54.1936 H         1 UNK         0.0600 
    225 H225       -2.0912  -17.2654  -56.4030 H         1 UNK         0.3000 
    226 H226       -3.0823  -17.2507  -58.3392 H         1 UNK         0.0600 
    227 H227       -3.4302  -14.8158  -58.0056 H         1 UNK         0.0600 
    228 H228       -4.7331  -15.5201  -58.9502 H         1 UNK         0.0600 
    229 H229       -4.9992  -15.1187  -57.2614 H         1 UNK         0.0600 
    230 H230       -5.5675  -17.3179  -55.7943 H         1 UNK         0.3000 
    231 H231       -7.6379  -18.5715  -57.2277 H         1 UNK         0.0600 
    232 H232       -7.0264  -18.5520  -54.2274 H         1 UNK         0.0600 
    233 H233       -8.5639  -19.0425  -54.9310 H         1 UNK         0.0600 
    234 H234       -8.0084  -17.3847  -55.1071 H         1 UNK         0.0600 
    235 H235       -5.0121  -20.0629  -55.2922 H         1 UNK         0.3000 
    236 H236       -5.7654  -22.7567  -56.3847 H         1 UNK         0.0600 
    237 H237       -5.8297  -22.5632  -53.8686 H         1 UNK         0.0600 
    238 H238       -4.6130  -23.6939  -54.4442 H         1 UNK         0.0600 
    239 H239       -4.1279  -22.1002  -53.8922 H         1 UNK         0.0600 
    240 H240       -3.1012  -20.4316  -55.7262 H         1 UNK         0.3000 
    241 H241       -1.0723  -22.0349  -56.9033 H         1 UNK         0.0600 
    242 H242       -3.4832  -20.1764  -58.6816 H         1 UNK         0.3800 
    243 H243       -2.5942  -20.2054  -60.1770 H         1 UNK         0.3800 
    244 H244        0.3687  -20.0368  -56.7563 H         1 UNK         0.0800 
    245 H245       -1.0140  -19.0220  -56.4312 H         1 UNK         0.0800 
    246 H246        1.1510  -18.5558  -54.7559 H         1 UNK         0.0800 
    247 H247        1.9577  -20.0955  -54.5700 H         1 UNK         0.0800 
@<TRIPOS>BOND
     1    1    2 1    
     2    1  127 1    
     3    1  128 1    
     4    1  129 1    
     5    2    3 2    
     6    2    4 am   BACKBONE|DICT|INTERRES
     7    4    5 1    
     8    4  130 1    
     9    5    6 1    
    10    5   65 1    
    11    5  131 1    
    12    6    7 1    
    13    6  132 1    
    14    6  133 1    
    15    7    8 1    
    16    8    9 1    
    17    8  134 1    
    18    8  135 1    
    19    9   10 ar   
    20    9   14 ar   
    21   10   11 ar   
    22   10  136 1    
    23   11   12 ar   
    24   11  126 1    
    25   12   13 ar   
    26   12  137 1    
    27   13   14 ar   
    28   13   15 1    
    29   14  138 1    
    30   15   16 1    
    31   15  139 1    
    32   15  140 1    
    33   16   17 1    
    34   17   18 1    
    35   17  141 1    
    36   17  142 1    
    37   18   19 1    
    38   18   67 1    
    39   18  143 1    
    40   19   20 am   BACKBONE|DICT|INTERRES
    41   19  144 1    
    42   20   21 2    
    43   20   22 1    
    44   22   23 1    
    45   22   24 1    
    46   22  145 1    
    47   23  146 1    
    48   23  147 1    
    49   23  148 1    
    50   24   25 am   BACKBONE|DICT|INTERRES
    51   24  149 1    
    52   25   26 2    
    53   25   27 1    
    54   27   28 1    
    55   27   29 1    
    56   27  150 1    
    57   28  151 1    
    58   28  152 1    
    59   28  153 1    
    60   29   30 am   BACKBONE|DICT|INTERRES
    61   29  154 1    
    62   30   31 2    
    63   30   32 1    
    64   32   33 1    
    65   32   34 1    
    66   32  155 1    
    67   33  156 1    
    68   33  157 1    
    69   33  158 1    
    70   34   35 am   BACKBONE|DICT|INTERRES
    71   34  159 1    
    72   35   36 2    
    73   35   37 1    
    74   37   38 1    
    75   37   39 1    
    76   37  160 1    
    77   38  161 1    
    78   38  162 1    
    79   38  163 1    
    80   39   40 am   BACKBONE|DICT|INTERRES
    81   39  164 1    
    82   40   41 2    
    83   40   42 1    
    84   42   43 1    
    85   42   44 1    
    86   42  165 1    
    87   43  166 1    
    88   43  167 1    
    89   43  168 1    
    90   44   45 am   BACKBONE|DICT|INTERRES
    91   44  169 1    
    92   45   46 2    
    93   45   47 1    
    94   47   48 1    
    95   47   49 1    
    96   47  170 1    
    97   48  171 1    
    98   48  172 1    
    99   48  173 1    
   100   49   50 am   BACKBONE|DICT|INTERRES
   101   49  174 1    
   102   50   51 2    
   103   50   52 1    
   104   52   53 1    
   105   52   54 1    
   106   52  175 1    
   107   53  176 1    
   108   53  177 1    
   109   53  178 1    
   110   54   55 am   BACKBONE|DICT|INTERRES
   111   54  179 1    
   112   55   56 2    
   113   55   57 1    
   114   57   58 1    
   115   57   59 1    
   116   57  180 1    
   117   58  181 1    
   118   58  182 1    
   119   58  183 1    
   120   59   60 am   BACKBONE|DICT|INTERRES
   121   59  184 1    
   122   60   61 2    
   123   60   62 1    
   124   62   63 1    
   125   62   64 1    
   126   62  185 1    
   127   63  186 1    
   128   63  187 1    
   129   63  188 1    
   130   64   65 am   BACKBONE|DICT|INTERRES
   131   64  189 1    
   132   65   66 2    
   133   67   68 2    
   134   67   69 am   BACKBONE|DICT|INTERRES
   135   69   70 1    
   136   69  190 1    
   137   70   71 1    
   138   70   72 1    
   139   70  191 1    
   140   71  192 1    
   141   71  193 1    
   142   71  194 1    
   143   72   73 2    
   144   72   74 am   BACKBONE|DICT|INTERRES
   145   74   75 1    
   146   74  195 1    
   147   75   76 1    
   148   75   77 1    
   149   75  196 1    
   150   76  197 1    
   151   76  198 1    
   152   76  199 1    
   153   77   78 2    
   154   77   79 am   BACKBONE|DICT|INTERRES
   155   79   80 1    
   156   79  200 1    
   157   80   81 1    
   158   80   82 1    
   159   80  201 1    
   160   81  202 1    
   161   81  203 1    
   162   81  204 1    
   163   82   83 2    
   164   82   84 am   BACKBONE|DICT|INTERRES
   165   84   85 1    
   166   84  205 1    
   167   85   86 1    
   168   85   87 1    
   169   85  206 1    
   170   86  207 1    
   171   86  208 1    
   172   86  209 1    
   173   87   88 2    
   174   87   89 am   BACKBONE|DICT|INTERRES
   175   89   90 1    
   176   89  210 1    
   177   90   91 1    
   178   90   92 1    
   179   90  211 1    
   180   91  212 1    
   181   91  213 1    
   182   91  214 1    
   183   92   93 2    
   184   92   94 am   BACKBONE|DICT|INTERRES
   185   94   95 1    
   186   94  215 1    
   187   95   96 1    
   188   95   97 1    
   189   95  216 1    
   190   96  217 1    
   191   96  218 1    
   192   96  219 1    
   193   97   98 2    
   194   97   99 am   BACKBONE|DICT|INTERRES
   195   99  100 1    
   196   99  220 1    
   197  100  101 1    
   198  100  102 1    
   199  100  221 1    
   200  101  222 1    
   201  101  223 1    
   202  101  224 1    
   203  102  103 2    
   204  102  104 am   BACKBONE|DICT|INTERRES
   205  104  105 1    
   206  104  225 1    
   207  105  106 1    
   208  105  107 1    
   209  105  226 1    
   210  106  227 1    
   211  106  228 1    
   212  106  229 1    
   213  107  108 2    
   214  107  109 am   BACKBONE|DICT|INTERRES
   215  109  110 1    
   216  109  230 1    
   217  110  111 1    
   218  110  112 1    
   219  110  231 1    
   220  111  232 1    
   221  111  233 1    
   222  111  234 1    
   223  112  113 2    
   224  112  114 am   BACKBONE|DICT|INTERRES
   225  114  115 1    
   226  114  235 1    
   227  115  116 1    
   228  115  117 1    
   229  115  236 1    
   230  116  237 1    
   231  116  238 1    
   232  116  239 1    
   233  117  118 2    
   234  117  119 am   BACKBONE|DICT|INTERRES
   235  119  120 1    
   236  119  240 1    
   237  120  121 1    
   238  120  124 1    
   239  120  241 1    
   240  121  122 am   BACKBONE|DICT|INTERRES
   241  121  123 2    
   242  122  242 1    
   243  122  243 1    
   244  124  125 1    
   245  124  244 1    
   246  124  245 1    
   247  125  126 1    
   248  126  246 1    
   249  126  247 1    
@<TRIPOS>SUBSTRUCTURE
     1 UNK         1 GROUP             0       ****    0 ROOT    
