@<TRIPOS>MOLECULE
3R540
247   249    1
SMALL
USER_CHARGES


@<TRIPOS>ATOM
      1 CA         -1.4087  -13.6712  -49.2323 C.3       0 UNK        -0.1800 
      2 C          -0.0815  -12.9389  -49.3710 C.2       0 UNK         0.5000 
      3 O           0.2781  -12.5309  -50.4754 O.2       0 UNK        -0.5000 
      4 N           0.6404  -12.7812  -48.2578 N.am      1 UNK        -0.5000 
      5 CA          1.9411  -12.1081  -48.1718 C.3       1 UNK         0.1400 
      6 C6          3.0330  -13.0820  -47.6518 C.3       23 UNK        -0.0398 
      7 S7          3.4218  -14.3910  -48.8591 S.3       23 UNK        -0.2404 
      8 C8          2.4959  -15.7905  -48.1663 C.3       23 UNK        -0.0205 
      9 C9          2.6879  -17.0389  -49.0085 C.ar      23 UNK        -0.0193 
     10 C10         1.8589  -17.2831  -50.1065 C.ar      23 UNK        -0.1150 
     11 C11         2.0154  -18.4450  -50.8686 C.ar      23 UNK        -0.0193 
     12 C12         3.0263  -19.3523  -50.5391 C.ar      23 UNK        -0.1150 
     13 C13         3.8646  -19.1159  -49.4453 C.ar      23 UNK        -0.0193 
     14 C14         3.6873  -17.9587  -48.6816 C.ar      23 UNK        -0.1150 
     15 C15         4.9564  -20.1128  -49.0788 C.3       23 UNK        -0.0205 
     16 S16         4.2920  -21.7479  -48.6261 S.3       23 UNK        -0.2404 
     17 C17         3.0709  -21.2951  -47.3471 C.3       23 UNK        -0.0398 
     18 CA          2.5474  -22.4957  -46.5240 C.3       11 UNK         0.1400 
     19 N           1.7355  -22.0349  -45.3974 N.am      11 UNK        -0.5000 
     20 C           1.3732  -22.7861  -44.3495 C.2       10 UNK         0.5000 
     21 O           1.6892  -23.9678  -44.2110 O.2       10 UNK        -0.5000 
     22 CA          0.5059  -22.1000  -43.2778 C.3       10 UNK         0.1400 
     23 CB          1.3708  -21.2378  -42.3458 C.3       10 UNK        -0.1800 
     24 N          -0.5511  -21.2762  -43.8627 N.am      10 UNK        -0.5000 
     25 C          -1.6069  -21.7691  -44.5241 C.2       9 UNK         0.5000 
     26 O          -1.8441  -22.9708  -44.6366 O.2       9 UNK        -0.5000 
     27 CA         -2.5500  -20.7568  -45.1927 C.3       9 UNK         0.1400 
     28 CB         -3.6288  -20.2784  -44.2104 C.3       9 UNK        -0.1800 
     29 N          -1.8618  -19.6012  -45.7668 N.am      9 UNK        -0.5000 
     30 C          -0.9755  -19.6572  -46.7703 C.2       8 UNK         0.5000 
     31 O          -0.6180  -20.7001  -47.3124 O.2       8 UNK        -0.5000 
     32 CA         -0.3174  -18.3314  -47.1868 C.3       8 UNK         0.1400 
     33 CB         -1.2719  -17.4725  -48.0322 C.3       8 UNK        -0.1800 
     34 N           0.1545  -17.5717  -46.0279 N.am      8 UNK        -0.5000 
     35 C           1.1178  -17.9927  -45.1946 C.2       7 UNK         0.5000 
     36 O           1.7553  -19.0339  -45.3524 O.2       7 UNK        -0.5000 
     37 CA          1.3752  -17.1326  -43.9454 C.3       7 UNK         0.1400 
     38 CB          2.3316  -15.9755  -44.2555 C.3       7 UNK        -0.1800 
     39 N           0.1417  -16.5976  -43.3714 N.am      7 UNK        -0.5000 
     40 C          -0.7927  -17.3463  -42.7687 C.2       6 UNK         0.5000 
     41 O          -0.6939  -18.5618  -42.6017 O.2       6 UNK        -0.5000 
     42 CA         -2.0765  -16.6179  -42.3315 C.3       6 UNK         0.1400 
     43 CB         -1.8671  -15.9056  -40.9869 C.3       6 UNK        -0.1800 
     44 N          -2.5368  -15.6477  -43.3269 N.am      6 UNK        -0.5000 
     45 C          -2.9114  -15.9568  -44.5769 C.2       5 UNK         0.5000 
     46 O          -2.9550  -17.1088  -45.0021 O.2       5 UNK        -0.5000 
     47 CA         -3.2735  -14.7991  -45.5248 C.3       5 UNK         0.1400 
     48 CB         -4.7915  -14.7375  -45.7483 C.3       5 UNK        -0.1800 
     49 N          -2.8060  -13.4977  -45.0480 N.am      5 UNK        -0.5000 
     50 C          -1.5332  -13.0813  -45.0578 C.2       4 UNK         0.5000 
     51 O          -0.6052  -13.7313  -45.5509 O.2       4 UNK        -0.5000 
     52 CA         -1.2811  -11.6934  -44.4351 C.3       4 UNK         0.1400 
     53 CB         -2.1767  -11.3968  -43.2100 C.3       4 UNK        -0.1800 
     54 N           0.1261  -11.4534  -44.1154 N.am      4 UNK        -0.5000 
     55 C           0.8890  -12.0476  -43.1863 C.2       3 UNK         0.5000 
     56 O           0.4867  -12.9528  -42.4530 O.2       3 UNK        -0.5000 
     57 CA          2.3449  -11.5347  -43.0498 C.3       3 UNK         0.1400 
     58 CB          3.3386  -12.6622  -42.7242 C.3       3 UNK        -0.1800 
     59 N           2.8170  -10.8425  -44.2514 N.am      3 UNK        -0.5000 
     60 C           2.6471   -9.5455  -44.5435 C.2       2 UNK         0.5000 
     61 O           2.1631   -8.7250  -43.7644 O.2       2 UNK        -0.5000 
     62 CA          3.0253   -9.1134  -45.9779 C.3       2 UNK         0.1400 
     63 CB          4.4452   -8.5283  -46.0074 C.3       2 UNK        -0.1800 
     64 N           2.9353  -10.2087  -46.9547 N.am      2 UNK        -0.5000 
     65 C           1.8054  -10.8612  -47.2706 C.2       1 UNK         0.5000 
     66 O           0.6995  -10.5189  -46.8441 O.2       1 UNK        -0.5000 
     67 C           1.7848  -23.5155  -47.3978 C.2       11 UNK         0.5000 
     68 O           2.2827  -24.6173  -47.6329 O.2       11 UNK        -0.5000 
     69 N           0.5827  -23.1388  -47.8476 N.am      12 UNK        -0.5000 
     70 CA         -0.2476  -23.8961  -48.7818 C.3       12 UNK         0.1400 
     71 CB         -0.9549  -22.9079  -49.7260 C.3       12 UNK        -0.1800 
     72 C          -1.2535  -24.8185  -48.0701 C.2       12 UNK         0.5000 
     73 O          -2.3031  -25.1145  -48.6404 O.2       12 UNK        -0.5000 
     74 N          -0.9360  -25.2760  -46.8514 N.am      13 UNK        -0.5000 
     75 CA         -1.8045  -26.0930  -45.9939 C.3       13 UNK         0.1400 
     76 CB         -1.0668  -26.3926  -44.6799 C.3       13 UNK        -0.1800 
     77 C          -2.3006  -27.4054  -46.6378 C.2       13 UNK         0.5000 
     78 O          -3.4090  -27.8490  -46.3363 O.2       13 UNK        -0.5000 
     79 N          -1.4824  -27.9827  -47.5265 N.am      14 UNK        -0.5000 
     80 CA         -1.7888  -29.1821  -48.3088 C.3       14 UNK         0.1400 
     81 CB         -0.5285  -30.0636  -48.3462 C.3       14 UNK        -0.1800 
     82 C          -2.2719  -28.8558  -49.7396 C.2       14 UNK         0.5000 
     83 O          -2.4739  -29.7816  -50.5268 O.2       14 UNK        -0.5000 
     84 N          -2.4300  -27.5670  -50.0692 N.am      15 UNK        -0.5000 
     85 CA         -2.7451  -27.0579  -51.4032 C.3       15 UNK         0.1400 
     86 CB         -1.4548  -26.5325  -52.0554 C.3       15 UNK        -0.1800 
     87 C          -3.8666  -26.0049  -51.3239 C.2       15 UNK         0.5000 
     88 O          -3.7500  -24.9166  -51.8919 O.2       15 UNK        -0.5000 
     89 N          -4.9361  -26.3710  -50.6034 N.am      16 UNK        -0.5000 
     90 CA         -6.2127  -25.6658  -50.4254 C.3       16 UNK         0.1400 
     91 CB         -6.8668  -25.3301  -51.7820 C.3       16 UNK        -0.1800 
     92 C          -6.1846  -24.4414  -49.4875 C.2       16 UNK         0.5000 
     93 O          -7.2534  -23.8902  -49.2201 O.2       16 UNK        -0.5000 
     94 N          -5.0069  -24.0530  -48.9767 N.am      17 UNK        -0.5000 
     95 CA         -4.7210  -22.9988  -47.9899 C.3       17 UNK         0.1400 
     96 CB         -5.3648  -23.3302  -46.6304 C.3       17 UNK        -0.1800 
     97 C          -5.0462  -21.5533  -48.4201 C.2       17 UNK         0.5000 
     98 O          -4.2544  -20.6548  -48.1398 O.2       17 UNK        -0.5000 
     99 N          -6.1932  -21.3381  -49.0725 N.am      18 UNK        -0.5000 
    100 CA        -6.6635  -20.0463  -49.5662 C.3       18 UNK         0.1400 
    101 CB        -8.0532  -20.2276  -50.1950 C.3       18 UNK        -0.1800 
    102 C         -5.6905  -19.4387  -50.5893 C.2       18 UNK         0.5000 
    103 O         -5.2793  -20.1348  -51.5200 O.2       18 UNK        -0.5000 
    104 N         -5.3747  -18.1476  -50.4231 N.am      19 UNK        -0.5000 
    105 CA        -4.4148  -17.3974  -51.2415 C.3       19 UNK         0.1400 
    106 CB        -4.1723  -16.0253  -50.5934 C.3       19 UNK        -0.1800 
    107 C         -4.8180  -17.2417  -52.7234 C.2       19 UNK         0.5000 
    108 O         -3.9607  -16.9458  -53.5554 O.2       19 UNK        -0.5000 
    109 N         -6.1025  -17.4656  -53.0341 N.am      20 UNK        -0.5000 
    110 CA        -6.6324  -17.5474  -54.3958 C.3       20 UNK         0.1400 
    111 CB        -8.1670  -17.5084  -54.3343 C.3       20 UNK        -0.1800 
    112 C         -6.1555  -18.8035  -55.1557 C.2       20 UNK         0.5000 
    113 O         -6.0847  -18.7690  -56.3848 O.2       20 UNK        -0.5000 
    114 N         -5.8380  -19.8777  -54.4200 N.am      21 UNK        -0.5000 
    115 CA        -5.2714  -21.1171  -54.9455 C.3       21 UNK         0.1400 
    116 CB        -5.9814  -22.3188  -54.2965 C.3       21 UNK        -0.1800 
    117 C         -3.7608  -21.1382  -54.6703 C.2       21 UNK         0.5000 
    118 O         -2.9684  -21.1489  -55.6127 O.2       21 UNK        -0.5000 
    119 N         -3.4055  -21.0995  -53.3798 N.am      22 UNK        -0.5000 
    120 CA        -2.0418  -21.0421  -52.8369 C.3       22 UNK         0.1400 
    121 C         -1.1026  -22.2017  -53.2899 C.2       22 UNK         0.5000 
    122 N         -1.6029  -23.4255  -53.3963 N.am      22 UNK        -0.7600 
    123 O          0.0831  -22.0076  -53.5447 O.2       22 UNK        -0.5000 
    124 C124       -1.4219  -19.6230  -52.9824 C.3       23 UNK        -0.0398 
    125 S125       -0.5926  -19.1023  -51.4453 S.3       23 UNK        -0.2404 
    126 C126        1.0833  -18.7260  -52.0364 C.3       23 UNK        -0.0205 
    127 H127       -2.2341  -13.0139  -49.5051 H         1 UNK         0.0600 
    128 H128       -1.5713  -14.0184  -48.2131 H         1 UNK         0.0600 
    129 H129       -1.4271  -14.5384  -49.8921 H         1 UNK         0.0600 
    130 H130        0.2547  -13.0812  -47.3684 H         1 UNK         0.3000 
    131 H131        2.2475  -11.7377  -49.1520 H         1 UNK         0.0600 
    132 H132        3.9745  -12.5650  -47.4639 H         1 UNK         0.0800 
    133 H133        2.7373  -13.5261  -46.6995 H         1 UNK         0.0800 
    134 H134        1.4368  -15.5388  -48.1047 H         1 UNK         0.0800 
    135 H135        2.8311  -15.9771  -47.1463 H         1 UNK         0.0800 
    136 H136        1.0792  -16.5778  -50.3588 H         1 UNK         0.1150 
    137 H137        3.1532  -20.2538  -51.1223 H         1 UNK         0.1150 
    138 H138        4.3267  -17.7718  -47.8303 H         1 UNK         0.1150 
    139 H139        5.6335  -20.2275  -49.9262 H         1 UNK         0.0800 
    140 H140        5.5614  -19.7385  -48.2515 H         1 UNK         0.0800 
    141 H141        2.2424  -20.7624  -47.8180 H         1 UNK         0.0800 
    142 H142        3.5479  -20.5777  -46.6778 H         1 UNK         0.0800 
    143 H143        3.4149  -23.0106  -46.1051 H         1 UNK         0.0600 
    144 H144        1.4568  -21.0592  -45.4167 H         1 UNK         0.3000 
    145 H145        0.0359  -22.8818  -42.6772 H         1 UNK         0.0600 
    146 H146        0.7743  -20.8101  -41.5398 H         1 UNK         0.0600 
    147 H147        2.1618  -21.8315  -41.8860 H         1 UNK         0.0600 
    148 H148        1.8454  -20.4151  -42.8817 H         1 UNK         0.0600 
    149 H149       -0.4687  -20.2717  -43.7494 H         1 UNK         0.3000 
    150 H150       -3.0417  -21.2842  -46.0081 H         1 UNK         0.0600 
    151 H151       -4.1671  -21.1224  -43.7774 H         1 UNK         0.0600 
    152 H152       -4.3624  -19.6467  -44.7119 H         1 UNK         0.0600 
    153 H153       -3.1976  -19.7047  -43.3894 H         1 UNK         0.0600 
    154 H154       -2.1311  -18.6897  -45.4032 H         1 UNK         0.3000 
    155 H155        0.5494  -18.5780  -47.8029 H         1 UNK         0.0600 
    156 H156       -2.1541  -17.1664  -47.4730 H         1 UNK         0.0600 
    157 H157       -0.7766  -16.5753  -48.4006 H         1 UNK         0.0600 
    158 H158       -1.6252  -18.0285  -48.9005 H         1 UNK         0.0600 
    159 H159       -0.3410  -16.7224  -45.8027 H         1 UNK         0.3000 
    160 H160        1.8504  -17.7724  -43.1986 H         1 UNK         0.0600 
    161 H161        3.2497  -16.3357  -44.7215 H         1 UNK         0.0600 
    162 H162        1.8792  -15.2422  -44.9244 H         1 UNK         0.0600 
    163 H163        2.6143  -15.4654  -43.3358 H         1 UNK         0.0600 
    164 H164       -0.0183  -15.6045  -43.4716 H         1 UNK         0.3000 
    165 H165       -2.8593  -17.3687  -42.2054 H         1 UNK         0.0600 
    166 H166       -2.7941  -15.4565  -40.6301 H         1 UNK         0.0600 
    167 H167       -1.5311  -16.6070  -40.2221 H         1 UNK         0.0600 
    168 H168       -1.1181  -15.1158  -41.0609 H         1 UNK         0.0600 
    169 H169       -2.5260  -14.6766  -43.0543 H         1 UNK         0.3000 
    170 H170       -2.7991  -15.0076  -46.4846 H         1 UNK         0.0600 
    171 H171       -5.1683  -15.6857  -46.1346 H         1 UNK         0.0600 
    172 H172       -5.3271  -14.5239  -44.8225 H         1 UNK         0.0600 
    173 H173       -5.0521  -13.9671  -46.4742 H         1 UNK         0.0600 
    174 H174       -3.5080  -12.8929  -44.6464 H         1 UNK         0.3000 
    175 H175       -1.5333  -10.9684  -45.2100 H         1 UNK         0.0600 
    176 H176       -2.0856  -12.1656  -42.4418 H         1 UNK         0.0600 
    177 H177       -1.9124  -10.4421  -42.7549 H         1 UNK         0.0600 
    178 H178       -3.2287  -11.3300  -43.4882 H         1 UNK         0.0600 
    179 H179        0.5746  -10.7854  -44.7289 H         1 UNK         0.3000 
    180 H180        2.3479  -10.8373  -42.2098 H         1 UNK         0.0600 
    181 H181        3.4541  -13.3446  -43.5654 H         1 UNK         0.0600 
    182 H182        3.0202  -13.2447  -41.8588 H         1 UNK         0.0600 
    183 H183        4.3234  -12.2567  -42.4918 H         1 UNK         0.0600 
    184 H184        3.2305  -11.4283  -44.9603 H         1 UNK         0.3000 
    185 H185        2.3252   -8.3323  -46.2816 H         1 UNK         0.0600 
    186 H186        4.6959   -8.1500  -46.9987 H         1 UNK         0.0600 
    187 H187        4.5384   -7.6945  -45.3103 H         1 UNK         0.0600 
    188 H188        5.1938   -9.2720  -45.7313 H         1 UNK         0.0600 
    189 H189        3.8079  -10.5016  -47.3704 H         1 UNK         0.3000 
    190 H190        0.2103  -22.2286  -47.5739 H         1 UNK         0.3000 
    191 H191        0.3881  -24.5370  -49.3958 H         1 UNK         0.0600 
    192 H192       -1.6579  -22.2685  -49.1915 H         1 UNK         0.0600 
    193 H193       -1.5183  -23.4346  -50.4964 H         1 UNK         0.0600 
    194 H194       -0.2361  -22.2631  -50.2324 H         1 UNK         0.0600 
    195 H195       -0.0574  -24.9809  -46.4500 H         1 UNK         0.3000 
    196 H196       -2.6860  -25.4918  -45.7626 H         1 UNK         0.0600 
    197 H197       -1.6905  -26.9801  -44.0050 H         1 UNK         0.0600 
    198 H198       -0.8026  -25.4735  -44.1567 H         1 UNK         0.0600 
    199 H199       -0.1481  -26.9541  -44.8537 H         1 UNK         0.0600 
    200 H200       -0.5944  -27.5393  -47.7128 H         1 UNK         0.3000 
    201 H201       -2.5839  -29.7521  -47.8241 H         1 UNK         0.0600 
    202 H202       -0.1964  -30.3183  -47.3395 H         1 UNK         0.0600 
    203 H203        0.2967  -29.5645  -48.8557 H         1 UNK         0.0600 
    204 H204       -0.7182  -31.0021  -48.8687 H         1 UNK         0.0600 
    205 H205       -2.3148  -26.8510  -49.3563 H         1 UNK         0.3000 
    206 H206       -3.1331  -27.8622  -52.0311 H         1 UNK         0.0600 
    207 H207       -0.6860  -27.3045  -52.0853 H         1 UNK         0.0600 
    208 H208       -1.6395  -26.2238  -53.0842 H         1 UNK         0.0600 
    209 H209       -1.0496  -25.6779  -51.5128 H         1 UNK         0.0600 
    210 H210       -4.8840  -27.2697  -50.1443 H         1 UNK         0.3000 
    211 H211       -6.8648  -26.3869  -49.9306 H         1 UNK         0.0600 
    212 H212       -6.3122  -24.5636  -52.3220 H         1 UNK         0.0600 
    213 H213       -7.8822  -24.9563  -51.6457 H         1 UNK         0.0600 
    214 H214       -6.9306  -26.2117  -52.4197 H         1 UNK         0.0600 
    215 H215       -4.1833  -24.5692  -49.2682 H         1 UNK         0.3000 
    216 H216       -3.6419  -23.0219  -47.8402 H         1 UNK         0.0600 
    217 H217       -5.0941  -22.5906  -45.8765 H         1 UNK         0.0600 
    218 H218       -5.0298  -24.3012  -46.2655 H         1 UNK         0.0600 
    219 H219       -6.4532  -23.3495  -46.6883 H         1 UNK         0.0600 
    220 H220       -6.7785  -22.1493  -49.2569 H         1 UNK         0.3000 
    221 H221       -6.7505  -19.3742  -48.7103 H         1 UNK         0.0600 
    222 H222       -8.0243  -20.9163  -51.0408 H         1 UNK         0.0600 
    223 H223       -8.7659  -20.6201  -49.4694 H         1 UNK         0.0600 
    224 H224       -8.4479  -19.2775  -50.5571 H         1 UNK         0.0600 
    225 H225       -5.7707  -17.6490  -49.6395 H         1 UNK         0.3000 
    226 H226       -3.4730  -17.9488  -51.2243 H         1 UNK         0.0600 
    227 H227       -3.7791  -16.1295  -49.5818 H         1 UNK         0.0600 
    228 H228       -3.4444  -15.4469  -51.1639 H         1 UNK         0.0600 
    229 H229       -5.0895  -15.4375  -50.5406 H         1 UNK         0.0600 
    230 H230       -6.7416  -17.6815  -52.2840 H         1 UNK         0.3000 
    231 H231       -6.2882  -16.6723  -54.9512 H         1 UNK         0.0600 
    232 H232       -8.5988  -17.5417  -55.3355 H         1 UNK         0.0600 
    233 H233       -8.5202  -16.5925  -53.8600 H         1 UNK         0.0600 
    234 H234       -8.5693  -18.3542  -53.7751 H         1 UNK         0.0600 
    235 H235       -5.8654  -19.8005  -53.4092 H         1 UNK         0.3000 
    236 H236       -5.4197  -21.1834  -56.0254 H         1 UNK         0.0600 
    237 H237       -7.0350  -22.3460  -54.5743 H         1 UNK         0.0600 
    238 H238       -5.5345  -23.2594  -54.6211 H         1 UNK         0.0600 
    239 H239       -5.9283  -22.2882  -53.2077 H         1 UNK         0.0600 
    240 H240       -4.1425  -21.0281  -52.6828 H         1 UNK         0.3000 
    241 H241       -2.1976  -21.2281  -51.7738 H         1 UNK         0.0600 
    242 H242       -2.5495  -23.6400  -53.1059 H         1 UNK         0.3800 
    243 H243       -0.9974  -24.1684  -53.7020 H         1 UNK         0.3800 
    244 H244       -0.7481  -19.5571  -53.8381 H         1 UNK         0.0800 
    245 H245       -2.1984  -18.8847  -53.1778 H         1 UNK         0.0800 
    246 H246        1.4530  -19.5640  -52.6298 H         1 UNK         0.0800 
    247 H247        1.0517  -17.8596  -52.6985 H         1 UNK         0.0800 
@<TRIPOS>BOND
     1    1    2 1    
     2    1  127 1    
     3    1  128 1    
     4    1  129 1    
     5    2    3 2    
     6    2    4 am   BACKBONE|DICT|INTERRES
     7    4    5 1    
     8    4  130 1    
     9    5    6 1    
    10    5   65 1    
    11    5  131 1    
    12    6    7 1    
    13    6  132 1    
    14    6  133 1    
    15    7    8 1    
    16    8    9 1    
    17    8  134 1    
    18    8  135 1    
    19    9   10 ar   
    20    9   14 ar   
    21   10   11 ar   
    22   10  136 1    
    23   11   12 ar   
    24   11  126 1    
    25   12   13 ar   
    26   12  137 1    
    27   13   14 ar   
    28   13   15 1    
    29   14  138 1    
    30   15   16 1    
    31   15  139 1    
    32   15  140 1    
    33   16   17 1    
    34   17   18 1    
    35   17  141 1    
    36   17  142 1    
    37   18   19 1    
    38   18   67 1    
    39   18  143 1    
    40   19   20 am   BACKBONE|DICT|INTERRES
    41   19  144 1    
    42   20   21 2    
    43   20   22 1    
    44   22   23 1    
    45   22   24 1    
    46   22  145 1    
    47   23  146 1    
    48   23  147 1    
    49   23  148 1    
    50   24   25 am   BACKBONE|DICT|INTERRES
    51   24  149 1    
    52   25   26 2    
    53   25   27 1    
    54   27   28 1    
    55   27   29 1    
    56   27  150 1    
    57   28  151 1    
    58   28  152 1    
    59   28  153 1    
    60   29   30 am   BACKBONE|DICT|INTERRES
    61   29  154 1    
    62   30   31 2    
    63   30   32 1    
    64   32   33 1    
    65   32   34 1    
    66   32  155 1    
    67   33  156 1    
    68   33  157 1    
    69   33  158 1    
    70   34   35 am   BACKBONE|DICT|INTERRES
    71   34  159 1    
    72   35   36 2    
    73   35   37 1    
    74   37   38 1    
    75   37   39 1    
    76   37  160 1    
    77   38  161 1    
    78   38  162 1    
    79   38  163 1    
    80   39   40 am   BACKBONE|DICT|INTERRES
    81   39  164 1    
    82   40   41 2    
    83   40   42 1    
    84   42   43 1    
    85   42   44 1    
    86   42  165 1    
    87   43  166 1    
    88   43  167 1    
    89   43  168 1    
    90   44   45 am   BACKBONE|DICT|INTERRES
    91   44  169 1    
    92   45   46 2    
    93   45   47 1    
    94   47   48 1    
    95   47   49 1    
    96   47  170 1    
    97   48  171 1    
    98   48  172 1    
    99   48  173 1    
   100   49   50 am   BACKBONE|DICT|INTERRES
   101   49  174 1    
   102   50   51 2    
   103   50   52 1    
   104   52   53 1    
   105   52   54 1    
   106   52  175 1    
   107   53  176 1    
   108   53  177 1    
   109   53  178 1    
   110   54   55 am   BACKBONE|DICT|INTERRES
   111   54  179 1    
   112   55   56 2    
   113   55   57 1    
   114   57   58 1    
   115   57   59 1    
   116   57  180 1    
   117   58  181 1    
   118   58  182 1    
   119   58  183 1    
   120   59   60 am   BACKBONE|DICT|INTERRES
   121   59  184 1    
   122   60   61 2    
   123   60   62 1    
   124   62   63 1    
   125   62   64 1    
   126   62  185 1    
   127   63  186 1    
   128   63  187 1    
   129   63  188 1    
   130   64   65 am   BACKBONE|DICT|INTERRES
   131   64  189 1    
   132   65   66 2    
   133   67   68 2    
   134   67   69 am   BACKBONE|DICT|INTERRES
   135   69   70 1    
   136   69  190 1    
   137   70   71 1    
   138   70   72 1    
   139   70  191 1    
   140   71  192 1    
   141   71  193 1    
   142   71  194 1    
   143   72   73 2    
   144   72   74 am   BACKBONE|DICT|INTERRES
   145   74   75 1    
   146   74  195 1    
   147   75   76 1    
   148   75   77 1    
   149   75  196 1    
   150   76  197 1    
   151   76  198 1    
   152   76  199 1    
   153   77   78 2    
   154   77   79 am   BACKBONE|DICT|INTERRES
   155   79   80 1    
   156   79  200 1    
   157   80   81 1    
   158   80   82 1    
   159   80  201 1    
   160   81  202 1    
   161   81  203 1    
   162   81  204 1    
   163   82   83 2    
   164   82   84 am   BACKBONE|DICT|INTERRES
   165   84   85 1    
   166   84  205 1    
   167   85   86 1    
   168   85   87 1    
   169   85  206 1    
   170   86  207 1    
   171   86  208 1    
   172   86  209 1    
   173   87   88 2    
   174   87   89 am   BACKBONE|DICT|INTERRES
   175   89   90 1    
   176   89  210 1    
   177   90   91 1    
   178   90   92 1    
   179   90  211 1    
   180   91  212 1    
   181   91  213 1    
   182   91  214 1    
   183   92   93 2    
   184   92   94 am   BACKBONE|DICT|INTERRES
   185   94   95 1    
   186   94  215 1    
   187   95   96 1    
   188   95   97 1    
   189   95  216 1    
   190   96  217 1    
   191   96  218 1    
   192   96  219 1    
   193   97   98 2    
   194   97   99 am   BACKBONE|DICT|INTERRES
   195   99  100 1    
   196   99  220 1    
   197  100  101 1    
   198  100  102 1    
   199  100  221 1    
   200  101  222 1    
   201  101  223 1    
   202  101  224 1    
   203  102  103 2    
   204  102  104 am   BACKBONE|DICT|INTERRES
   205  104  105 1    
   206  104  225 1    
   207  105  106 1    
   208  105  107 1    
   209  105  226 1    
   210  106  227 1    
   211  106  228 1    
   212  106  229 1    
   213  107  108 2    
   214  107  109 am   BACKBONE|DICT|INTERRES
   215  109  110 1    
   216  109  230 1    
   217  110  111 1    
   218  110  112 1    
   219  110  231 1    
   220  111  232 1    
   221  111  233 1    
   222  111  234 1    
   223  112  113 2    
   224  112  114 am   BACKBONE|DICT|INTERRES
   225  114  115 1    
   226  114  235 1    
   227  115  116 1    
   228  115  117 1    
   229  115  236 1    
   230  116  237 1    
   231  116  238 1    
   232  116  239 1    
   233  117  118 2    
   234  117  119 am   BACKBONE|DICT|INTERRES
   235  119  120 1    
   236  119  240 1    
   237  120  121 1    
   238  120  124 1    
   239  120  241 1    
   240  121  122 am   BACKBONE|DICT|INTERRES
   241  121  123 2    
   242  122  242 1    
   243  122  243 1    
   244  124  125 1    
   245  124  244 1    
   246  124  245 1    
   247  125  126 1    
   248  126  246 1    
   249  126  247 1    
@<TRIPOS>SUBSTRUCTURE
     1 UNK         1 GROUP             0       ****    0 ROOT    
