@<TRIPOS>MOLECULE
3R540
247   249    1
SMALL
USER_CHARGES


@<TRIPOS>ATOM
      1 CA         -0.0210   -8.0562  -45.4808 C.3       0 UNK        -0.1800 
      2 C           0.7477   -9.2612  -46.0045 C.2       0 UNK         0.5000 
      3 O           1.4468   -9.9147  -45.2298 O.2       0 UNK        -0.5000 
      4 N           0.5979   -9.5568  -47.3047 N.am      1 UNK        -0.5000 
      5 CA          1.2685  -10.6225  -48.0641 C.3       1 UNK         0.1400 
      6 C6          1.1690  -12.0128  -47.3764 C.3       23 UNK        -0.0398 
      7 S7          1.3000  -13.4202  -48.5282 S.3       23 UNK        -0.2404 
      8 C8          0.3335  -14.6667  -47.6272 C.3       23 UNK        -0.0205 
      9 C9          0.3623  -16.0098  -48.3356 C.ar      23 UNK        -0.0193 
     10 C10        -0.7211  -16.4190  -49.1207 C.ar      23 UNK        -0.1150 
     11 C11        -0.6997  -17.6628  -49.7580 C.ar      23 UNK        -0.0193 
     12 C12         0.4274  -18.4757  -49.6386 C.ar      23 UNK        -0.1150 
     13 C13         1.4956  -18.1003  -48.8205 C.ar      23 UNK        -0.0193 
     14 C14         1.4602  -16.8617  -48.1745 C.ar      23 UNK        -0.1150 
     15 C15         2.6653  -19.0531  -48.6140 C.3       23 UNK        -0.0205 
     16 S16         2.3775  -20.1982  -47.2213 S.3       23 UNK        -0.2404 
     17 C17         0.8486  -21.0367  -47.7586 C.3       23 UNK        -0.0398 
     18 CA          0.5756  -22.3867  -47.0638 C.3       11 UNK         0.1400 
     19 N           0.4350  -22.2761  -45.6106 N.am      11 UNK        -0.5000 
     20 C           0.2956  -23.3201  -44.7804 C.2       10 UNK         0.5000 
     21 O           0.3305  -24.4966  -45.1436 O.2       10 UNK        -0.5000 
     22 CA          0.0132  -22.9937  -43.3053 C.3       10 UNK         0.1400 
     23 CB          1.3110  -22.6681  -42.5505 C.3       10 UNK        -0.1800 
     24 N          -0.9320  -21.8856  -43.1717 N.am      10 UNK        -0.5000 
     25 C          -2.2390  -21.9728  -43.4562 C.2       9 UNK         0.5000 
     26 O          -2.7907  -23.0103  -43.8243 O.2       9 UNK        -0.5000 
     27 CA         -3.0589  -20.6734  -43.3445 C.3       9 UNK         0.1400 
     28 CB         -3.4682  -20.4125  -41.8874 C.3       9 UNK        -0.1800 
     29 N          -2.3472  -19.5041  -43.8627 N.am      9 UNK        -0.5000 
     30 C          -1.9996  -19.3396  -45.1468 C.2       8 UNK         0.5000 
     31 O          -2.2604  -20.1510  -46.0306 O.2       8 UNK        -0.5000 
     32 CA         -1.1810  -18.0849  -45.4955 C.3       8 UNK         0.1400 
     33 CB         -2.1232  -16.9040  -45.7685 C.3       8 UNK        -0.1800 
     34 N          -0.2071  -17.7070  -44.4675 N.am      8 UNK        -0.5000 
     35 C           0.7570  -18.5028  -43.9781 C.2       7 UNK         0.5000 
     36 O           0.8826  -19.6887  -44.2803 O.2       7 UNK        -0.5000 
     37 CA          1.7359  -17.8881  -42.9637 C.3       7 UNK         0.1400 
     38 CB          3.0690  -17.5491  -43.6497 C.3       7 UNK        -0.1800 
     39 N           1.1980  -16.6920  -42.3121 N.am      7 UNK        -0.5000 
     40 C           0.3044  -16.7197  -41.3112 C.2       6 UNK         0.5000 
     41 O          -0.1491  -17.7622  -40.8375 O.2       6 UNK        -0.5000 
     42 CA         -0.1733  -15.3674  -40.7422 C.3       6 UNK         0.1400 
     43 CB          0.6342  -15.0005  -39.4878 C.3       6 UNK        -0.1800 
     44 N          -0.0843  -14.2651  -41.7004 N.am      6 UNK        -0.5000 
     45 C          -0.8425  -14.1418  -42.7981 C.2       5 UNK         0.5000 
     46 O          -1.7480  -14.9213  -43.0908 O.2       5 UNK        -0.5000 
     47 CA         -0.5000  -12.9815  -43.7550 C.3       5 UNK         0.1400 
     48 CB         -1.3898  -11.7628  -43.4702 C.3       5 UNK        -0.1800 
     49 N           0.9082  -12.5672  -43.7226 N.am      5 UNK        -0.5000 
     50 C           1.9442  -13.3648  -44.0052 C.2       4 UNK         0.5000 
     51 O           1.8292  -14.5615  -44.2766 O.2       4 UNK        -0.5000 
     52 CA          3.3416  -12.7417  -43.9731 C.3       4 UNK         0.1400 
     53 CB          4.0541  -13.0583  -42.6477 C.3       4 UNK        -0.1800 
     54 N           4.0797  -13.3109  -45.0915 N.am      4 UNK        -0.5000 
     55 C           5.0824  -12.7232  -45.7493 C.2       3 UNK         0.5000 
     56 O           5.5950  -11.6592  -45.3998 O.2       3 UNK        -0.5000 
     57 CA          5.5682  -13.4136  -47.0386 C.3       3 UNK         0.1400 
     58 CB          5.1590  -14.8974  -47.1456 C.3       3 UNK        -0.1800 
     59 N           5.0063  -12.6918  -48.1752 N.am      3 UNK        -0.5000 
     60 C           5.5746  -11.6481  -48.7951 C.2       2 UNK         0.5000 
     61 O           6.7273  -11.2660  -48.5903 O.2       2 UNK        -0.5000 
     62 CA          4.6893  -10.8920  -49.8067 C.3       2 UNK         0.1400 
     63 CB          4.8620  -11.4740  -51.2180 C.3       2 UNK        -0.1800 
     64 N           3.2714  -10.9376  -49.4377 N.am      2 UNK        -0.5000 
     65 C           2.7305  -10.2583  -48.4169 C.2       1 UNK         0.5000 
     66 O           3.3447   -9.4022  -47.7760 O.2       1 UNK        -0.5000 
     67 C          -0.6586  -23.0566  -47.7000 C.2       11 UNK         0.5000 
     68 O          -0.4936  -23.9893  -48.4828 O.2       11 UNK        -0.5000 
     69 N          -1.8658  -22.6033  -47.3294 N.am      12 UNK        -0.5000 
     70 CA         -3.1410  -23.1547  -47.7883 C.3       12 UNK         0.1400 
     71 CB         -4.3059  -22.3062  -47.2587 C.3       12 UNK        -0.1800 
     72 C          -3.3318  -24.6270  -47.3949 C.2       12 UNK         0.5000 
     73 O          -3.8026  -25.4081  -48.2201 O.2       12 UNK        -0.5000 
     74 N          -2.9326  -24.9899  -46.1676 N.am      13 UNK        -0.5000 
     75 CA         -2.9449  -26.3678  -45.6759 C.3       13 UNK         0.1400 
     76 CB         -2.6121  -26.3885  -44.1765 C.3       13 UNK        -0.1800 
     77 C          -1.9936  -27.2853  -46.4667 C.2       13 UNK         0.5000 
     78 O          -2.3888  -28.3919  -46.8347 O.2       13 UNK        -0.5000 
     79 N          -0.7766  -26.7975  -46.7461 N.am      14 UNK        -0.5000 
     80 CA          0.2328  -27.4958  -47.5445 C.3       14 UNK         0.1400 
     81 CB          1.5811  -26.7726  -47.4047 C.3       14 UNK        -0.1800 
     82 C          -0.1630  -27.6332  -49.0278 C.2       14 UNK         0.5000 
     83 O           0.0493  -28.6919  -49.6200 O.2       14 UNK        -0.5000 
     84 N          -0.7420  -26.5672  -49.5948 N.am      15 UNK        -0.5000 
     85 CA         -1.1924  -26.4878  -50.9857 C.3       15 UNK         0.1400 
     86 CB         -1.3060  -25.0057  -51.3793 C.3       15 UNK        -0.1800 
     87 C          -2.5278  -27.2093  -51.2537 C.2       15 UNK         0.5000 
     88 O          -2.8988  -27.3532  -52.4182 O.2       15 UNK        -0.5000 
     89 N          -3.2379  -27.6133  -50.1900 N.am      16 UNK        -0.5000 
     90 CA         -4.5829  -28.2004  -50.1900 C.3       16 UNK         0.1400 
     91 CB         -4.5864  -29.5843  -50.8725 C.3       16 UNK        -0.1800 
     92 C          -5.6411  -27.2300  -50.7600 C.2       16 UNK         0.5000 
     93 O          -6.4896  -27.6266  -51.5608 O.2       16 UNK        -0.5000 
     94 N          -5.5488  -25.9649  -50.3257 N.am      17 UNK        -0.5000 
     95 CA         -6.4010  -24.8225  -50.6708 C.3       17 UNK         0.1400 
     96 CB         -7.8278  -25.0224  -50.1201 C.3       17 UNK        -0.1800 
     97 C          -6.3797  -24.4434  -52.1684 C.2       17 UNK         0.5000 
     98 O          -7.3715  -23.9232  -52.6844 O.2       17 UNK        -0.5000 
     99 N          -5.2502  -24.7002  -52.8411 N.am      18 UNK        -0.5000 
    100 CA        -4.9930  -24.2799  -54.2182 C.3       18 UNK         0.1400 
    101 CB        -3.8899  -25.1697  -54.8119 C.3       18 UNK        -0.1800 
    102 C         -4.5960  -22.7919  -54.2957 C.2       18 UNK         0.5000 
    103 O         -4.1634  -22.2174  -53.2934 O.2       18 UNK        -0.5000 
    104 N         -4.7205  -22.2288  -55.5076 N.am      19 UNK        -0.5000 
    105 CA        -4.5039  -20.8304  -55.9074 C.3       19 UNK         0.1400 
    106 CB        -3.1139  -20.3127  -55.4854 C.3       19 UNK        -0.1800 
    107 C         -5.6200  -19.8907  -55.4150 C.2       19 UNK         0.5000 
    108 O         -6.2088  -20.1142  -54.3577 O.2       19 UNK        -0.5000 
    109 N         -5.8857  -18.8245  -56.1804 N.am      20 UNK        -0.5000 
    110 CA        -6.9672  -17.8629  -55.9254 C.3       20 UNK         0.1400 
    111 CB        -7.0386  -16.8703  -57.0962 C.3       20 UNK        -0.1800 
    112 C         -6.8517  -17.1061  -54.5855 C.2       20 UNK         0.5000 
    113 O         -7.8697  -16.6825  -54.0370 O.2       20 UNK        -0.5000 
    114 N         -5.6195  -16.9587  -54.0841 N.am      21 UNK        -0.5000 
    115 CA        -5.3073  -16.2981  -52.8188 C.3       21 UNK         0.1400 
    116 CB        -3.8880  -15.7147  -52.9180 C.3       21 UNK        -0.1800 
    117 C         -5.4251  -17.2212  -51.5881 C.2       21 UNK         0.5000 
    118 O         -5.4429  -16.7021  -50.4713 O.2       21 UNK        -0.5000 
    119 N         -5.4700  -18.5462  -51.7900 N.am      22 UNK        -0.5000 
    120 CA        -5.3997  -19.5545  -50.7156 C.3       22 UNK         0.1400 
    121 C         -6.4745  -20.6752  -50.8018 C.2       22 UNK         0.5000 
    122 N         -7.1717  -20.8712  -51.9104 N.am      22 UNK        -0.7600 
    123 O         -6.6992  -21.3775  -49.8206 O.2       22 UNK        -0.5000 
    124 C124       -3.9667  -20.1460  -50.6000 C.3       23 UNK        -0.0398 
    125 S125       -2.9192  -19.2209  -49.4293 S.3       23 UNK        -0.2404 
    126 C126       -1.9087  -18.1746  -50.5218 C.3       23 UNK        -0.0205 
    127 H127       -0.6189   -7.5842  -46.2608 H         1 UNK         0.0600 
    128 H128        0.6722   -7.3132  -45.0867 H         1 UNK         0.0600 
    129 H129       -0.6906   -8.3597  -44.6760 H         1 UNK         0.0600 
    130 H130        0.0151   -8.9504  -47.8649 H         1 UNK         0.3000 
    131 H131        0.7200  -10.6715  -49.0063 H         1 UNK         0.0600 
    132 H132        1.9325  -12.1208  -46.6073 H         1 UNK         0.0800 
    133 H133        0.2105  -12.0937  -46.8619 H         1 UNK         0.0800 
    134 H134        0.7314  -14.7817  -46.6193 H         1 UNK         0.0800 
    135 H135       -0.6936  -14.3152  -47.5187 H         1 UNK         0.0800 
    136 H136       -1.5904  -15.7835  -49.2146 H         1 UNK         0.1150 
    137 H137        0.4424  -19.4314  -50.1417 H         1 UNK         0.1150 
    138 H138        2.2814  -16.5648  -47.5384 H         1 UNK         0.1150 
    139 H139        2.8492  -19.6263  -49.5239 H         1 UNK         0.0800 
    140 H140        3.5772  -18.4857  -48.4221 H         1 UNK         0.0800 
    141 H141        0.9258  -21.2025  -48.8341 H         1 UNK         0.0800 
    142 H142        0.0111  -20.3547  -47.6040 H         1 UNK         0.0800 
    143 H143        1.4312  -23.0384  -47.2539 H         1 UNK         0.0600 
    144 H144        0.4480  -21.3376  -45.2204 H         1 UNK         0.3000 
    145 H145       -0.4305  -23.8795  -42.8456 H         1 UNK         0.0600 
    146 H146        1.1152  -22.4712  -41.4964 H         1 UNK         0.0600 
    147 H147        2.0084  -23.5052  -42.6009 H         1 UNK         0.0600 
    148 H148        1.8174  -21.7968  -42.9661 H         1 UNK         0.0600 
    149 H149       -0.5390  -20.9787  -42.9617 H         1 UNK         0.3000 
    150 H150       -3.9673  -20.8037  -43.9365 H         1 UNK         0.0600 
    151 H151       -4.0096  -21.2651  -41.4754 H         1 UNK         0.0600 
    152 H152       -4.1240  -19.5449  -41.8117 H         1 UNK         0.0600 
    153 H153       -2.6009  -20.2340  -41.2503 H         1 UNK         0.0600 
    154 H154       -2.0747  -18.7971  -43.1953 H         1 UNK         0.3000 
    155 H155       -0.6206  -18.2946  -46.4085 H         1 UNK         0.0600 
    156 H156       -1.5690  -15.9918  -45.9813 H         1 UNK         0.0600 
    157 H157       -2.7752  -16.7036  -44.9176 H         1 UNK         0.0600 
    158 H158       -2.7596  -17.1090  -46.6306 H         1 UNK         0.0600 
    159 H159       -0.2477  -16.7535  -44.1369 H         1 UNK         0.3000 
    160 H160        1.9356  -18.6414  -42.1986 H         1 UNK         0.0600 
    161 H161        2.9304  -16.8849  -44.5028 H         1 UNK         0.0600 
    162 H162        3.5500  -18.4538  -44.0239 H         1 UNK         0.0600 
    163 H163        3.7636  -17.0720  -42.9584 H         1 UNK         0.0600 
    164 H164        1.4827  -15.8024  -42.7069 H         1 UNK         0.3000 
    165 H165       -1.2202  -15.4836  -40.4537 H         1 UNK         0.0600 
    166 H166        1.6901  -14.8521  -39.7181 H         1 UNK         0.0600 
    167 H167        0.2578  -14.0860  -39.0292 H         1 UNK         0.0600 
    168 H168        0.5697  -15.7892  -38.7369 H         1 UNK         0.0600 
    169 H169        0.6362  -13.5772  -41.5383 H         1 UNK         0.3000 
    170 H170       -0.7152  -13.3294  -44.7673 H         1 UNK         0.0600 
    171 H171       -2.4461  -12.0334  -43.5002 H         1 UNK         0.0600 
    172 H172       -1.1865  -11.3377  -42.4866 H         1 UNK         0.0600 
    173 H173       -1.2359  -10.9804  -44.2133 H         1 UNK         0.0600 
    174 H174        1.0824  -11.5825  -43.5673 H         1 UNK         0.3000 
    175 H175        3.2564  -11.6603  -44.0992 H         1 UNK         0.0600 
    176 H176        5.0534  -12.6234  -42.6233 H         1 UNK         0.0600 
    177 H177        3.5017  -12.6511  -41.8001 H         1 UNK         0.0600 
    178 H178        4.1535  -14.1335  -42.4917 H         1 UNK         0.0600 
    179 H179        3.6940  -14.1816  -45.4342 H         1 UNK         0.3000 
    180 H180        6.6587  -13.3590  -47.0547 H         1 UNK         0.0600 
    181 H181        4.0781  -15.0230  -47.2155 H         1 UNK         0.0600 
    182 H182        5.5096  -15.4671  -46.2838 H         1 UNK         0.0600 
    183 H183        5.5975  -15.3558  -48.0322 H         1 UNK         0.0600 
    184 H184        4.0509  -12.9144  -48.4126 H         1 UNK         0.3000 
    185 H185        5.0138   -9.8493  -49.8239 H         1 UNK         0.0600 
    186 H186        4.2838  -10.9103  -51.9505 H         1 UNK         0.0600 
    187 H187        5.9064  -11.4355  -51.5303 H         1 UNK         0.0600 
    188 H188        4.5429  -12.5159  -51.2671 H         1 UNK         0.0600 
    189 H189        2.7015  -11.6129  -49.9285 H         1 UNK         0.3000 
    190 H190       -1.9266  -21.7899  -46.7188 H         1 UNK         0.3000 
    191 H191       -3.1493  -23.1008  -48.8786 H         1 UNK         0.0600 
    192 H192       -4.2375  -21.2767  -47.6086 H         1 UNK         0.0600 
    193 H193       -5.2640  -22.6992  -47.6015 H         1 UNK         0.0600 
    194 H194       -4.3267  -22.2868  -46.1686 H         1 UNK         0.0600 
    195 H195       -2.5961  -24.2784  -45.5287 H         1 UNK         0.3000 
    196 H196       -3.9581  -26.7554  -45.8011 H         1 UNK         0.0600 
    197 H197       -2.6340  -27.4064  -43.7857 H         1 UNK         0.0600 
    198 H198       -3.3346  -25.8053  -43.6054 H         1 UNK         0.0600 
    199 H199       -1.6214  -25.9807  -43.9758 H         1 UNK         0.0600 
    200 H200       -0.5181  -25.8862  -46.3805 H         1 UNK         0.3000 
    201 H201        0.3461  -28.5026  -47.1372 H         1 UNK         0.0600 
    202 H202        1.9037  -26.7398  -46.3638 H         1 UNK         0.0600 
    203 H203        1.5281  -25.7461  -47.7687 H         1 UNK         0.0600 
    204 H204        2.3601  -27.2836  -47.9718 H         1 UNK         0.0600 
    205 H205       -0.8133  -25.7081  -49.0528 H         1 UNK         0.3000 
    206 H206       -0.4363  -26.9524  -51.6218 H         1 UNK         0.0600 
    207 H207       -0.3621  -24.4828  -51.2248 H         1 UNK         0.0600 
    208 H208       -1.5633  -24.8950  -52.4320 H         1 UNK         0.0600 
    209 H209       -2.0725  -24.4928  -50.7968 H         1 UNK         0.0600 
    210 H210       -2.8592  -27.4000  -49.2766 H         1 UNK         0.3000 
    211 H211       -4.8446  -28.3523  -49.1417 H         1 UNK         0.0600 
    212 H212       -4.3909  -29.5125  -51.9426 H         1 UNK         0.0600 
    213 H213       -5.5524  -30.0753  -50.7505 H         1 UNK         0.0600 
    214 H214       -3.8322  -30.2395  -50.4366 H         1 UNK         0.0600 
    215 H215       -4.8240  -25.7666  -49.6361 H         1 UNK         0.3000 
    216 H216       -5.9680  -23.9699  -50.1466 H         1 UNK         0.0600 
    217 H217       -7.8093  -25.2662  -49.0579 H         1 UNK         0.0600 
    218 H218       -8.3542  -25.8226  -50.6410 H         1 UNK         0.0600 
    219 H219       -8.4197  -24.1130  -50.2309 H         1 UNK         0.0600 
    220 H220       -4.4830  -25.1344  -52.3505 H         1 UNK         0.3000 
    221 H221       -5.9035  -24.4255  -54.8035 H         1 UNK         0.0600 
    222 H222       -2.9418  -25.0384  -54.2917 H         1 UNK         0.0600 
    223 H223       -4.1600  -26.2245  -54.7535 H         1 UNK         0.0600 
    224 H224       -3.7195  -24.9377  -55.8638 H         1 UNK         0.0600 
    225 H225       -5.0894  -22.8124  -56.2451 H         1 UNK         0.3000 
    226 H226       -4.5389  -20.8332  -56.9979 H         1 UNK         0.0600 
    227 H227       -2.3262  -21.0025  -55.7884 H         1 UNK         0.0600 
    228 H228       -2.8998  -19.3510  -55.9527 H         1 UNK         0.0600 
    229 H229       -3.0384  -20.1683  -54.4072 H         1 UNK         0.0600 
    230 H230       -5.3550  -18.6848  -57.0284 H         1 UNK         0.3000 
    231 H231       -7.9044  -18.4228  -55.8972 H         1 UNK         0.0600 
    232 H232       -7.8505  -16.1556  -56.9546 H         1 UNK         0.0600 
    233 H233       -7.2225  -17.3844  -58.0398 H         1 UNK         0.0600 
    234 H234       -6.1139  -16.3008  -57.1971 H         1 UNK         0.0600 
    235 H235       -4.8425  -17.3353  -54.6065 H         1 UNK         0.3000 
    236 H236       -6.0006  -15.4678  -52.6679 H         1 UNK         0.0600 
    237 H237       -3.8194  -14.9834  -53.7236 H         1 UNK         0.0600 
    238 H238       -3.6056  -15.2053  -51.9956 H         1 UNK         0.0600 
    239 H239       -3.1455  -16.4909  -53.1069 H         1 UNK         0.0600 
    240 H240       -5.5194  -18.9054  -52.7348 H         1 UNK         0.3000 
    241 H241       -5.6405  -19.0704  -49.7671 H         1 UNK         0.0600 
    242 H242       -6.9055  -20.4281  -52.7878 H         1 UNK         0.3800 
    243 H243       -7.8328  -21.6314  -51.9354 H         1 UNK         0.3800 
    244 H244       -3.4855  -20.2038  -51.5772 H         1 UNK         0.0800 
    245 H245       -3.9864  -21.1736  -50.2334 H         1 UNK         0.0800 
    246 H246       -1.5844  -18.7417  -51.3955 H         1 UNK         0.0800 
    247 H247       -2.5095  -17.3424  -50.8864 H         1 UNK         0.0800 
@<TRIPOS>BOND
     1    1    2 1    
     2    1  127 1    
     3    1  128 1    
     4    1  129 1    
     5    2    3 2    
     6    2    4 am   BACKBONE|DICT|INTERRES
     7    4    5 1    
     8    4  130 1    
     9    5    6 1    
    10    5   65 1    
    11    5  131 1    
    12    6    7 1    
    13    6  132 1    
    14    6  133 1    
    15    7    8 1    
    16    8    9 1    
    17    8  134 1    
    18    8  135 1    
    19    9   10 ar   
    20    9   14 ar   
    21   10   11 ar   
    22   10  136 1    
    23   11   12 ar   
    24   11  126 1    
    25   12   13 ar   
    26   12  137 1    
    27   13   14 ar   
    28   13   15 1    
    29   14  138 1    
    30   15   16 1    
    31   15  139 1    
    32   15  140 1    
    33   16   17 1    
    34   17   18 1    
    35   17  141 1    
    36   17  142 1    
    37   18   19 1    
    38   18   67 1    
    39   18  143 1    
    40   19   20 am   BACKBONE|DICT|INTERRES
    41   19  144 1    
    42   20   21 2    
    43   20   22 1    
    44   22   23 1    
    45   22   24 1    
    46   22  145 1    
    47   23  146 1    
    48   23  147 1    
    49   23  148 1    
    50   24   25 am   BACKBONE|DICT|INTERRES
    51   24  149 1    
    52   25   26 2    
    53   25   27 1    
    54   27   28 1    
    55   27   29 1    
    56   27  150 1    
    57   28  151 1    
    58   28  152 1    
    59   28  153 1    
    60   29   30 am   BACKBONE|DICT|INTERRES
    61   29  154 1    
    62   30   31 2    
    63   30   32 1    
    64   32   33 1    
    65   32   34 1    
    66   32  155 1    
    67   33  156 1    
    68   33  157 1    
    69   33  158 1    
    70   34   35 am   BACKBONE|DICT|INTERRES
    71   34  159 1    
    72   35   36 2    
    73   35   37 1    
    74   37   38 1    
    75   37   39 1    
    76   37  160 1    
    77   38  161 1    
    78   38  162 1    
    79   38  163 1    
    80   39   40 am   BACKBONE|DICT|INTERRES
    81   39  164 1    
    82   40   41 2    
    83   40   42 1    
    84   42   43 1    
    85   42   44 1    
    86   42  165 1    
    87   43  166 1    
    88   43  167 1    
    89   43  168 1    
    90   44   45 am   BACKBONE|DICT|INTERRES
    91   44  169 1    
    92   45   46 2    
    93   45   47 1    
    94   47   48 1    
    95   47   49 1    
    96   47  170 1    
    97   48  171 1    
    98   48  172 1    
    99   48  173 1    
   100   49   50 am   BACKBONE|DICT|INTERRES
   101   49  174 1    
   102   50   51 2    
   103   50   52 1    
   104   52   53 1    
   105   52   54 1    
   106   52  175 1    
   107   53  176 1    
   108   53  177 1    
   109   53  178 1    
   110   54   55 am   BACKBONE|DICT|INTERRES
   111   54  179 1    
   112   55   56 2    
   113   55   57 1    
   114   57   58 1    
   115   57   59 1    
   116   57  180 1    
   117   58  181 1    
   118   58  182 1    
   119   58  183 1    
   120   59   60 am   BACKBONE|DICT|INTERRES
   121   59  184 1    
   122   60   61 2    
   123   60   62 1    
   124   62   63 1    
   125   62   64 1    
   126   62  185 1    
   127   63  186 1    
   128   63  187 1    
   129   63  188 1    
   130   64   65 am   BACKBONE|DICT|INTERRES
   131   64  189 1    
   132   65   66 2    
   133   67   68 2    
   134   67   69 am   BACKBONE|DICT|INTERRES
   135   69   70 1    
   136   69  190 1    
   137   70   71 1    
   138   70   72 1    
   139   70  191 1    
   140   71  192 1    
   141   71  193 1    
   142   71  194 1    
   143   72   73 2    
   144   72   74 am   BACKBONE|DICT|INTERRES
   145   74   75 1    
   146   74  195 1    
   147   75   76 1    
   148   75   77 1    
   149   75  196 1    
   150   76  197 1    
   151   76  198 1    
   152   76  199 1    
   153   77   78 2    
   154   77   79 am   BACKBONE|DICT|INTERRES
   155   79   80 1    
   156   79  200 1    
   157   80   81 1    
   158   80   82 1    
   159   80  201 1    
   160   81  202 1    
   161   81  203 1    
   162   81  204 1    
   163   82   83 2    
   164   82   84 am   BACKBONE|DICT|INTERRES
   165   84   85 1    
   166   84  205 1    
   167   85   86 1    
   168   85   87 1    
   169   85  206 1    
   170   86  207 1    
   171   86  208 1    
   172   86  209 1    
   173   87   88 2    
   174   87   89 am   BACKBONE|DICT|INTERRES
   175   89   90 1    
   176   89  210 1    
   177   90   91 1    
   178   90   92 1    
   179   90  211 1    
   180   91  212 1    
   181   91  213 1    
   182   91  214 1    
   183   92   93 2    
   184   92   94 am   BACKBONE|DICT|INTERRES
   185   94   95 1    
   186   94  215 1    
   187   95   96 1    
   188   95   97 1    
   189   95  216 1    
   190   96  217 1    
   191   96  218 1    
   192   96  219 1    
   193   97   98 2    
   194   97   99 am   BACKBONE|DICT|INTERRES
   195   99  100 1    
   196   99  220 1    
   197  100  101 1    
   198  100  102 1    
   199  100  221 1    
   200  101  222 1    
   201  101  223 1    
   202  101  224 1    
   203  102  103 2    
   204  102  104 am   BACKBONE|DICT|INTERRES
   205  104  105 1    
   206  104  225 1    
   207  105  106 1    
   208  105  107 1    
   209  105  226 1    
   210  106  227 1    
   211  106  228 1    
   212  106  229 1    
   213  107  108 2    
   214  107  109 am   BACKBONE|DICT|INTERRES
   215  109  110 1    
   216  109  230 1    
   217  110  111 1    
   218  110  112 1    
   219  110  231 1    
   220  111  232 1    
   221  111  233 1    
   222  111  234 1    
   223  112  113 2    
   224  112  114 am   BACKBONE|DICT|INTERRES
   225  114  115 1    
   226  114  235 1    
   227  115  116 1    
   228  115  117 1    
   229  115  236 1    
   230  116  237 1    
   231  116  238 1    
   232  116  239 1    
   233  117  118 2    
   234  117  119 am   BACKBONE|DICT|INTERRES
   235  119  120 1    
   236  119  240 1    
   237  120  121 1    
   238  120  124 1    
   239  120  241 1    
   240  121  122 am   BACKBONE|DICT|INTERRES
   241  121  123 2    
   242  122  242 1    
   243  122  243 1    
   244  124  125 1    
   245  124  244 1    
   246  124  245 1    
   247  125  126 1    
   248  126  246 1    
   249  126  247 1    
@<TRIPOS>SUBSTRUCTURE
     1 UNK         1 GROUP             0       ****    0 ROOT    
