@<TRIPOS>MOLECULE
3R540
247   249    1
SMALL
USER_CHARGES


@<TRIPOS>ATOM
      1 CA          2.3953  -13.7352  -50.6285 C.3       0 UNK        -0.1800 
      2 C           1.4602  -14.1989  -49.5208 C.2       0 UNK         0.5000 
      3 O           1.8860  -14.9400  -48.6374 O.2       0 UNK        -0.5000 
      4 N           0.1940  -13.7693  -49.5749 N.am      1 UNK        -0.5000 
      5 CA         -0.8613  -14.1145  -48.6165 C.3       1 UNK         0.1400 
      6 C6         -2.2794  -13.9328  -49.2270 C.3       23 UNK        -0.0398 
      7 S7         -2.5500  -14.7181  -50.8537 S.3       23 UNK        -0.2404 
      8 C8         -2.3413  -16.4950  -50.4946 C.3       23 UNK        -0.0205 
      9 C9         -0.9082  -16.9768  -50.6985 C.ar      23 UNK        -0.0193 
     10 C10        -0.2348  -16.6939  -51.8915 C.ar      23 UNK        -0.1150 
     11 C11         1.0803  -17.1210  -52.0904 C.ar      23 UNK        -0.0193 
     12 C12         1.7219  -17.8473  -51.0855 C.ar      23 UNK        -0.1150 
     13 C13         1.0628  -18.1474  -49.8910 C.ar      23 UNK        -0.0193 
     14 C14        -0.2558  -17.7151  -49.7046 C.ar      23 UNK        -0.1150 
     15 C15         1.8018  -18.9081  -48.7985 C.3       23 UNK        -0.0205 
     16 S16         2.0541  -20.6571  -49.2275 S.3       23 UNK        -0.2404 
     17 C17         0.3663  -21.3163  -49.0372 C.3       23 UNK        -0.0398 
     18 CA          0.2631  -22.3512  -47.8945 C.3       11 UNK         0.1400 
     19 N           0.6182  -21.7949  -46.5845 N.am      11 UNK        -0.5000 
     20 C           1.0583  -22.5393  -45.5624 C.2       10 UNK         0.5000 
     21 O           1.1887  -23.7630  -45.6122 O.2       10 UNK        -0.5000 
     22 CA          1.3588  -21.7870  -44.2559 C.3       10 UNK         0.1400 
     23 CB          2.5622  -20.8444  -44.4230 C.3       10 UNK        -0.1800 
     24 N           0.2120  -21.0315  -43.7442 N.am      10 UNK        -0.5000 
     25 C          -0.9517  -21.5758  -43.3582 C.2       9 UNK         0.5000 
     26 O          -1.2488  -22.7543  -43.5488 O.2       9 UNK        -0.5000 
     27 CA         -1.9558  -20.6674  -42.6344 C.3       9 UNK         0.1400 
     28 CB         -1.5940  -20.5692  -41.1450 C.3       9 UNK        -0.1800 
     29 N          -1.9901  -19.3226  -43.2036 N.am      9 UNK        -0.5000 
     30 C          -3.0510  -18.7744  -43.8073 C.2       8 UNK         0.5000 
     31 O          -4.1101  -19.3710  -44.0082 O.2       8 UNK        -0.5000 
     32 CA         -2.8939  -17.3032  -44.2469 C.3       8 UNK         0.1400 
     33 CB         -4.2167  -16.6598  -44.7114 C.3       8 UNK        -0.1800 
     34 N          -2.2429  -16.4633  -43.2328 N.am      8 UNK        -0.5000 
     35 C          -2.6518  -16.2411  -41.9725 C.2       7 UNK         0.5000 
     36 O          -3.6691  -16.7272  -41.4759 O.2       7 UNK        -0.5000 
     37 CA         -1.7548  -15.2992  -41.1441 C.3       7 UNK         0.1400 
     38 CB         -2.1648  -15.1881  -39.6599 C.3       7 UNK        -0.1800 
     39 N          -0.3347  -15.6319  -41.3022 N.am      7 UNK        -0.5000 
     40 C           0.3077  -16.7151  -40.8417 C.2       6 UNK         0.5000 
     41 O          -0.2031  -17.5649  -40.1119 O.2       6 UNK        -0.5000 
     42 CA          1.7713  -16.8685  -41.3080 C.3       6 UNK         0.1400 
     43 CB          2.3862  -18.2346  -40.9338 C.3       6 UNK        -0.1800 
     44 N           1.9337  -16.6020  -42.7424 N.am      6 UNK        -0.5000 
     45 C           1.3663  -17.2790  -43.7529 C.2       5 UNK         0.5000 
     46 O           0.6083  -18.2356  -43.5838 O.2       5 UNK        -0.5000 
     47 CA          1.6635  -16.8032  -45.1885 C.3       5 UNK         0.1400 
     48 CB          0.4145  -16.8977  -46.0796 C.3       5 UNK        -0.1800 
     49 N           2.1342  -15.4219  -45.2073 N.am      5 UNK        -0.5000 
     50 C           3.3950  -15.0157  -45.3990 C.2       4 UNK         0.5000 
     51 O           4.3339  -15.7795  -45.6255 O.2       4 UNK        -0.5000 
     52 CA          3.6649  -13.5006  -45.2691 C.3       4 UNK         0.1400 
     53 CB          3.8564  -12.8508  -46.6476 C.3       4 UNK        -0.1800 
     54 N           2.6125  -12.7800  -44.5461 N.am      4 UNK        -0.5000 
     55 C           2.3688  -12.9008  -43.2335 C.2       3 UNK         0.5000 
     56 O           3.0271  -13.6181  -42.4798 O.2       3 UNK        -0.5000 
     57 CA          1.1394  -12.1519  -42.6842 C.3       3 UNK         0.1400 
     58 CB          1.5212  -10.7257  -42.2619 C.3       3 UNK        -0.1800 
     59 N           0.0110  -12.0935  -43.6197 N.am      3 UNK        -0.5000 
     60 C          -0.6161  -13.1542  -44.1456 C.2       2 UNK         0.5000 
     61 O          -0.2838  -14.3186  -43.9158 O.2       2 UNK        -0.5000 
     62 CA         -1.8240  -12.9033  -45.0668 C.3       2 UNK         0.1400 
     63 CB         -2.1922  -11.4137  -45.2529 C.3       2 UNK        -0.1800 
     64 N          -1.6635  -13.5726  -46.3617 N.am      2 UNK        -0.5000 
     65 C          -0.7276  -13.3216  -47.2914 C.2       1 UNK         0.5000 
     66 O           0.1701  -12.4878  -47.1418 O.2       1 UNK        -0.5000 
     67 C          -1.1281  -23.0166  -47.8732 C.2       11 UNK         0.5000 
     68 O          -1.4075  -23.8507  -48.7319 O.2       11 UNK        -0.5000 
     69 N          -1.9779  -22.6568  -46.8997 N.am      12 UNK        -0.5000 
     70 CA         -3.2816  -23.2838  -46.6829 C.3       12 UNK         0.1400 
     71 CB         -4.1221  -22.4320  -45.7217 C.3       12 UNK        -0.1800 
     72 C          -3.1315  -24.7283  -46.1738 C.2       12 UNK         0.5000 
     73 O          -3.7650  -25.6339  -46.7178 O.2       12 UNK        -0.5000 
     74 N          -2.2477  -24.9220  -45.1832 N.am      13 UNK        -0.5000 
     75 CA         -1.8748  -26.2278  -44.6361 C.3       13 UNK         0.1400 
     76 CB         -0.9956  -26.0264  -43.3932 C.3       13 UNK        -0.1800 
     77 C          -1.1609  -27.1287  -45.6607 C.2       13 UNK         0.5000 
     78 O          -1.3341  -28.3477  -45.6215 O.2       13 UNK        -0.5000 
     79 N          -0.4125  -26.5185  -46.5898 N.am      14 UNK        -0.5000 
     80 CA          0.2630  -27.1723  -47.7123 C.3       14 UNK         0.1400 
     81 CB          1.4126  -26.2702  -48.1946 C.3       14 UNK        -0.1800 
     82 C          -0.7143  -27.5429  -48.8514 C.2       14 UNK         0.5000 
     83 O          -0.4953  -27.1632  -50.0018 O.2       14 UNK        -0.5000 
     84 N          -1.7780  -28.2813  -48.5054 N.am      15 UNK        -0.5000 
     85 CA         -2.8166  -28.8244  -49.3878 C.3       15 UNK         0.1400 
     86 CB         -2.2309  -29.9436  -50.2744 C.3       15 UNK        -0.1800 
     87 C          -3.5733  -27.7486  -50.1981 C.2       15 UNK         0.5000 
     88 O          -3.8680  -27.9598  -51.3762 O.2       15 UNK        -0.5000 
     89 N          -3.8833  -26.6189  -49.5434 N.am      16 UNK        -0.5000 
     90 CA         -4.6270  -25.4709  -50.0748 C.3       16 UNK         0.1400 
     91 CB         -6.0927  -25.8541  -50.3684 C.3       16 UNK        -0.1800 
     92 C          -3.9372  -24.7690  -51.2652 C.2       16 UNK         0.5000 
     93 O          -4.6173  -24.2311  -52.1409 O.2       16 UNK        -0.5000 
     94 N          -2.5970  -24.7408  -51.2553 N.am      17 UNK        -0.5000 
     95 CA         -1.7522  -24.0641  -52.2448 C.3       17 UNK         0.1400 
     96 CB         -0.2896  -24.4825  -52.0301 C.3       17 UNK        -0.1800 
     97 C          -1.8782  -22.5271  -52.2306 C.2       17 UNK         0.5000 
     98 O          -1.4860  -21.8817  -53.2039 O.2       17 UNK        -0.5000 
     99 N          -2.4282  -21.9653  -51.1430 N.am      18 UNK        -0.5000 
    100 CA        -2.7611  -20.5466  -51.0129 C.3       18 UNK         0.1400 
    101 CB        -3.3139  -20.2693  -49.6040 C.3       18 UNK        -0.1800 
    102 C         -3.7770  -20.0879  -52.0726 C.2       18 UNK         0.5000 
    103 O         -3.5967  -19.0263  -52.6669 O.2       18 UNK        -0.5000 
    104 N         -4.8356  -20.8882  -52.2771 N.am      19 UNK        -0.5000 
    105 CA        -5.9052  -20.7393  -53.2795 C.3       19 UNK         0.1400 
    106 CB        -5.3195  -20.9842  -54.6855 C.3       19 UNK        -0.1800 
    107 C         -6.6972  -19.4081  -53.2351 C.2       19 UNK         0.5000 
    108 O         -7.5081  -19.1607  -54.1281 O.2       19 UNK        -0.5000 
    109 N         -6.4162  -18.5610  -52.2324 N.am      20 UNK        -0.5000 
    110 CA        -6.7682  -17.1407  -52.1201 C.3       20 UNK         0.1400 
    111 CB        -8.2900  -16.9658  -51.9370 C.3       20 UNK        -0.1800 
    112 C         -6.1993  -16.2730  -53.2706 C.2       20 UNK         0.5000 
    113 O         -6.7314  -15.1923  -53.5319 O.2       20 UNK        -0.5000 
    114 N         -5.1456  -16.7555  -53.9484 N.am      21 UNK        -0.5000 
    115 CA        -4.6128  -16.1640  -55.1803 C.3       21 UNK         0.1400 
    116 CB        -5.5760  -16.4597  -56.3501 C.3       21 UNK        -0.1800 
    117 C         -3.1834  -16.6200  -55.5381 C.2       21 UNK         0.5000 
    118 O         -2.6455  -16.1211  -56.5276 O.2       21 UNK        -0.5000 
    119 N         -2.5902  -17.5373  -54.7601 N.am      22 UNK        -0.5000 
    120 CA        -1.3273  -18.2432  -55.0261 C.3       22 UNK         0.1400 
    121 C         -1.5163  -19.3391  -56.1125 C.2       22 UNK         0.5000 
    122 N         -1.5797  -20.6085  -55.7354 N.am      22 UNK        -0.7600 
    123 O         -1.5952  -19.0543  -57.3051 O.2       22 UNK        -0.5000 
    124 C124       -0.1356  -17.2911  -55.3354 C.3       23 UNK        -0.0398 
    125 S125        1.4586  -17.9327  -54.7223 S.3       23 UNK        -0.2404 
    126 C126        1.8264  -16.7702  -53.3692 C.3       23 UNK        -0.0205 
    127 H127        1.8784  -13.1202  -51.3656 H         1 UNK         0.0600 
    128 H128        2.8192  -14.5975  -51.1432 H         1 UNK         0.0600 
    129 H129        3.2134  -13.1508  -50.2075 H         1 UNK         0.0600 
    130 H130       -0.0874  -13.1538  -50.3232 H         1 UNK         0.3000 
    131 H131       -0.7441  -15.1677  -48.3595 H         1 UNK         0.0600 
    132 H132       -2.5000  -12.8705  -49.3474 H         1 UNK         0.0800 
    133 H133       -3.0457  -14.3212  -48.5548 H         1 UNK         0.0800 
    134 H134       -2.9895  -17.0507  -51.1696 H         1 UNK         0.0800 
    135 H135       -2.6927  -16.7107  -49.4848 H         1 UNK         0.0800 
    136 H136       -0.7362  -16.1236  -52.6593 H         1 UNK         0.1150 
    137 H137        2.7421  -18.1753  -51.2271 H         1 UNK         0.1150 
    138 H138       -0.7686  -17.9402  -48.7807 H         1 UNK         0.1150 
    139 H139        1.2715  -18.8520  -47.8501 H         1 UNK         0.0800 
    140 H140        2.7724  -18.4382  -48.6326 H         1 UNK         0.0800 
    141 H141        0.0989  -21.7728  -49.9907 H         1 UNK         0.0800 
    142 H142       -0.3334  -20.4971  -48.8808 H         1 UNK         0.0800 
    143 H143        0.9787  -23.1419  -48.1252 H         1 UNK         0.0600 
    144 H144        0.5368  -20.7970  -46.4658 H         1 UNK         0.3000 
    145 H145        1.6206  -22.5334  -43.5030 H         1 UNK         0.0600 
    146 H146        2.3573  -20.0451  -45.1355 H         1 UNK         0.0600 
    147 H147        3.4372  -21.3877  -44.7821 H         1 UNK         0.0600 
    148 H148        2.8343  -20.3824  -43.4738 H         1 UNK         0.0600 
    149 H149        0.3644  -20.0379  -43.5896 H         1 UNK         0.3000 
    150 H150       -2.9365  -21.1415  -42.7063 H         1 UNK         0.0600 
    151 H151       -0.6023  -20.1392  -40.9989 H         1 UNK         0.0600 
    152 H152       -1.5988  -21.5533  -40.6747 H         1 UNK         0.0600 
    153 H153       -2.3085  -19.9457  -40.6069 H         1 UNK         0.0600 
    154 H154       -1.1378  -18.7743  -43.1264 H         1 UNK         0.3000 
    155 H155       -2.2316  -17.3266  -45.1101 H         1 UNK         0.0600 
    156 H156       -4.9601  -16.6431  -43.9139 H         1 UNK         0.0600 
    157 H157       -4.6475  -17.2111  -45.5482 H         1 UNK         0.0600 
    158 H158       -4.0614  -15.6343  -45.0455 H         1 UNK         0.0600 
    159 H159       -1.3940  -15.9940  -43.5275 H         1 UNK         0.3000 
    160 H160       -1.8812  -14.3072  -41.5791 H         1 UNK         0.0600 
    161 H161       -2.1669  -16.1565  -39.1595 H         1 UNK         0.0600 
    162 H162       -3.1703  -14.7764  -39.5672 H         1 UNK         0.0600 
    163 H163       -1.4921  -14.5276  -39.1131 H         1 UNK         0.0600 
    164 H164        0.1616  -15.0494  -41.9647 H         1 UNK         0.3000 
    165 H165        2.3403  -16.0974  -40.7867 H         1 UNK         0.0600 
    166 H166        2.3911  -18.3760  -39.8525 H         1 UNK         0.0600 
    167 H167        1.8299  -19.0663  -41.3671 H         1 UNK         0.0600 
    168 H168        3.4188  -18.3088  -41.2747 H         1 UNK         0.0600 
    169 H169        2.5124  -15.8042  -42.9723 H         1 UNK         0.3000 
    170 H170        2.4240  -17.4723  -45.5949 H         1 UNK         0.0600 
    171 H171        0.6636  -16.6560  -47.1104 H         1 UNK         0.0600 
    172 H172       -0.0130  -17.9007  -46.0765 H         1 UNK         0.0600 
    173 H173       -0.3589  -16.2016  -45.7611 H         1 UNK         0.0600 
    174 H174        1.4332  -14.7264  -44.9819 H         1 UNK         0.3000 
    175 H175        4.5974  -13.3889  -44.7119 H         1 UNK         0.0600 
    176 H176        4.6049  -13.3840  -47.2351 H         1 UNK         0.0600 
    177 H177        2.9295  -12.8490  -47.2205 H         1 UNK         0.0600 
    178 H178        4.1918  -11.8181  -46.5526 H         1 UNK         0.0600 
    179 H179        1.9933  -12.2069  -45.1032 H         1 UNK         0.3000 
    180 H180        0.8010  -12.6890  -41.7958 H         1 UNK         0.0600 
    181 H181        1.8338  -10.1230  -43.1155 H         1 UNK         0.0600 
    182 H182        2.3458  -10.7369  -41.5478 H         1 UNK         0.0600 
    183 H183        0.6843  -10.2191  -41.7809 H         1 UNK         0.0600 
    184 H184       -0.3170  -11.1718  -43.8696 H         1 UNK         0.3000 
    185 H185       -2.6707  -13.3870  -44.5777 H         1 UNK         0.0600 
    186 H186       -2.4330  -10.9441  -44.2983 H         1 UNK         0.0600 
    187 H187       -1.3875  -10.8401  -45.7137 H         1 UNK         0.0600 
    188 H188       -3.0726  -11.3094  -45.8872 H         1 UNK         0.0600 
    189 H189       -2.3439  -14.2940  -46.5486 H         1 UNK         0.3000 
    190 H190       -1.6697  -21.9898  -46.2088 H         1 UNK         0.3000 
    191 H191       -3.8050  -23.3138  -47.6396 H         1 UNK         0.0600 
    192 H192       -4.2496  -21.4181  -46.1015 H         1 UNK         0.0600 
    193 H193       -5.1178  -22.8586  -45.5951 H         1 UNK         0.0600 
    194 H194       -3.6697  -22.3642  -44.7332 H         1 UNK         0.0600 
    195 H195       -1.7935  -24.1164  -44.7599 H         1 UNK         0.3000 
    196 H196       -2.7907  -26.7371  -44.3296 H         1 UNK         0.0600 
    197 H197       -0.0794  -25.4853  -43.6338 H         1 UNK         0.0600 
    198 H198       -0.7091  -26.9834  -42.9554 H         1 UNK         0.0600 
    199 H199       -1.5241  -25.4622  -42.6246 H         1 UNK         0.0600 
    200 H200       -0.3223  -25.5134  -46.5369 H         1 UNK         0.3000 
    201 H201        0.7052  -28.1037  -47.3530 H         1 UNK         0.0600 
    202 H202        1.0369  -25.3585  -48.6570 H         1 UNK         0.0600 
    203 H203        2.0700  -25.9869  -47.3723 H         1 UNK         0.0600 
    204 H204        2.0234  -26.7832  -48.9382 H         1 UNK         0.0600 
    205 H205       -1.8653  -28.5168  -47.5214 H         1 UNK         0.3000 
    206 H206       -3.5599  -29.2819  -48.7335 H         1 UNK         0.0600 
    207 H207       -1.7312  -30.7026  -49.6726 H         1 UNK         0.0600 
    208 H208       -3.0152  -30.4466  -50.8412 H         1 UNK         0.0600 
    209 H209       -1.5073  -29.5539  -50.9912 H         1 UNK         0.0600 
    210 H210       -3.6017  -26.5310  -48.5720 H         1 UNK         0.3000 
    211 H211       -4.6469  -24.7339  -49.2731 H         1 UNK         0.0600 
    212 H212       -6.5577  -26.3250  -49.5024 H         1 UNK         0.0600 
    213 H213       -6.6869  -24.9729  -50.6133 H         1 UNK         0.0600 
    214 H214       -6.1716  -26.5438  -51.2091 H         1 UNK         0.0600 
    215 H215       -2.1104  -25.1641  -50.4739 H         1 UNK         0.3000 
    216 H216       -2.0617  -24.4013  -53.2359 H         1 UNK         0.0600 
    217 H217        0.0586  -24.2344  -51.0270 H         1 UNK         0.0600 
    218 H218        0.3717  -23.9851  -52.7408 H         1 UNK         0.0600 
    219 H219       -0.1648  -25.5559  -52.1715 H         1 UNK         0.0600 
    220 H220       -2.6757  -22.5772  -50.3788 H         1 UNK         0.3000 
    221 H221       -1.8451  -19.9684  -51.1520 H         1 UNK         0.0600 
    222 H222       -4.2202  -20.8423  -49.4039 H         1 UNK         0.0600 
    223 H223       -2.5938  -20.5177  -48.8279 H         1 UNK         0.0600 
    224 H224       -3.5614  -19.2141  -49.4828 H         1 UNK         0.0600 
    225 H225       -4.8743  -21.7487  -51.7479 H         1 UNK         0.3000 
    226 H226       -6.6275  -21.5307  -53.0745 H         1 UNK         0.0600 
    227 H227       -4.7814  -21.9315  -54.7275 H         1 UNK         0.0600 
    228 H228       -6.1053  -21.0260  -55.4405 H         1 UNK         0.0600 
    229 H229       -4.6265  -20.1944  -54.9785 H         1 UNK         0.0600 
    230 H230       -5.7273  -18.8802  -51.5672 H         1 UNK         0.3000 
    231 H231       -6.2841  -16.7817  -51.2108 H         1 UNK         0.0600 
    232 H232       -8.8399  -17.2257  -52.8418 H         1 UNK         0.0600 
    233 H233       -8.5388  -15.9331  -51.6903 H         1 UNK         0.0600 
    234 H234       -8.6639  -17.5902  -51.1257 H         1 UNK         0.0600 
    235 H235       -4.7468  -17.6362  -53.6467 H         1 UNK         0.3000 
    236 H236       -4.5552  -15.0822  -55.0430 H         1 UNK         0.0600 
    237 H237       -5.7016  -17.5332  -56.4973 H         1 UNK         0.0600 
    238 H238       -6.5625  -16.0295  -56.1782 H         1 UNK         0.0600 
    239 H239       -5.2071  -16.0399  -57.2867 H         1 UNK         0.0600 
    240 H240       -3.0855  -17.9121  -53.9564 H         1 UNK         0.3000 
    241 H241       -1.1093  -18.7498  -54.0840 H         1 UNK         0.0600 
    242 H242       -1.6952  -21.3157  -56.4428 H         1 UNK         0.3800 
    243 H243       -1.5139  -20.8976  -54.7608 H         1 UNK         0.3800 
    244 H244       -0.3095  -16.3115  -54.8917 H         1 UNK         0.0800 
    245 H245       -0.0453  -17.0969  -56.4054 H         1 UNK         0.0800 
    246 H246        1.5968  -15.7477  -53.6725 H         1 UNK         0.0800 
    247 H247        2.9015  -16.7882  -53.1845 H         1 UNK         0.0800 
@<TRIPOS>BOND
     1    1    2 1    
     2    1  127 1    
     3    1  128 1    
     4    1  129 1    
     5    2    3 2    
     6    2    4 am   BACKBONE|DICT|INTERRES
     7    4    5 1    
     8    4  130 1    
     9    5    6 1    
    10    5   65 1    
    11    5  131 1    
    12    6    7 1    
    13    6  132 1    
    14    6  133 1    
    15    7    8 1    
    16    8    9 1    
    17    8  134 1    
    18    8  135 1    
    19    9   10 ar   
    20    9   14 ar   
    21   10   11 ar   
    22   10  136 1    
    23   11   12 ar   
    24   11  126 1    
    25   12   13 ar   
    26   12  137 1    
    27   13   14 ar   
    28   13   15 1    
    29   14  138 1    
    30   15   16 1    
    31   15  139 1    
    32   15  140 1    
    33   16   17 1    
    34   17   18 1    
    35   17  141 1    
    36   17  142 1    
    37   18   19 1    
    38   18   67 1    
    39   18  143 1    
    40   19   20 am   BACKBONE|DICT|INTERRES
    41   19  144 1    
    42   20   21 2    
    43   20   22 1    
    44   22   23 1    
    45   22   24 1    
    46   22  145 1    
    47   23  146 1    
    48   23  147 1    
    49   23  148 1    
    50   24   25 am   BACKBONE|DICT|INTERRES
    51   24  149 1    
    52   25   26 2    
    53   25   27 1    
    54   27   28 1    
    55   27   29 1    
    56   27  150 1    
    57   28  151 1    
    58   28  152 1    
    59   28  153 1    
    60   29   30 am   BACKBONE|DICT|INTERRES
    61   29  154 1    
    62   30   31 2    
    63   30   32 1    
    64   32   33 1    
    65   32   34 1    
    66   32  155 1    
    67   33  156 1    
    68   33  157 1    
    69   33  158 1    
    70   34   35 am   BACKBONE|DICT|INTERRES
    71   34  159 1    
    72   35   36 2    
    73   35   37 1    
    74   37   38 1    
    75   37   39 1    
    76   37  160 1    
    77   38  161 1    
    78   38  162 1    
    79   38  163 1    
    80   39   40 am   BACKBONE|DICT|INTERRES
    81   39  164 1    
    82   40   41 2    
    83   40   42 1    
    84   42   43 1    
    85   42   44 1    
    86   42  165 1    
    87   43  166 1    
    88   43  167 1    
    89   43  168 1    
    90   44   45 am   BACKBONE|DICT|INTERRES
    91   44  169 1    
    92   45   46 2    
    93   45   47 1    
    94   47   48 1    
    95   47   49 1    
    96   47  170 1    
    97   48  171 1    
    98   48  172 1    
    99   48  173 1    
   100   49   50 am   BACKBONE|DICT|INTERRES
   101   49  174 1    
   102   50   51 2    
   103   50   52 1    
   104   52   53 1    
   105   52   54 1    
   106   52  175 1    
   107   53  176 1    
   108   53  177 1    
   109   53  178 1    
   110   54   55 am   BACKBONE|DICT|INTERRES
   111   54  179 1    
   112   55   56 2    
   113   55   57 1    
   114   57   58 1    
   115   57   59 1    
   116   57  180 1    
   117   58  181 1    
   118   58  182 1    
   119   58  183 1    
   120   59   60 am   BACKBONE|DICT|INTERRES
   121   59  184 1    
   122   60   61 2    
   123   60   62 1    
   124   62   63 1    
   125   62   64 1    
   126   62  185 1    
   127   63  186 1    
   128   63  187 1    
   129   63  188 1    
   130   64   65 am   BACKBONE|DICT|INTERRES
   131   64  189 1    
   132   65   66 2    
   133   67   68 2    
   134   67   69 am   BACKBONE|DICT|INTERRES
   135   69   70 1    
   136   69  190 1    
   137   70   71 1    
   138   70   72 1    
   139   70  191 1    
   140   71  192 1    
   141   71  193 1    
   142   71  194 1    
   143   72   73 2    
   144   72   74 am   BACKBONE|DICT|INTERRES
   145   74   75 1    
   146   74  195 1    
   147   75   76 1    
   148   75   77 1    
   149   75  196 1    
   150   76  197 1    
   151   76  198 1    
   152   76  199 1    
   153   77   78 2    
   154   77   79 am   BACKBONE|DICT|INTERRES
   155   79   80 1    
   156   79  200 1    
   157   80   81 1    
   158   80   82 1    
   159   80  201 1    
   160   81  202 1    
   161   81  203 1    
   162   81  204 1    
   163   82   83 2    
   164   82   84 am   BACKBONE|DICT|INTERRES
   165   84   85 1    
   166   84  205 1    
   167   85   86 1    
   168   85   87 1    
   169   85  206 1    
   170   86  207 1    
   171   86  208 1    
   172   86  209 1    
   173   87   88 2    
   174   87   89 am   BACKBONE|DICT|INTERRES
   175   89   90 1    
   176   89  210 1    
   177   90   91 1    
   178   90   92 1    
   179   90  211 1    
   180   91  212 1    
   181   91  213 1    
   182   91  214 1    
   183   92   93 2    
   184   92   94 am   BACKBONE|DICT|INTERRES
   185   94   95 1    
   186   94  215 1    
   187   95   96 1    
   188   95   97 1    
   189   95  216 1    
   190   96  217 1    
   191   96  218 1    
   192   96  219 1    
   193   97   98 2    
   194   97   99 am   BACKBONE|DICT|INTERRES
   195   99  100 1    
   196   99  220 1    
   197  100  101 1    
   198  100  102 1    
   199  100  221 1    
   200  101  222 1    
   201  101  223 1    
   202  101  224 1    
   203  102  103 2    
   204  102  104 am   BACKBONE|DICT|INTERRES
   205  104  105 1    
   206  104  225 1    
   207  105  106 1    
   208  105  107 1    
   209  105  226 1    
   210  106  227 1    
   211  106  228 1    
   212  106  229 1    
   213  107  108 2    
   214  107  109 am   BACKBONE|DICT|INTERRES
   215  109  110 1    
   216  109  230 1    
   217  110  111 1    
   218  110  112 1    
   219  110  231 1    
   220  111  232 1    
   221  111  233 1    
   222  111  234 1    
   223  112  113 2    
   224  112  114 am   BACKBONE|DICT|INTERRES
   225  114  115 1    
   226  114  235 1    
   227  115  116 1    
   228  115  117 1    
   229  115  236 1    
   230  116  237 1    
   231  116  238 1    
   232  116  239 1    
   233  117  118 2    
   234  117  119 am   BACKBONE|DICT|INTERRES
   235  119  120 1    
   236  119  240 1    
   237  120  121 1    
   238  120  124 1    
   239  120  241 1    
   240  121  122 am   BACKBONE|DICT|INTERRES
   241  121  123 2    
   242  122  242 1    
   243  122  243 1    
   244  124  125 1    
   245  124  244 1    
   246  124  245 1    
   247  125  126 1    
   248  126  246 1    
   249  126  247 1    
@<TRIPOS>SUBSTRUCTURE
     1 UNK         1 GROUP             0       ****    0 ROOT    
