@<TRIPOS>MOLECULE
3R540
247   249    1
SMALL
USER_CHARGES


@<TRIPOS>ATOM
      1 CA          8.2670  -15.2658  -49.0206 C.3       0 UNK        -0.1800 
      2 C           6.8869  -15.6204  -48.4874 C.2       0 UNK         0.5000 
      3 O           6.7789  -16.3029  -47.4689 O.2       0 UNK        -0.5000 
      4 N           5.8277  -15.1446  -49.1562 N.am      1 UNK        -0.5000 
      5 CA          4.4198  -15.4230  -48.8323 C.3       1 UNK         0.1400 
      6 C6          3.4575  -14.9172  -49.9316 C.3       23 UNK        -0.0398 
      7 S7          3.6819  -15.8318  -51.4935 S.3       23 UNK        -0.2404 
      8 C8          2.6024  -17.2747  -51.2207 C.3       23 UNK        -0.0205 
      9 C9          1.1362  -16.9475  -51.4576 C.ar      23 UNK        -0.0193 
     10 C10         0.6045  -17.0291  -52.7463 C.ar      23 UNK        -0.1150 
     11 C11        -0.7474  -16.7607  -52.9763 C.ar      23 UNK        -0.0193 
     12 C12        -1.5680  -16.3972  -51.9043 C.ar      23 UNK        -0.1150 
     13 C13        -1.0507  -16.3109  -50.6071 C.ar      23 UNK        -0.0193 
     14 C14         0.3049  -16.5878  -50.3933 C.ar      23 UNK        -0.1150 
     15 C15        -1.9646  -15.8935  -49.4569 C.3       23 UNK        -0.0205 
     16 S16        -1.6882  -16.8146  -47.9062 S.3       23 UNK        -0.2404 
     17 C17        -2.1215  -18.5061  -48.4217 C.3       23 UNK        -0.0398 
     18 CA         -1.9158  -19.5340  -47.2877 C.3       11 UNK         0.1400 
     19 N          -2.7316  -19.2161  -46.1065 N.am      11 UNK        -0.5000 
     20 C          -2.6518  -19.8306  -44.9199 C.2       10 UNK         0.5000 
     21 O          -1.9075  -20.7861  -44.6910 O.2       10 UNK        -0.5000 
     22 CA         -3.6225  -19.3372  -43.8419 C.3       10 UNK         0.1400 
     23 CB         -5.0111  -19.9749  -44.0316 C.3       10 UNK        -0.1800 
     24 N          -3.0955  -19.6778  -42.5273 N.am      10 UNK        -0.5000 
     25 C          -3.4147  -19.0715  -41.3806 C.2       9 UNK         0.5000 
     26 O          -4.2189  -18.1418  -41.3064 O.2       9 UNK        -0.5000 
     27 CA         -2.7003  -19.5466  -40.1019 C.3       9 UNK         0.1400 
     28 CB         -3.3613  -20.8087  -39.5148 C.3       9 UNK        -0.1800 
     29 N          -1.2493  -19.6975  -40.2647 N.am      9 UNK        -0.5000 
     30 C          -0.5629  -20.6263  -40.9477 C.2       8 UNK         0.5000 
     31 O          -1.0948  -21.5792  -41.5161 O.2       8 UNK        -0.5000 
     32 CA          0.9643  -20.4345  -41.0355 C.3       8 UNK         0.1400 
     33 CB          1.5503  -21.0409  -42.3224 C.3       8 UNK        -0.1800 
     34 N           1.3045  -19.0105  -40.9696 N.am      8 UNK        -0.5000 
     35 C           1.9385  -18.4200  -39.9471 C.2       7 UNK         0.5000 
     36 O           2.4015  -19.0332  -38.9847 O.2       7 UNK        -0.5000 
     37 CA          2.0319  -16.8809  -39.9637 C.3       7 UNK         0.1400 
     38 CB          3.3545  -16.4120  -40.5831 C.3       7 UNK        -0.1800 
     39 N           0.9254  -16.2211  -40.6577 N.am      7 UNK        -0.5000 
     40 C          -0.3612  -16.2488  -40.2927 C.2       6 UNK         0.5000 
     41 O          -0.7701  -16.8741  -39.3143 O.2       6 UNK        -0.5000 
     42 CA         -1.3722  -15.4850  -41.1735 C.3       6 UNK         0.1400 
     43 CB         -1.5073  -14.0193  -40.7199 C.3       6 UNK        -0.1800 
     44 N          -1.1224  -15.5835  -42.6194 N.am      6 UNK        -0.5000 
     45 C          -0.0974  -15.0985  -43.3340 C.2       5 UNK         0.5000 
     46 O           0.8256  -14.4345  -42.8598 O.2       5 UNK        -0.5000 
     47 CA         -0.0722  -15.4759  -44.8242 C.3       5 UNK         0.1400 
     48 CB          0.0721  -14.2292  -45.7120 C.3       5 UNK        -0.1800 
     49 N           1.0165  -16.4024  -45.1280 N.am      5 UNK        -0.5000 
     50 C           1.1796  -17.6264  -44.6060 C.2       4 UNK         0.5000 
     51 O           0.4346  -18.1187  -43.7576 O.2       4 UNK        -0.5000 
     52 CA          2.3965  -18.4210  -45.1046 C.3       4 UNK         0.1400 
     53 CB          2.2337  -18.8242  -46.5802 C.3       4 UNK        -0.1800 
     54 N           3.6147  -17.6298  -44.9500 N.am      4 UNK        -0.5000 
     55 C           4.5103  -17.7898  -43.9656 C.2       3 UNK         0.5000 
     56 O           4.4234  -18.6626  -43.1019 O.2       3 UNK        -0.5000 
     57 CA          5.7123  -16.8234  -43.9253 C.3       3 UNK         0.1400 
     58 CB          6.9981  -17.5475  -44.3531 C.3       3 UNK        -0.1800 
     59 N           5.5232  -15.6434  -44.7708 N.am      3 UNK        -0.5000 
     60 C           4.7984  -14.5701  -44.4183 C.2       2 UNK         0.5000 
     61 O           4.3057  -14.4247  -43.3008 O.2       2 UNK        -0.5000 
     62 CA          4.5627  -13.4824  -45.4896 C.3       2 UNK         0.1400 
     63 CB          5.5071  -12.2920  -45.2640 C.3       2 UNK        -0.1800 
     64 N           4.7238  -13.9593  -46.8657 N.am      2 UNK        -0.5000 
     65 C           3.9800  -14.9122  -47.4444 C.2       1 UNK         0.5000 
     66 O           3.0115  -15.4375  -46.8957 O.2       1 UNK        -0.5000 
     67 C          -2.1308  -20.9718  -47.8118 C.2       11 UNK         0.5000 
     68 O          -1.2390  -21.5278  -48.4548 O.2       11 UNK        -0.5000 
     69 N          -3.2812  -21.5764  -47.4796 N.am      12 UNK        -0.5000 
     70 CA         -3.6150  -22.9764  -47.7433 C.3       12 UNK         0.1400 
     71 CB         -5.0488  -23.2463  -47.2646 C.3       12 UNK        -0.1800 
     72 C          -2.6340  -23.9844  -47.1111 C.2       12 UNK         0.5000 
     73 O          -2.4576  -25.0690  -47.6651 O.2       12 UNK        -0.5000 
     74 N          -1.9648  -23.6015  -46.0120 N.am      13 UNK        -0.5000 
     75 CA         -0.9057  -24.3893  -45.3728 C.3       13 UNK         0.1400 
     76 CB         -0.5691  -23.7696  -44.0104 C.3       13 UNK        -0.1800 
     77 C           0.3675  -24.5139  -46.2357 C.2       13 UNK         0.5000 
     78 O           1.1142  -25.4793  -46.0743 O.2       13 UNK        -0.5000 
     79 N           0.5736  -23.5587  -47.1526 N.am      14 UNK        -0.5000 
     80 CA          1.6380  -23.5580  -48.1572 C.3       14 UNK         0.1400 
     81 CB          2.2129  -22.1340  -48.2534 C.3       14 UNK        -0.1800 
     82 C           1.1311  -24.0530  -49.5295 C.2       14 UNK         0.5000 
     83 O           1.8493  -23.9153  -50.5200 O.2       14 UNK        -0.5000 
     84 N          -0.0977  -24.5960  -49.5715 N.am      15 UNK        -0.5000 
     85 CA         -0.8442  -25.0567  -50.7494 C.3       15 UNK         0.1400 
     86 CB         -0.1107  -26.2109  -51.4639 C.3       15 UNK        -0.1800 
     87 C          -1.2528  -23.9216  -51.7140 C.2       15 UNK         0.5000 
     88 O          -1.6183  -24.1942  -52.8577 O.2       15 UNK        -0.5000 
     89 N          -1.2283  -22.6739  -51.2313 N.am      16 UNK        -0.5000 
     90 CA         -1.5921  -21.4631  -51.9618 C.3       16 UNK         0.1400 
     91 CB         -0.4843  -20.4197  -51.7358 C.3       16 UNK        -0.1800 
     92 C          -2.9791  -20.9836  -51.4967 C.2       16 UNK         0.5000 
     93 O          -3.1481  -19.8246  -51.1196 O.2       16 UNK        -0.5000 
     94 N          -3.9442  -21.9122  -51.4688 N.am      17 UNK        -0.5000 
     95 CA         -5.2974  -21.6919  -50.9656 C.3       17 UNK         0.1400 
     96 CB         -6.0318  -23.0391  -50.8965 C.3       17 UNK        -0.1800 
     97 C          -6.0863  -20.6972  -51.8321 C.2       17 UNK         0.5000 
     98 O          -6.1568  -20.8729  -53.0504 O.2       17 UNK        -0.5000 
     99 N          -6.7120  -19.7076  -51.1824 N.am      18 UNK        -0.5000 
    100 CA        -7.5423  -18.6770  -51.8158 C.3       18 UNK         0.1400 
    101 CB        -7.8616  -17.5901  -50.7785 C.3       18 UNK        -0.1800 
    102 C         -8.8407  -19.2228  -52.4467 C.2       18 UNK         0.5000 
    103 O         -9.4126  -18.5772  -53.3250 O.2       18 UNK        -0.5000 
    104 N         -9.2755  -20.4047  -51.9926 N.am      19 UNK        -0.5000 
    105 CA       -10.4253  -21.1386  -52.5177 C.3       19 UNK         0.1400 
    106 CB       -10.9922  -22.0156  -51.3888 C.3       19 UNK        -0.1800 
    107 C        -10.0860  -22.0021  -53.7512 C.2       19 UNK         0.5000 
    108 O        -11.0063  -22.5599  -54.3514 O.2       19 UNK        -0.5000 
    109 N         -8.7972  -22.1305  -54.0978 N.am      20 UNK        -0.5000 
    110 CA        -8.3120  -22.9863  -55.1758 C.3       20 UNK         0.1400 
    111 CB        -7.9332  -24.3699  -54.6074 C.3       20 UNK        -0.1800 
    112 C         -7.1750  -22.2741  -55.9239 C.2       20 UNK         0.5000 
    113 O         -7.4561  -21.3638  -56.7049 O.2       20 UNK        -0.5000 
    114 N         -5.9260  -22.6969  -55.6799 N.am      21 UNK        -0.5000 
    115 CA        -4.6980  -22.2925  -56.3759 C.3       21 UNK         0.1400 
    116 CB        -3.5007  -22.9615  -55.6822 C.3       21 UNK        -0.1800 
    117 C         -4.4568  -20.7746  -56.4919 C.2       21 UNK         0.5000 
    118 O         -3.9102  -20.3286  -57.5020 O.2       21 UNK        -0.5000 
    119 N         -4.8779  -20.0215  -55.4729 N.am      22 UNK        -0.5000 
    120 CA        -4.8129  -18.5545  -55.4055 C.3       22 UNK         0.1400 
    121 C         -6.2268  -17.9076  -55.3388 C.2       22 UNK         0.5000 
    122 N         -7.2979  -18.6133  -55.6812 N.am      22 UNK        -0.7600 
    123 O         -6.3629  -16.7411  -54.9808 O.2       22 UNK        -0.5000 
    124 C124       -3.8805  -18.0948  -54.2530 C.3       23 UNK        -0.0398 
    125 S125       -2.1354  -18.4875  -54.6273 S.3       23 UNK        -0.2404 
    126 C126       -1.3135  -16.8806  -54.3827 C.3       23 UNK        -0.0205 
    127 H127        8.8303  -14.7165  -48.2664 H         1 UNK         0.0600 
    128 H128        8.2089  -14.6503  -49.9186 H         1 UNK         0.0600 
    129 H129        8.8180  -16.1739  -49.2652 H         1 UNK         0.0600 
    130 H130        5.9796  -14.5942  -49.9897 H         1 UNK         0.3000 
    131 H131        4.3235  -16.5094  -48.7780 H         1 UNK         0.0600 
    132 H132        2.4167  -14.9986  -49.6195 H         1 UNK         0.0800 
    133 H133        3.6243  -13.8562  -50.1242 H         1 UNK         0.0800 
    134 H134        2.7471  -17.6688  -50.2138 H         1 UNK         0.0800 
    135 H135        2.9091  -18.0719  -51.8996 H         1 UNK         0.0800 
    136 H136        1.2433  -17.3155  -53.5699 H         1 UNK         0.1150 
    137 H137       -2.6137  -16.1899  -52.0814 H         1 UNK         0.1150 
    138 H138        0.7122  -16.5287  -49.3941 H         1 UNK         0.1150 
    139 H139       -1.8090  -14.8319  -49.2620 H         1 UNK         0.0800 
    140 H140       -3.0120  -16.0059  -49.7414 H         1 UNK         0.0800 
    141 H141       -1.5006  -18.7609  -49.2811 H         1 UNK         0.0800 
    142 H142       -3.1555  -18.5131  -48.7706 H         1 UNK         0.0800 
    143 H143       -0.8732  -19.4786  -46.9734 H         1 UNK         0.0600 
    144 H144       -3.3708  -18.4420  -46.2159 H         1 UNK         0.3000 
    145 H145       -3.7021  -18.2512  -43.9249 H         1 UNK         0.0600 
    146 H146       -5.7202  -19.6112  -43.2878 H         1 UNK         0.0600 
    147 H147       -5.4249  -19.7374  -45.0122 H         1 UNK         0.0600 
    148 H148       -4.9670  -21.0616  -43.9465 H         1 UNK         0.0600 
    149 H149       -2.3981  -20.4192  -42.5190 H         1 UNK         0.3000 
    150 H150       -2.8239  -18.7517  -39.3649 H         1 UNK         0.0600 
    151 H151       -4.4056  -20.6158  -39.2666 H         1 UNK         0.0600 
    152 H152       -2.8625  -21.1259  -38.5991 H         1 UNK         0.0600 
    153 H153       -3.3471  -21.6452  -40.2136 H         1 UNK         0.0600 
    154 H154       -0.7154  -18.9362  -39.8619 H         1 UNK         0.3000 
    155 H155        1.3956  -20.9725  -40.1896 H         1 UNK         0.0600 
    156 H156        1.0259  -20.6844  -43.2091 H         1 UNK         0.0600 
    157 H157        1.4671  -22.1279  -42.3106 H         1 UNK         0.0600 
    158 H158        2.6076  -20.7985  -42.4305 H         1 UNK         0.0600 
    159 H159        0.9573  -18.4422  -41.7352 H         1 UNK         0.3000 
    160 H160        2.0118  -16.5496  -38.9234 H         1 UNK         0.0600 
    161 H161        3.3637  -16.5772  -41.6589 H         1 UNK         0.0600 
    162 H162        4.2069  -16.9418  -40.1560 H         1 UNK         0.0600 
    163 H163        3.5126  -15.3468  -40.4135 H         1 UNK         0.0600 
    164 H164        1.1629  -15.6516  -41.4659 H         1 UNK         0.3000 
    165 H165       -2.3401  -15.9624  -41.0134 H         1 UNK         0.0600 
    166 H166       -0.5689  -13.4724  -40.8146 H         1 UNK         0.0600 
    167 H167       -2.2630  -13.4940  -41.3037 H         1 UNK         0.0600 
    168 H168       -1.8091  -13.9646  -39.6732 H         1 UNK         0.0600 
    169 H169       -1.7873  -16.1620  -43.1123 H         1 UNK         0.3000 
    170 H170       -1.0112  -15.9698  -45.0805 H         1 UNK         0.0600 
    171 H171        1.0113  -13.7076  -45.5237 H         1 UNK         0.0600 
    172 H172        0.0461  -14.4921  -46.7697 H         1 UNK         0.0600 
    173 H173       -0.7399  -13.5241  -45.5309 H         1 UNK         0.0600 
    174 H174        1.7038  -16.0650  -45.7976 H         1 UNK         0.3000 
    175 H175        2.4681  -19.3391  -44.5204 H         1 UNK         0.0600 
    176 H176        2.0505  -17.9670  -47.2288 H         1 UNK         0.0600 
    177 H177        3.1249  -19.3326  -46.9480 H         1 UNK         0.0600 
    178 H178        1.3985  -19.5129  -46.7005 H         1 UNK         0.0600 
    179 H179        3.7289  -16.8548  -45.5913 H         1 UNK         0.3000 
    180 H180        5.8385  -16.4995  -42.8900 H         1 UNK         0.0600 
    181 H181        7.8570  -16.8766  -44.3314 H         1 UNK         0.0600 
    182 H182        6.9145  -17.9551  -45.3610 H         1 UNK         0.0600 
    183 H183        7.2180  -18.3792  -43.6827 H         1 UNK         0.0600 
    184 H184        5.9118  -15.6976  -45.7071 H         1 UNK         0.3000 
    185 H185        3.5346  -13.1328  -45.3754 H         1 UNK         0.0600 
    186 H186        5.2952  -11.4817  -45.9619 H         1 UNK         0.0600 
    187 H187        5.3942  -11.8889  -44.2567 H         1 UNK         0.0600 
    188 H188        6.5520  -12.5793  -45.3877 H         1 UNK         0.0600 
    189 H189        5.5115  -13.5943  -47.3810 H         1 UNK         0.3000 
    190 H190       -3.9496  -21.0508  -46.9370 H         1 UNK         0.3000 
    191 H191       -3.5752  -23.1254  -48.8235 H         1 UNK         0.0600 
    192 H192       -5.3461  -24.2732  -47.4814 H         1 UNK         0.0600 
    193 H193       -5.7641  -22.5913  -47.7619 H         1 UNK         0.0600 
    194 H194       -5.1477  -23.0958  -46.1887 H         1 UNK         0.0600 
    195 H195       -2.1346  -22.6813  -45.6199 H         1 UNK         0.3000 
    196 H196       -1.2895  -25.3974  -45.2032 H         1 UNK         0.0600 
    197 H197       -0.1703  -22.7609  -44.1190 H         1 UNK         0.0600 
    198 H198       -1.4508  -23.7120  -43.3720 H         1 UNK         0.0600 
    199 H199        0.1780  -24.3625  -43.4815 H         1 UNK         0.0600 
    200 H200       -0.1097  -22.8161  -47.2449 H         1 UNK         0.3000 
    201 H201        2.4445  -24.2274  -47.8518 H         1 UNK         0.0600 
    202 H202        1.4679  -21.4188  -48.6039 H         1 UNK         0.0600 
    203 H203        3.0555  -22.0942  -48.9445 H         1 UNK         0.0600 
    204 H204        2.5763  -21.7943  -47.2837 H         1 UNK         0.0600 
    205 H205       -0.6042  -24.6751  -48.6982 H         1 UNK         0.3000 
    206 H206       -1.7803  -25.4618  -50.3629 H         1 UNK         0.0600 
    207 H207        0.1663  -26.9971  -50.7617 H         1 UNK         0.0600 
    208 H208       -0.7466  -26.6666  -52.2237 H         1 UNK         0.0600 
    209 H209        0.7963  -25.8701  -51.9634 H         1 UNK         0.0600 
    210 H210       -0.9810  -22.5306  -50.2582 H         1 UNK         0.3000 
    211 H211       -1.6593  -21.6560  -53.0342 H         1 UNK         0.0600 
    212 H212       -0.7375  -19.4728  -52.2078 H         1 UNK         0.0600 
    213 H213        0.4613  -20.7527  -52.1634 H         1 UNK         0.0600 
    214 H214       -0.3179  -20.2238  -50.6771 H         1 UNK         0.0600 
    215 H215       -3.7340  -22.8333  -51.8235 H         1 UNK         0.3000 
    216 H216       -5.2147  -21.2920  -49.9528 H         1 UNK         0.0600 
    217 H217       -6.1153  -23.4996  -51.8806 H         1 UNK         0.0600 
    218 H218       -7.0420  -22.9173  -50.5035 H         1 UNK         0.0600 
    219 H219       -5.5142  -23.7430  -50.2452 H         1 UNK         0.0600 
    220 H220       -6.6042  -19.6343  -50.1812 H         1 UNK         0.3000 
    221 H221       -6.9556  -18.2197  -52.6123 H         1 UNK         0.0600 
    222 H222       -6.9498  -17.1414  -50.3836 H         1 UNK         0.0600 
    223 H223       -8.4326  -17.9893  -49.9393 H         1 UNK         0.0600 
    224 H224       -8.4500  -16.7866  -51.2237 H         1 UNK         0.0600 
    225 H225       -8.7522  -20.8539  -51.2564 H         1 UNK         0.3000 
    226 H226      -11.1988  -20.4285  -52.8180 H         1 UNK         0.0600 
    227 H227      -10.2674  -22.7587  -51.0538 H         1 UNK         0.0600 
    228 H228      -11.2789  -21.4127  -50.5269 H         1 UNK         0.0600 
    229 H229      -11.8835  -22.5517  -51.7175 H         1 UNK         0.0600 
    230 H230       -8.0900  -21.5964  -53.6060 H         1 UNK         0.3000 
    231 H231       -9.1005  -23.1358  -55.9164 H         1 UNK         0.0600 
    232 H232       -7.1929  -24.2990  -53.8112 H         1 UNK         0.0600 
    233 H233       -7.5302  -25.0195  -55.3856 H         1 UNK         0.0600 
    234 H234       -8.8089  -24.8717  -54.1952 H         1 UNK         0.0600 
    235 H235       -5.8126  -23.4272  -54.9931 H         1 UNK         0.3000 
    236 H236       -4.7658  -22.6845  -57.3924 H         1 UNK         0.0600 
    237 H237       -3.5844  -24.0482  -55.7036 H         1 UNK         0.0600 
    238 H238       -2.5632  -22.7000  -56.1749 H         1 UNK         0.0600 
    239 H239       -3.4196  -22.6520  -54.6394 H         1 UNK         0.0600 
    240 H240       -5.3417  -20.4710  -54.6866 H         1 UNK         0.3000 
    241 H241       -4.3965  -18.1633  -56.3351 H         1 UNK         0.0600 
    242 H242       -8.2101  -18.1925  -55.5983 H         1 UNK         0.3800 
    243 H243       -7.2152  -19.5640  -56.0282 H         1 UNK         0.3800 
    244 H244       -4.1618  -18.5751  -53.3151 H         1 UNK         0.0800 
    245 H245       -3.9734  -17.0226  -54.0793 H         1 UNK         0.0800 
    246 H246       -1.9931  -16.0538  -54.5920 H         1 UNK         0.0800 
    247 H247       -0.5088  -16.7934  -55.1142 H         1 UNK         0.0800 
@<TRIPOS>BOND
     1    1    2 1    
     2    1  127 1    
     3    1  128 1    
     4    1  129 1    
     5    2    3 2    
     6    2    4 am   BACKBONE|DICT|INTERRES
     7    4    5 1    
     8    4  130 1    
     9    5    6 1    
    10    5   65 1    
    11    5  131 1    
    12    6    7 1    
    13    6  132 1    
    14    6  133 1    
    15    7    8 1    
    16    8    9 1    
    17    8  134 1    
    18    8  135 1    
    19    9   10 ar   
    20    9   14 ar   
    21   10   11 ar   
    22   10  136 1    
    23   11   12 ar   
    24   11  126 1    
    25   12   13 ar   
    26   12  137 1    
    27   13   14 ar   
    28   13   15 1    
    29   14  138 1    
    30   15   16 1    
    31   15  139 1    
    32   15  140 1    
    33   16   17 1    
    34   17   18 1    
    35   17  141 1    
    36   17  142 1    
    37   18   19 1    
    38   18   67 1    
    39   18  143 1    
    40   19   20 am   BACKBONE|DICT|INTERRES
    41   19  144 1    
    42   20   21 2    
    43   20   22 1    
    44   22   23 1    
    45   22   24 1    
    46   22  145 1    
    47   23  146 1    
    48   23  147 1    
    49   23  148 1    
    50   24   25 am   BACKBONE|DICT|INTERRES
    51   24  149 1    
    52   25   26 2    
    53   25   27 1    
    54   27   28 1    
    55   27   29 1    
    56   27  150 1    
    57   28  151 1    
    58   28  152 1    
    59   28  153 1    
    60   29   30 am   BACKBONE|DICT|INTERRES
    61   29  154 1    
    62   30   31 2    
    63   30   32 1    
    64   32   33 1    
    65   32   34 1    
    66   32  155 1    
    67   33  156 1    
    68   33  157 1    
    69   33  158 1    
    70   34   35 am   BACKBONE|DICT|INTERRES
    71   34  159 1    
    72   35   36 2    
    73   35   37 1    
    74   37   38 1    
    75   37   39 1    
    76   37  160 1    
    77   38  161 1    
    78   38  162 1    
    79   38  163 1    
    80   39   40 am   BACKBONE|DICT|INTERRES
    81   39  164 1    
    82   40   41 2    
    83   40   42 1    
    84   42   43 1    
    85   42   44 1    
    86   42  165 1    
    87   43  166 1    
    88   43  167 1    
    89   43  168 1    
    90   44   45 am   BACKBONE|DICT|INTERRES
    91   44  169 1    
    92   45   46 2    
    93   45   47 1    
    94   47   48 1    
    95   47   49 1    
    96   47  170 1    
    97   48  171 1    
    98   48  172 1    
    99   48  173 1    
   100   49   50 am   BACKBONE|DICT|INTERRES
   101   49  174 1    
   102   50   51 2    
   103   50   52 1    
   104   52   53 1    
   105   52   54 1    
   106   52  175 1    
   107   53  176 1    
   108   53  177 1    
   109   53  178 1    
   110   54   55 am   BACKBONE|DICT|INTERRES
   111   54  179 1    
   112   55   56 2    
   113   55   57 1    
   114   57   58 1    
   115   57   59 1    
   116   57  180 1    
   117   58  181 1    
   118   58  182 1    
   119   58  183 1    
   120   59   60 am   BACKBONE|DICT|INTERRES
   121   59  184 1    
   122   60   61 2    
   123   60   62 1    
   124   62   63 1    
   125   62   64 1    
   126   62  185 1    
   127   63  186 1    
   128   63  187 1    
   129   63  188 1    
   130   64   65 am   BACKBONE|DICT|INTERRES
   131   64  189 1    
   132   65   66 2    
   133   67   68 2    
   134   67   69 am   BACKBONE|DICT|INTERRES
   135   69   70 1    
   136   69  190 1    
   137   70   71 1    
   138   70   72 1    
   139   70  191 1    
   140   71  192 1    
   141   71  193 1    
   142   71  194 1    
   143   72   73 2    
   144   72   74 am   BACKBONE|DICT|INTERRES
   145   74   75 1    
   146   74  195 1    
   147   75   76 1    
   148   75   77 1    
   149   75  196 1    
   150   76  197 1    
   151   76  198 1    
   152   76  199 1    
   153   77   78 2    
   154   77   79 am   BACKBONE|DICT|INTERRES
   155   79   80 1    
   156   79  200 1    
   157   80   81 1    
   158   80   82 1    
   159   80  201 1    
   160   81  202 1    
   161   81  203 1    
   162   81  204 1    
   163   82   83 2    
   164   82   84 am   BACKBONE|DICT|INTERRES
   165   84   85 1    
   166   84  205 1    
   167   85   86 1    
   168   85   87 1    
   169   85  206 1    
   170   86  207 1    
   171   86  208 1    
   172   86  209 1    
   173   87   88 2    
   174   87   89 am   BACKBONE|DICT|INTERRES
   175   89   90 1    
   176   89  210 1    
   177   90   91 1    
   178   90   92 1    
   179   90  211 1    
   180   91  212 1    
   181   91  213 1    
   182   91  214 1    
   183   92   93 2    
   184   92   94 am   BACKBONE|DICT|INTERRES
   185   94   95 1    
   186   94  215 1    
   187   95   96 1    
   188   95   97 1    
   189   95  216 1    
   190   96  217 1    
   191   96  218 1    
   192   96  219 1    
   193   97   98 2    
   194   97   99 am   BACKBONE|DICT|INTERRES
   195   99  100 1    
   196   99  220 1    
   197  100  101 1    
   198  100  102 1    
   199  100  221 1    
   200  101  222 1    
   201  101  223 1    
   202  101  224 1    
   203  102  103 2    
   204  102  104 am   BACKBONE|DICT|INTERRES
   205  104  105 1    
   206  104  225 1    
   207  105  106 1    
   208  105  107 1    
   209  105  226 1    
   210  106  227 1    
   211  106  228 1    
   212  106  229 1    
   213  107  108 2    
   214  107  109 am   BACKBONE|DICT|INTERRES
   215  109  110 1    
   216  109  230 1    
   217  110  111 1    
   218  110  112 1    
   219  110  231 1    
   220  111  232 1    
   221  111  233 1    
   222  111  234 1    
   223  112  113 2    
   224  112  114 am   BACKBONE|DICT|INTERRES
   225  114  115 1    
   226  114  235 1    
   227  115  116 1    
   228  115  117 1    
   229  115  236 1    
   230  116  237 1    
   231  116  238 1    
   232  116  239 1    
   233  117  118 2    
   234  117  119 am   BACKBONE|DICT|INTERRES
   235  119  120 1    
   236  119  240 1    
   237  120  121 1    
   238  120  124 1    
   239  120  241 1    
   240  121  122 am   BACKBONE|DICT|INTERRES
   241  121  123 2    
   242  122  242 1    
   243  122  243 1    
   244  124  125 1    
   245  124  244 1    
   246  124  245 1    
   247  125  126 1    
   248  126  246 1    
   249  126  247 1    
@<TRIPOS>SUBSTRUCTURE
     1 UNK         1 GROUP             0       ****    0 ROOT    
