@<TRIPOS>MOLECULE
3R540
247   249    1
SMALL
USER_CHARGES


@<TRIPOS>ATOM
      1 CA          6.9701  -17.3388  -48.2597 C.3       0 UNK        -0.1800 
      2 C           5.5241  -17.0896  -48.6601 C.2       0 UNK         0.5000 
      3 O           4.6105  -17.4164  -47.9023 O.2       0 UNK        -0.5000 
      4 N           5.3170  -16.5036  -49.8464 N.am      1 UNK        -0.5000 
      5 CA          4.0176  -16.2709  -50.4971 C.3       1 UNK         0.1400 
      6 C6          4.1827  -15.6286  -51.8974 C.3       23 UNK        -0.0398 
      7 S7          5.2687  -16.6090  -52.9936 S.3       23 UNK        -0.2404 
      8 C8          4.1178  -17.1847  -54.2841 C.3       23 UNK        -0.0205 
      9 C9          3.0358  -18.1043  -53.7363 C.ar      23 UNK        -0.0193 
     10 C10         1.6997  -17.6914  -53.7273 C.ar      23 UNK        -0.1150 
     11 C11         0.7011  -18.5342  -53.2327 C.ar      23 UNK        -0.0193 
     12 C12         1.0467  -19.7925  -52.7352 C.ar      23 UNK        -0.1150 
     13 C13         2.3791  -20.2122  -52.7269 C.ar      23 UNK        -0.0193 
     14 C14         3.3683  -19.3709  -53.2447 C.ar      23 UNK        -0.1150 
     15 C15         2.7416  -21.5603  -52.1203 C.3       23 UNK        -0.0205 
     16 S16         3.7786  -21.4316  -50.6205 S.3       23 UNK        -0.2404 
     17 C17         3.0396  -20.0510  -49.6762 C.3       23 UNK        -0.0398 
     18 CA          2.0599  -20.4761  -48.5600 C.3       11 UNK         0.1400 
     19 N           1.9581  -19.4319  -47.5367 N.am      11 UNK        -0.5000 
     20 C           1.2394  -19.5019  -46.4082 C.2       10 UNK         0.5000 
     21 O           0.6308  -20.5149  -46.0512 O.2       10 UNK        -0.5000 
     22 CA          1.1886  -18.2159  -45.5561 C.3       10 UNK         0.1400 
     23 CB          1.3463  -16.9299  -46.4003 C.3       10 UNK        -0.1800 
     24 N          -0.0206  -18.1069  -44.7379 N.am      10 UNK        -0.5000 
     25 C          -1.2888  -18.0360  -45.1579 C.2       9 UNK         0.5000 
     26 O          -1.6323  -18.2025  -46.3290 O.2       9 UNK        -0.5000 
     27 CA         -2.3375  -17.7098  -44.0716 C.3       9 UNK         0.1400 
     28 CB         -3.7532  -17.5192  -44.6459 C.3       9 UNK        -0.1800 
     29 N          -2.3847  -18.7098  -43.0033 N.am      9 UNK        -0.5000 
     30 C          -1.4727  -18.8727  -42.0381 C.2       8 UNK         0.5000 
     31 O          -0.4634  -18.1723  -41.9248 O.2       8 UNK        -0.5000 
     32 CA         -1.7670  -19.9720  -41.0061 C.3       8 UNK         0.1400 
     33 CB         -0.4830  -20.6068  -40.4485 C.3       8 UNK        -0.1800 
     34 N          -2.5379  -19.3926  -39.9114 N.am      8 UNK        -0.5000 
     35 C          -3.8663  -19.2148  -39.9386 C.2       7 UNK         0.5000 
     36 O          -4.5879  -19.6302  -40.8468 O.2       7 UNK        -0.5000 
     37 CA         -4.5010  -18.4317  -38.7726 C.3       7 UNK         0.1400 
     38 CB         -5.0393  -19.3977  -37.7062 C.3       7 UNK        -0.1800 
     39 N          -3.5874  -17.4813  -38.1359 N.am      7 UNK        -0.5000 
     40 C          -3.0860  -16.3827  -38.7168 C.2       6 UNK         0.5000 
     41 O          -3.3578  -16.0309  -39.8656 O.2       6 UNK        -0.5000 
     42 CA         -2.1032  -15.5323  -37.8859 C.3       6 UNK         0.1400 
     43 CB         -2.1588  -15.8064  -36.3653 C.3       6 UNK        -0.1800 
     44 N          -0.7291  -15.6556  -38.3813 N.am      6 UNK        -0.5000 
     45 C          -0.0022  -16.7776  -38.4822 C.2       5 UNK         0.5000 
     46 O          -0.4168  -17.9003  -38.1852 O.2       5 UNK        -0.5000 
     47 CA          1.4076  -16.5973  -39.0613 C.3       5 UNK         0.1400 
     48 CB          2.3466  -17.7794  -38.7608 C.3       5 UNK        -0.1800 
     49 N           1.2771  -16.4346  -40.5029 N.am      5 UNK        -0.5000 
     50 C           1.8928  -15.5108  -41.2445 C.2       4 UNK         0.5000 
     51 O           2.6787  -14.6716  -40.7975 O.2       4 UNK        -0.5000 
     52 CA          1.5238  -15.5103  -42.7374 C.3       4 UNK         0.1400 
     53 CB          0.2592  -14.6746  -42.9884 C.3       4 UNK        -0.1800 
     54 N           2.6040  -15.0129  -43.5856 N.am      4 UNK        -0.5000 
     55 C           3.7226  -15.6892  -43.8696 C.2       3 UNK         0.5000 
     56 O           3.9497  -16.8289  -43.4591 O.2       3 UNK        -0.5000 
     57 CA          4.7199  -14.9865  -44.8137 C.3       3 UNK         0.1400 
     58 CB          6.0335  -15.7709  -44.9762 C.3       3 UNK        -0.1800 
     59 N           4.1344  -14.7631  -46.1391 N.am      3 UNK        -0.5000 
     60 C           3.3147  -13.7501  -46.4581 C.2       2 UNK         0.5000 
     61 O           2.9644  -12.8941  -45.6438 O.2       2 UNK        -0.5000 
     62 CA          2.7892  -13.6772  -47.9065 C.3       2 UNK         0.1400 
     63 CB          2.8128  -12.2382  -48.4520 C.3       2 UNK        -0.1800 
     64 N           3.5517  -14.5377  -48.8137 N.am      2 UNK        -0.5000 
     65 C           3.0259  -15.4478  -49.6446 C.2       1 UNK         0.5000 
     66 O           1.8194  -15.6696  -49.7466 O.2       1 UNK        -0.5000 
     67 C           0.6834  -20.8732  -49.1401 C.2       11 UNK         0.5000 
     68 O           0.4883  -22.0384  -49.4829 O.2       11 UNK        -0.5000 
     69 N          -0.2607  -19.9188  -49.1966 N.am      12 UNK        -0.5000 
     70 CA         -1.6381  -20.1412  -49.6373 C.3       12 UNK         0.1400 
     71 CB         -2.3875  -18.8023  -49.7239 C.3       12 UNK        -0.1800 
     72 C          -2.3952  -21.1393  -48.7435 C.2       12 UNK         0.5000 
     73 O          -3.1209  -21.9827  -49.2689 O.2       12 UNK        -0.5000 
     74 N          -2.1901  -21.0586  -47.4226 N.am      13 UNK        -0.5000 
     75 CA         -2.7149  -22.0318  -46.4666 C.3       13 UNK         0.1400 
     76 CB         -2.6973  -21.4431  -45.0494 C.3       13 UNK        -0.1800 
     77 C          -1.9360  -23.3558  -46.5099 C.2       13 UNK         0.5000 
     78 O          -2.5565  -24.4185  -46.4987 O.2       13 UNK        -0.5000 
     79 N          -0.5985  -23.2694  -46.5659 N.am      14 UNK        -0.5000 
     80 CA          0.3091  -24.4199  -46.5282 C.3       14 UNK         0.1400 
     81 CB          1.7589  -23.9305  -46.4022 C.3       14 UNK        -0.1800 
     82 C           0.1593  -25.3661  -47.7346 C.2       14 UNK         0.5000 
     83 O           0.1191  -26.5830  -47.5493 O.2       14 UNK        -0.5000 
     84 N           0.0606  -24.7938  -48.9415 N.am      15 UNK        -0.5000 
     85 CA         -0.1344  -25.5294  -50.1935 C.3       15 UNK         0.1400 
     86 CB          0.5062  -24.7283  -51.3388 C.3       15 UNK        -0.1800 
     87 C          -1.6195  -25.8024  -50.5027 C.2       15 UNK         0.5000 
     88 O          -1.9083  -26.5209  -51.4599 O.2       15 UNK        -0.5000 
     89 N          -2.5272  -25.1941  -49.7232 N.am      16 UNK        -0.5000 
     90 CA         -3.9871  -25.1696  -49.8854 C.3       16 UNK         0.1400 
     91 CB         -4.5922  -26.5845  -49.7844 C.3       16 UNK        -0.1800 
     92 C          -4.4579  -24.4096  -51.1458 C.2       16 UNK         0.5000 
     93 O          -5.6186  -24.5300  -51.5399 O.2       16 UNK        -0.5000 
     94 N          -3.5688  -23.5914  -51.7274 N.am      17 UNK        -0.5000 
     95 CA         -3.8208  -22.7251  -52.8791 C.3       17 UNK         0.1400 
     96 CB         -2.4822  -22.1751  -53.3930 C.3       17 UNK        -0.1800 
     97 C          -4.8168  -21.5858  -52.5827 C.2       17 UNK         0.5000 
     98 O          -5.3694  -21.0074  -53.5183 O.2       17 UNK        -0.5000 
     99 N          -5.0795  -21.3035  -51.2984 N.am      18 UNK        -0.5000 
    100 CA        -6.1503  -20.4199  -50.8304 C.3       18 UNK         0.1400 
    101 CB        -6.1197  -20.3504  -49.2962 C.3       18 UNK        -0.1800 
    102 C         -7.5505  -20.8424  -51.3238 C.2       18 UNK         0.5000 
    103 O         -8.3801  -19.9741  -51.5936 O.2       18 UNK        -0.5000 
    104 N         -7.7683  -22.1550  -51.5044 N.am      19 UNK        -0.5000 
    105 CA        -8.9874  -22.7241  -52.0881 C.3       19 UNK         0.1400 
    106 CB        -9.0099  -24.2382  -51.8304 C.3       19 UNK        -0.1800 
    107 C         -9.1381  -22.4308  -53.5962 C.2       19 UNK         0.5000 
    108 O        -10.2572  -22.4643  -54.1082 O.2       19 UNK        -0.5000 
    109 N         -8.0217  -22.1242  -54.2712 N.am      20 UNK        -0.5000 
    110 CA        -7.9569  -21.6919  -55.6684 C.3       20 UNK         0.1400 
    111 CB        -6.7468  -22.3676  -56.3379 C.3       20 UNK        -0.1800 
    112 C         -7.8853  -20.1536  -55.7915 C.2       20 UNK         0.5000 
    113 O         -7.6255  -19.6488  -56.8844 O.2       20 UNK        -0.5000 
    114 N         -8.1145  -19.4389  -54.6778 N.am      21 UNK        -0.5000 
    115 CA        -8.1157  -17.9806  -54.5295 C.3       21 UNK         0.1400 
    116 CB        -9.2170  -17.3314  -55.3947 C.3       21 UNK        -0.1800 
    117 C         -6.7282  -17.3315  -54.7217 C.2       21 UNK         0.5000 
    118 O         -6.6468  -16.1762  -55.1432 O.2       21 UNK        -0.5000 
    119 N         -5.6597  -18.0667  -54.3815 N.am      22 UNK        -0.5000 
    120 CA        -4.2756  -17.5597  -54.3558 C.3       22 UNK         0.1400 
    121 C         -4.0107  -16.5013  -53.2409 C.2       22 UNK         0.5000 
    122 N         -4.7658  -16.4908  -52.1482 N.am      22 UNK        -0.7600 
    123 O         -3.1256  -15.6624  -53.3774 O.2       22 UNK        -0.5000 
    124 C124       -3.2754  -18.7389  -54.2721 C.3       23 UNK        -0.0398 
    125 S125       -1.5705  -18.3655  -54.8085 S.3       23 UNK        -0.2404 
    126 C126       -0.7484  -18.0824  -53.2085 C.3       23 UNK        -0.0205 
    127 H127        7.3149  -16.5595  -47.5815 H         1 UNK         0.0600 
    128 H128        7.0606  -18.2999  -47.7533 H         1 UNK         0.0600 
    129 H129        7.6284  -17.3522  -49.1286 H         1 UNK         0.0600 
    130 H130        6.1183  -16.2665  -50.4146 H         1 UNK         0.3000 
    131 H131        3.5622  -17.2509  -50.6407 H         1 UNK         0.0600 
    132 H132        4.6111  -14.6287  -51.8092 H         1 UNK         0.0800 
    133 H133        3.2110  -15.4978  -52.3768 H         1 UNK         0.0800 
    134 H134        4.6849  -17.7214  -55.0458 H         1 UNK         0.0800 
    135 H135        3.6793  -16.3200  -54.7847 H         1 UNK         0.0800 
    136 H136        1.4323  -16.7154  -54.1076 H         1 UNK         0.1150 
    137 H137        0.2784  -20.4405  -52.3384 H         1 UNK         0.1150 
    138 H138        4.4012  -19.6904  -53.2384 H         1 UNK         0.1150 
    139 H139        1.8400  -22.1195  -51.8703 H         1 UNK         0.0800 
    140 H140        3.2700  -22.1571  -52.8647 H         1 UNK         0.0800 
    141 H141        2.5856  -19.3072  -50.3286 H         1 UNK         0.0800 
    142 H142        3.8930  -19.5466  -49.2254 H         1 UNK         0.0800 
    143 H143        2.4743  -21.3521  -48.0613 H         1 UNK         0.0600 
    144 H144        2.4711  -18.5799  -47.7224 H         1 UNK         0.3000 
    145 H145        2.0262  -18.2738  -44.8605 H         1 UNK         0.0600 
    146 H146        1.1879  -16.0373  -45.7973 H         1 UNK         0.0600 
    147 H147        2.3457  -16.8515  -46.8219 H         1 UNK         0.0600 
    148 H148        0.6352  -16.8928  -47.2267 H         1 UNK         0.0600 
    149 H149        0.1228  -18.0686  -43.7337 H         1 UNK         0.3000 
    150 H150       -2.0421  -16.7573  -43.6271 H         1 UNK         0.0600 
    151 H151       -3.7641  -16.7289  -45.3975 H         1 UNK         0.0600 
    152 H152       -4.4587  -17.2319  -43.8660 H         1 UNK         0.0600 
    153 H153       -4.1295  -18.4244  -45.1215 H         1 UNK         0.0600 
    154 H154       -3.2046  -19.3002  -42.9850 H         1 UNK         0.3000 
    155 H155       -2.3421  -20.7640  -41.4910 H         1 UNK         0.0600 
    156 H156       -0.7142  -21.4162  -39.7561 H         1 UNK         0.0600 
    157 H157        0.1243  -21.0267  -41.2513 H         1 UNK         0.0600 
    158 H158        0.1312  -19.8814  -39.9176 H         1 UNK         0.0600 
    159 H159       -2.0019  -18.9691  -39.1616 H         1 UNK         0.3000 
    160 H160       -5.3431  -17.8672  -39.1786 H         1 UNK         0.0600 
    161 H161       -4.2372  -19.9765  -37.2464 H         1 UNK         0.0600 
    162 H162       -5.7468  -20.1050  -38.1411 H         1 UNK         0.0600 
    163 H163       -5.5635  -18.8609  -36.9153 H         1 UNK         0.0600 
    164 H164       -3.2840  -17.7054  -37.1994 H         1 UNK         0.3000 
    165 H165       -2.3971  -14.4930  -38.0402 H         1 UNK         0.0600 
    166 H166       -1.8249  -16.8122  -36.1089 H         1 UNK         0.0600 
    167 H167       -1.5250  -15.1046  -35.8232 H         1 UNK         0.0600 
    168 H168       -3.1721  -15.6831  -35.9808 H         1 UNK         0.0600 
    169 H169       -0.3139  -14.7957  -38.7117 H         1 UNK         0.3000 
    170 H170        1.8349  -15.7007  -38.6072 H         1 UNK         0.0600 
    171 H171        2.4108  -17.9644  -37.6879 H         1 UNK         0.0600 
    172 H172        2.0078  -18.6997  -39.2356 H         1 UNK         0.0600 
    173 H173        3.3562  -17.5757  -39.1176 H         1 UNK         0.0600 
    174 H174        0.6187  -17.0685  -40.9552 H         1 UNK         0.3000 
    175 H175        1.3215  -16.5396  -43.0295 H         1 UNK         0.0600 
    176 H176        0.4168  -13.6243  -42.7402 H         1 UNK         0.0600 
    177 H177       -0.0512  -14.7307  -44.0318 H         1 UNK         0.0600 
    178 H178       -0.5741  -15.0342  -42.3830 H         1 UNK         0.0600 
    179 H179        2.4988  -14.0819  -43.9719 H         1 UNK         0.3000 
    180 H180        4.9686  -14.0229  -44.3640 H         1 UNK         0.0600 
    181 H181        5.8660  -16.7494  -45.4278 H         1 UNK         0.0600 
    182 H182        6.5134  -15.9332  -44.0103 H         1 UNK         0.0600 
    183 H183        6.7413  -15.2258  -45.6003 H         1 UNK         0.0600 
    184 H184        4.3050  -15.4853  -46.8273 H         1 UNK         0.3000 
    185 H185        1.7489  -14.0053  -47.8608 H         1 UNK         0.0600 
    186 H186        2.2084  -11.5709  -47.8363 H         1 UNK         0.0600 
    187 H187        3.8262  -11.8360  -48.4782 H         1 UNK         0.0600 
    188 H188        2.4089  -12.1951  -49.4637 H         1 UNK         0.0600 
    189 H189        4.5563  -14.4289  -48.7949 H         1 UNK         0.3000 
    190 H190       -0.0390  -18.9948  -48.8559 H         1 UNK         0.3000 
    191 H191       -1.5889  -20.5660  -50.6397 H         1 UNK         0.0600 
    192 H192       -3.3282  -18.9198  -50.2628 H         1 UNK         0.0600 
    193 H193       -1.8055  -18.0454  -50.2485 H         1 UNK         0.0600 
    194 H194       -2.6252  -18.4046  -48.7375 H         1 UNK         0.0600 
    195 H195       -1.5935  -20.3242  -47.0589 H         1 UNK         0.3000 
    196 H196       -3.7542  -22.2479  -46.7242 H         1 UNK         0.0600 
    197 H197       -3.0490  -22.1713  -44.3174 H         1 UNK         0.0600 
    198 H198       -3.3554  -20.5796  -44.9845 H         1 UNK         0.0600 
    199 H199       -1.6959  -21.1327  -44.7496 H         1 UNK         0.0600 
    200 H200       -0.1730  -22.3482  -46.5480 H         1 UNK         0.3000 
    201 H201        0.0694  -24.9904  -45.6285 H         1 UNK         0.0600 
    202 H202        1.8752  -23.2337  -45.5717 H         1 UNK         0.0600 
    203 H203        2.0932  -23.4334  -47.3115 H         1 UNK         0.0600 
    204 H204        2.4353  -24.7672  -46.2240 H         1 UNK         0.0600 
    205 H205        0.1389  -23.7810  -49.0218 H         1 UNK         0.3000 
    206 H206        0.3731  -26.4943  -50.1310 H         1 UNK         0.0600 
    207 H207        1.5560  -24.5182  -51.1336 H         1 UNK         0.0600 
    208 H208        0.4635  -25.2825  -52.2772 H         1 UNK         0.0600 
    209 H209       -0.0029  -23.7771  -51.4981 H         1 UNK         0.0600 
    210 H210       -2.1753  -24.6379  -48.9558 H         1 UNK         0.3000 
    211 H211       -4.3644  -24.5945  -49.0385 H         1 UNK         0.0600 
    212 H212       -4.3350  -27.2006  -50.6461 H         1 UNK         0.0600 
    213 H213       -5.6806  -26.5401  -49.7317 H         1 UNK         0.0600 
    214 H214       -4.2460  -27.0976  -48.8873 H         1 UNK         0.0600 
    215 H215       -2.6643  -23.5091  -51.2881 H         1 UNK         0.3000 
    216 H216       -4.2608  -23.3405  -53.6664 H         1 UNK         0.0600 
    217 H217       -2.6170  -21.6369  -54.3312 H         1 UNK         0.0600 
    218 H218       -1.7723  -22.9795  -53.5871 H         1 UNK         0.0600 
    219 H219       -2.0238  -21.4887  -52.6829 H         1 UNK         0.0600 
    220 H220       -4.5368  -21.7783  -50.5827 H         1 UNK         0.3000 
    221 H221       -5.9512  -19.4215  -51.2240 H         1 UNK         0.0600 
    222 H222       -6.2293  -21.3383  -48.8471 H         1 UNK         0.0600 
    223 H223       -5.1851  -19.9219  -48.9363 H         1 UNK         0.0600 
    224 H224       -6.9272  -19.7236  -48.9154 H         1 UNK         0.0600 
    225 H225       -7.0239  -22.8102  -51.2968 H         1 UNK         0.3000 
    226 H226       -9.8456  -22.2798  -51.5795 H         1 UNK         0.0600 
    227 H227       -8.9270  -24.4607  -50.7665 H         1 UNK         0.0600 
    228 H228       -9.9426  -24.6799  -52.1834 H         1 UNK         0.0600 
    229 H229       -8.1931  -24.7457  -52.3448 H         1 UNK         0.0600 
    230 H230       -7.1466  -22.0697  -53.7646 H         1 UNK         0.3000 
    231 H231       -8.8554  -22.0138  -56.1983 H         1 UNK         0.0600 
    232 H232       -6.7921  -23.4516  -56.2317 H         1 UNK         0.0600 
    233 H233       -5.8033  -22.0280  -55.9105 H         1 UNK         0.0600 
    234 H234       -6.7179  -22.1495  -57.4061 H         1 UNK         0.0600 
    235 H235       -8.3053  -19.9503  -53.8255 H         1 UNK         0.3000 
    236 H236       -8.3795  -17.7949  -53.4874 H         1 UNK         0.0600 
    237 H237       -9.3331  -16.2747  -55.1513 H         1 UNK         0.0600 
    238 H238       -8.9900  -17.3961  -56.4590 H         1 UNK         0.0600 
    239 H239      -10.1827  -17.8082  -55.2270 H         1 UNK         0.0600 
    240 H240       -5.7943  -19.0259  -54.0819 H         1 UNK         0.3000 
    241 H241       -4.1092  -17.0550  -55.3095 H         1 UNK         0.0600 
    242 H242       -5.5238  -17.1417  -52.0356 H         1 UNK         0.3800 
    243 H243       -4.5961  -15.7921  -51.4421 H         1 UNK         0.3800 
    244 H244       -3.6161  -19.5351  -54.9351 H         1 UNK         0.0800 
    245 H245       -3.2745  -19.1715  -53.2716 H         1 UNK         0.0800 
    246 H246       -0.8049  -17.0238  -52.9514 H         1 UNK         0.0800 
    247 H247       -1.2740  -18.6170  -52.4194 H         1 UNK         0.0800 
@<TRIPOS>BOND
     1    1    2 1    
     2    1  127 1    
     3    1  128 1    
     4    1  129 1    
     5    2    3 2    
     6    2    4 am   BACKBONE|DICT|INTERRES
     7    4    5 1    
     8    4  130 1    
     9    5    6 1    
    10    5   65 1    
    11    5  131 1    
    12    6    7 1    
    13    6  132 1    
    14    6  133 1    
    15    7    8 1    
    16    8    9 1    
    17    8  134 1    
    18    8  135 1    
    19    9   10 ar   
    20    9   14 ar   
    21   10   11 ar   
    22   10  136 1    
    23   11   12 ar   
    24   11  126 1    
    25   12   13 ar   
    26   12  137 1    
    27   13   14 ar   
    28   13   15 1    
    29   14  138 1    
    30   15   16 1    
    31   15  139 1    
    32   15  140 1    
    33   16   17 1    
    34   17   18 1    
    35   17  141 1    
    36   17  142 1    
    37   18   19 1    
    38   18   67 1    
    39   18  143 1    
    40   19   20 am   BACKBONE|DICT|INTERRES
    41   19  144 1    
    42   20   21 2    
    43   20   22 1    
    44   22   23 1    
    45   22   24 1    
    46   22  145 1    
    47   23  146 1    
    48   23  147 1    
    49   23  148 1    
    50   24   25 am   BACKBONE|DICT|INTERRES
    51   24  149 1    
    52   25   26 2    
    53   25   27 1    
    54   27   28 1    
    55   27   29 1    
    56   27  150 1    
    57   28  151 1    
    58   28  152 1    
    59   28  153 1    
    60   29   30 am   BACKBONE|DICT|INTERRES
    61   29  154 1    
    62   30   31 2    
    63   30   32 1    
    64   32   33 1    
    65   32   34 1    
    66   32  155 1    
    67   33  156 1    
    68   33  157 1    
    69   33  158 1    
    70   34   35 am   BACKBONE|DICT|INTERRES
    71   34  159 1    
    72   35   36 2    
    73   35   37 1    
    74   37   38 1    
    75   37   39 1    
    76   37  160 1    
    77   38  161 1    
    78   38  162 1    
    79   38  163 1    
    80   39   40 am   BACKBONE|DICT|INTERRES
    81   39  164 1    
    82   40   41 2    
    83   40   42 1    
    84   42   43 1    
    85   42   44 1    
    86   42  165 1    
    87   43  166 1    
    88   43  167 1    
    89   43  168 1    
    90   44   45 am   BACKBONE|DICT|INTERRES
    91   44  169 1    
    92   45   46 2    
    93   45   47 1    
    94   47   48 1    
    95   47   49 1    
    96   47  170 1    
    97   48  171 1    
    98   48  172 1    
    99   48  173 1    
   100   49   50 am   BACKBONE|DICT|INTERRES
   101   49  174 1    
   102   50   51 2    
   103   50   52 1    
   104   52   53 1    
   105   52   54 1    
   106   52  175 1    
   107   53  176 1    
   108   53  177 1    
   109   53  178 1    
   110   54   55 am   BACKBONE|DICT|INTERRES
   111   54  179 1    
   112   55   56 2    
   113   55   57 1    
   114   57   58 1    
   115   57   59 1    
   116   57  180 1    
   117   58  181 1    
   118   58  182 1    
   119   58  183 1    
   120   59   60 am   BACKBONE|DICT|INTERRES
   121   59  184 1    
   122   60   61 2    
   123   60   62 1    
   124   62   63 1    
   125   62   64 1    
   126   62  185 1    
   127   63  186 1    
   128   63  187 1    
   129   63  188 1    
   130   64   65 am   BACKBONE|DICT|INTERRES
   131   64  189 1    
   132   65   66 2    
   133   67   68 2    
   134   67   69 am   BACKBONE|DICT|INTERRES
   135   69   70 1    
   136   69  190 1    
   137   70   71 1    
   138   70   72 1    
   139   70  191 1    
   140   71  192 1    
   141   71  193 1    
   142   71  194 1    
   143   72   73 2    
   144   72   74 am   BACKBONE|DICT|INTERRES
   145   74   75 1    
   146   74  195 1    
   147   75   76 1    
   148   75   77 1    
   149   75  196 1    
   150   76  197 1    
   151   76  198 1    
   152   76  199 1    
   153   77   78 2    
   154   77   79 am   BACKBONE|DICT|INTERRES
   155   79   80 1    
   156   79  200 1    
   157   80   81 1    
   158   80   82 1    
   159   80  201 1    
   160   81  202 1    
   161   81  203 1    
   162   81  204 1    
   163   82   83 2    
   164   82   84 am   BACKBONE|DICT|INTERRES
   165   84   85 1    
   166   84  205 1    
   167   85   86 1    
   168   85   87 1    
   169   85  206 1    
   170   86  207 1    
   171   86  208 1    
   172   86  209 1    
   173   87   88 2    
   174   87   89 am   BACKBONE|DICT|INTERRES
   175   89   90 1    
   176   89  210 1    
   177   90   91 1    
   178   90   92 1    
   179   90  211 1    
   180   91  212 1    
   181   91  213 1    
   182   91  214 1    
   183   92   93 2    
   184   92   94 am   BACKBONE|DICT|INTERRES
   185   94   95 1    
   186   94  215 1    
   187   95   96 1    
   188   95   97 1    
   189   95  216 1    
   190   96  217 1    
   191   96  218 1    
   192   96  219 1    
   193   97   98 2    
   194   97   99 am   BACKBONE|DICT|INTERRES
   195   99  100 1    
   196   99  220 1    
   197  100  101 1    
   198  100  102 1    
   199  100  221 1    
   200  101  222 1    
   201  101  223 1    
   202  101  224 1    
   203  102  103 2    
   204  102  104 am   BACKBONE|DICT|INTERRES
   205  104  105 1    
   206  104  225 1    
   207  105  106 1    
   208  105  107 1    
   209  105  226 1    
   210  106  227 1    
   211  106  228 1    
   212  106  229 1    
   213  107  108 2    
   214  107  109 am   BACKBONE|DICT|INTERRES
   215  109  110 1    
   216  109  230 1    
   217  110  111 1    
   218  110  112 1    
   219  110  231 1    
   220  111  232 1    
   221  111  233 1    
   222  111  234 1    
   223  112  113 2    
   224  112  114 am   BACKBONE|DICT|INTERRES
   225  114  115 1    
   226  114  235 1    
   227  115  116 1    
   228  115  117 1    
   229  115  236 1    
   230  116  237 1    
   231  116  238 1    
   232  116  239 1    
   233  117  118 2    
   234  117  119 am   BACKBONE|DICT|INTERRES
   235  119  120 1    
   236  119  240 1    
   237  120  121 1    
   238  120  124 1    
   239  120  241 1    
   240  121  122 am   BACKBONE|DICT|INTERRES
   241  121  123 2    
   242  122  242 1    
   243  122  243 1    
   244  124  125 1    
   245  124  244 1    
   246  124  245 1    
   247  125  126 1    
   248  126  246 1    
   249  126  247 1    
@<TRIPOS>SUBSTRUCTURE
     1 UNK         1 GROUP             0       ****    0 ROOT    
