@<TRIPOS>MOLECULE
3R540
247   249    1
SMALL
USER_CHARGES


@<TRIPOS>ATOM
      1 CA          4.2884   -9.3379  -48.7510 C.3       0 UNK        -0.1800 
      2 C           3.6530  -10.7211  -48.7320 C.2       0 UNK         0.5000 
      3 O           2.8723  -11.0234  -47.8298 O.2       0 UNK        -0.5000 
      4 N           3.9905  -11.5623  -49.7177 N.am      1 UNK        -0.5000 
      5 CA          3.4335  -12.9040  -49.9039 C.3       1 UNK         0.1400 
      6 C6          4.3160  -13.7383  -50.8700 C.3       23 UNK        -0.0398 
      7 S7          3.6796  -15.3810  -51.3579 S.3       23 UNK        -0.2404 
      8 C8          3.5373  -16.2556  -49.7623 C.3       23 UNK        -0.0205 
      9 C9          3.0459  -17.6874  -49.9379 C.ar      23 UNK        -0.0193 
     10 C10         1.9043  -17.9564  -50.6981 C.ar      23 UNK        -0.1150 
     11 C11         1.4447  -19.2650  -50.8658 C.ar      23 UNK        -0.0193 
     12 C12         2.1313  -20.3180  -50.2518 C.ar      23 UNK        -0.1150 
     13 C13         3.2702  -20.0631  -49.4787 C.ar      23 UNK        -0.0193 
     14 C14         3.7207  -18.7474  -49.3266 C.ar      23 UNK        -0.1150 
     15 C15         4.0396  -21.2017  -48.8243 C.3       23 UNK        -0.0205 
     16 S16         3.5698  -21.4240  -47.0792 S.3       23 UNK        -0.2404 
     17 C17         2.0445  -22.4127  -47.2190 C.3       23 UNK        -0.0398 
     18 CA          1.9801  -23.5352  -46.1560 C.3       11 UNK         0.1400 
     19 N           1.8608  -22.9845  -44.8050 N.am      11 UNK        -0.5000 
     20 C           1.9869  -23.6746  -43.6655 C.2       10 UNK         0.5000 
     21 O           2.2779  -24.8720  -43.6213 O.2       10 UNK        -0.5000 
     22 CA          1.7555  -22.8749  -42.3653 C.3       10 UNK         0.1400 
     23 CB          2.1322  -23.6542  -41.0881 C.3       10 UNK        -0.1800 
     24 N           2.4034  -21.5600  -42.3904 N.am      10 UNK        -0.5000 
     25 C           3.7132  -21.2859  -42.4825 C.2       9 UNK         0.5000 
     26 O           4.5962  -22.1446  -42.4949 O.2       9 UNK        -0.5000 
     27 CA          4.1160  -19.7989  -42.5851 C.3       9 UNK         0.1400 
     28 CB          4.6057  -19.4715  -44.0039 C.3       9 UNK        -0.1800 
     29 N           3.0368  -18.8705  -42.2421 N.am      9 UNK        -0.5000 
     30 C           2.6098  -18.6024  -41.0012 C.2       8 UNK         0.5000 
     31 O           3.1239  -19.0697  -39.9845 O.2       8 UNK        -0.5000 
     32 CA          1.3748  -17.6867  -40.8812 C.3       8 UNK         0.1400 
     33 CB          1.7804  -16.2058  -40.9262 C.3       8 UNK        -0.1800 
     34 N           0.3704  -17.9523  -41.9152 N.am      8 UNK        -0.5000 
     35 C          -0.3209  -19.0965  -42.0195 C.2       7 UNK         0.5000 
     36 O          -0.2171  -20.0327  -41.2272 O.2       7 UNK        -0.5000 
     37 CA         -1.2477  -19.2465  -43.2367 C.3       7 UNK         0.1400 
     38 CB         -2.6012  -18.5641  -42.9907 C.3       7 UNK        -0.1800 
     39 N          -0.6495  -18.7319  -44.4679 N.am      7 UNK        -0.5000 
     40 C           0.4161  -19.2700  -45.0785 C.2       6 UNK         0.5000 
     41 O           0.9724  -20.2972  -44.6953 O.2       6 UNK        -0.5000 
     42 CA          0.9728  -18.5159  -46.2996 C.3       6 UNK         0.1400 
     43 CB          0.1469  -18.8327  -47.5536 C.3       6 UNK        -0.1800 
     44 N           0.9923  -17.0690  -46.0930 N.am      6 UNK        -0.5000 
     45 C           1.6815  -16.4344  -45.1351 C.2       5 UNK         0.5000 
     46 O           2.4389  -16.9976  -44.3473 O.2       5 UNK        -0.5000 
     47 CA          1.4316  -14.9238  -44.9970 C.3       5 UNK         0.1400 
     48 CB          2.3267  -14.1278  -45.9586 C.3       5 UNK        -0.1800 
     49 N           0.0252  -14.5905  -45.2302 N.am      5 UNK        -0.5000 
     50 C          -0.9685  -14.8907  -44.3817 C.2       4 UNK         0.5000 
     51 O          -0.7900  -15.4284  -43.2881 O.2       4 UNK        -0.5000 
     52 CA         -2.4013  -14.5737  -44.8531 C.3       4 UNK         0.1400 
     53 CB         -2.7366  -13.0944  -44.6118 C.3       4 UNK        -0.1800 
     54 N          -2.6129  -14.8949  -46.2667 N.am      4 UNK        -0.5000 
     55 C          -2.6325  -16.1404  -46.7635 C.2       3 UNK         0.5000 
     56 O          -2.5433  -17.1474  -46.0629 O.2       3 UNK        -0.5000 
     57 CA         -2.7148  -16.2888  -48.2985 C.3       3 UNK         0.1400 
     58 CB         -4.1714  -16.4513  -48.7566 C.3       3 UNK        -0.1800 
     59 N          -2.0926  -15.1900  -49.0446 N.am      3 UNK        -0.5000 
     60 C          -0.8104  -14.8240  -48.9382 C.2       2 UNK         0.5000 
     61 O          -0.0121  -15.3618  -48.1646 O.2       2 UNK        -0.5000 
     62 CA         -0.3511  -13.6286  -49.7870 C.3       2 UNK         0.1400 
     63 CB         -1.0331  -12.3270  -49.3223 C.3       2 UNK        -0.1800 
     64 N           1.0913  -13.5245  -49.6207 N.am      2 UNK        -0.5000 
     65 C           1.9542  -12.8068  -50.3420 C.2       1 UNK         0.5000 
     66 O           1.6380  -12.1006  -51.3023 O.2       1 UNK        -0.5000 
     67 C           0.8129  -24.4895  -46.4791 C.2       11 UNK         0.5000 
     68 O          -0.3079  -24.2892  -46.0015 O.2       11 UNK        -0.5000 
     69 N           1.0828  -25.4707  -47.3517 N.am      12 UNK        -0.5000 
     70 CA          0.1104  -26.4539  -47.8380 C.3       12 UNK         0.1400 
     71 CB          0.8225  -27.4674  -48.7457 C.3       12 UNK        -0.1800 
     72 C          -1.0900  -25.8249  -48.5702 C.2       12 UNK         0.5000 
     73 O          -2.2001  -26.3404  -48.4595 O.2       12 UNK        -0.5000 
     74 N          -0.8602  -24.6985  -49.2603 N.am      13 UNK        -0.5000 
     75 CA         -1.8951  -23.9018  -49.9221 C.3       13 UNK         0.1400 
     76 CB         -1.2286  -22.7872  -50.7403 C.3       13 UNK        -0.1800 
     77 C          -2.9124  -23.3015  -48.9349 C.2       13 UNK         0.5000 
     78 O          -4.1061  -23.2778  -49.2311 O.2       13 UNK        -0.5000 
     79 N          -2.4340  -22.8576  -47.7653 N.am      14 UNK        -0.5000 
     80 CA         -3.2806  -22.3313  -46.6972 C.3       14 UNK         0.1400 
     81 CB         -2.4360  -21.5068  -45.7214 C.3       14 UNK        -0.1800 
     82 C          -4.0413  -23.4507  -45.9693 C.2       14 UNK         0.5000 
     83 O          -5.2137  -23.2668  -45.6443 O.2       14 UNK        -0.5000 
     84 N          -3.3868  -24.6061  -45.7790 N.am      15 UNK        -0.5000 
     85 CA         -3.9937  -25.8206  -45.2258 C.3       15 UNK         0.1400 
     86 CB         -2.8998  -26.8655  -44.9600 C.3       15 UNK        -0.1800 
     87 C          -5.1013  -26.3977  -46.1318 C.2       15 UNK         0.5000 
     88 O          -6.1323  -26.8429  -45.6272 O.2       15 UNK        -0.5000 
     89 N          -4.8852  -26.3372  -47.4530 N.am      16 UNK        -0.5000 
     90 CA         -5.8523  -26.7013  -48.4913 C.3       16 UNK         0.1400 
     91 CB         -5.0954  -26.9338  -49.8089 C.3       16 UNK        -0.1800 
     92 C          -6.9671  -25.6534  -48.6962 C.2       16 UNK         0.5000 
     93 O          -7.9408  -25.9497  -49.3899 O.2       16 UNK        -0.5000 
     94 N          -6.8041  -24.4605  -48.1048 N.am      17 UNK        -0.5000 
     95 CA         -7.6799  -23.2894  -48.1859 C.3       17 UNK         0.1400 
     96 CB         -9.0415  -23.5713  -47.5164 C.3       17 UNK        -0.1800 
     97 C          -7.8016  -22.7454  -49.6241 C.2       17 UNK         0.5000 
     98 O          -8.9110  -22.5664  -50.1326 O.2       17 UNK        -0.5000 
     99 N          -6.6448  -22.5046  -50.2567 N.am      18 UNK        -0.5000 
    100 CA        -6.5092  -21.9052  -51.5852 C.3       18 UNK         0.1400 
    101 CB        -5.0219  -21.8900  -51.9768 C.3       18 UNK        -0.1800 
    102 C         -7.0941  -20.4807  -51.6755 C.2       18 UNK         0.5000 
    103 O         -7.1741  -19.7684  -50.6706 O.2       18 UNK        -0.5000 
    104 N         -7.4722  -20.0949  -52.8993 N.am      19 UNK        -0.5000 
    105 CA        -7.9963  -18.7755  -53.2499 C.3       19 UNK         0.1400 
    106 CB        -8.6015  -18.8638  -54.6622 C.3       19 UNK        -0.1800 
    107 C         -6.9248  -17.6677  -53.1852 C.2       19 UNK         0.5000 
    108 O         -5.7331  -17.9519  -53.0419 O.2       19 UNK        -0.5000 
    109 N         -7.3701  -16.4163  -53.3665 N.am      20 UNK        -0.5000 
    110 CA        -6.5656  -15.1856  -53.3619 C.3       20 UNK         0.1400 
    111 CB        -7.5163  -13.9832  -53.4812 C.3       20 UNK        -0.1800 
    112 C         -5.4502  -15.1063  -54.4307 C.2       20 UNK         0.5000 
    113 O         -4.6407  -14.1794  -54.3885 O.2       20 UNK        -0.5000 
    114 N         -5.4061  -16.0783  -55.3527 N.am      21 UNK        -0.5000 
    115 CA        -4.2877  -16.3327  -56.2610 C.3       21 UNK         0.1400 
    116 CB        -4.7071  -17.4063  -57.2767 C.3       21 UNK        -0.1800 
    117 C         -2.9977  -16.7570  -55.5246 C.2       21 UNK         0.5000 
    118 O         -1.9069  -16.5180  -56.0444 O.2       21 UNK        -0.5000 
    119 N         -3.1352  -17.3565  -54.3315 N.am      22 UNK        -0.5000 
    120 CA        -2.0364  -17.5856  -53.3852 C.3       22 UNK         0.1400 
    121 C         -1.5764  -16.2313  -52.7714 C.2       22 UNK         0.5000 
    122 N         -0.3330  -15.8267  -52.9998 N.am      22 UNK        -0.7600 
    123 O         -2.3392  -15.5512  -52.0898 O.2       22 UNK        -0.5000 
    124 C124       -2.4356  -18.6557  -52.3267 C.3       23 UNK        -0.0398 
    125 S125       -1.2899  -18.8894  -50.9195 S.3       23 UNK        -0.2404 
    126 C126        0.2167  -19.5173  -51.7274 C.3       23 UNK        -0.0205 
    127 H127        4.9639   -9.2129  -49.5977 H         1 UNK         0.0600 
    128 H128        4.8567   -9.1735  -47.8355 H         1 UNK         0.0600 
    129 H129        3.5159   -8.5717  -48.8163 H         1 UNK         0.0600 
    130 H130        4.6142  -11.2409  -50.4442 H         1 UNK         0.3000 
    131 H131        3.4687  -13.3973  -48.9304 H         1 UNK         0.0600 
    132 H132        4.4765  -13.1789  -51.7932 H         1 UNK         0.0800 
    133 H133        5.3058  -13.8770  -50.4327 H         1 UNK         0.0800 
    134 H134        2.8356  -15.7371  -49.1104 H         1 UNK         0.0800 
    135 H135        4.5067  -16.2387  -49.2618 H         1 UNK         0.0800 
    136 H136        1.3665  -17.1417  -51.1616 H         1 UNK         0.1150 
    137 H137        1.7842  -21.3332  -50.3796 H         1 UNK         0.1150 
    138 H138        4.6003  -18.5521  -48.7293 H         1 UNK         0.1150 
    139 H139        3.9044  -22.1320  -49.3777 H         1 UNK         0.0800 
    140 H140        5.1078  -20.9838  -48.8679 H         1 UNK         0.0800 
    141 H141        1.9934  -22.8307  -48.2254 H         1 UNK         0.0800 
    142 H142        1.1855  -21.7504  -47.1207 H         1 UNK         0.0800 
    143 H143        2.9067  -24.1118  -46.1979 H         1 UNK         0.0600 
    144 H144        1.6051  -22.0003  -44.7473 H         1 UNK         0.3000 
    145 H145        0.6833  -22.6782  -42.3221 H         1 UNK         0.0600 
    146 H146        1.9363  -23.0617  -40.1944 H         1 UNK         0.0600 
    147 H147        1.5467  -24.5704  -41.0043 H         1 UNK         0.0600 
    148 H148        3.1848  -23.9382  -41.0792 H         1 UNK         0.0600 
    149 H149        1.7698  -20.7728  -42.4263 H         1 UNK         0.3000 
    150 H150        4.9451  -19.6382  -41.8931 H         1 UNK         0.0600 
    151 H151        5.4072  -20.1436  -44.3129 H         1 UNK         0.0600 
    152 H152        4.9921  -18.4539  -44.0628 H         1 UNK         0.0600 
    153 H153        3.7997  -19.5633  -44.7322 H         1 UNK         0.0600 
    154 H154        2.6061  -18.3767  -43.0196 H         1 UNK         0.3000 
    155 H155        0.9123  -17.8801  -39.9111 H         1 UNK         0.0600 
    156 H156        2.4847  -15.9710  -40.1272 H         1 UNK         0.0600 
    157 H157        0.9146  -15.5554  -40.7994 H         1 UNK         0.0600 
    158 H158        2.2584  -15.9454  -41.8703 H         1 UNK         0.0600 
    159 H159        0.1978  -17.2144  -42.5883 H         1 UNK         0.3000 
    160 H160       -1.4266  -20.3143  -43.3697 H         1 UNK         0.0600 
    161 H161       -2.4946  -17.4864  -42.8678 H         1 UNK         0.0600 
    162 H162       -3.0765  -18.9527  -42.0893 H         1 UNK         0.0600 
    163 H163       -3.2861  -18.7383  -43.8207 H         1 UNK         0.0600 
    164 H164       -1.1032  -17.9308  -44.8944 H         1 UNK         0.3000 
    165 H165        2.0018  -18.8379  -46.4698 H         1 UNK         0.0600 
    166 H166        0.3958  -18.1574  -48.3705 H         1 UNK         0.0600 
    167 H167        0.3315  -19.8451  -47.9065 H         1 UNK         0.0600 
    168 H168       -0.9228  -18.7483  -47.3719 H         1 UNK         0.0600 
    169 H169        0.4414  -16.5097  -46.7383 H         1 UNK         0.3000 
    170 H170        1.6885  -14.6314  -43.9767 H         1 UNK         0.0600 
    171 H171        3.3809  -14.3076  -45.7445 H         1 UNK         0.0600 
    172 H172        2.1552  -14.4057  -46.9969 H         1 UNK         0.0600 
    173 H173        2.1545  -13.0554  -45.8648 H         1 UNK         0.0600 
    174 H174       -0.2067  -14.2201  -46.1402 H         1 UNK         0.3000 
    175 H175       -3.0883  -15.1800  -44.2586 H         1 UNK         0.0600 
    176 H176       -2.6017  -12.8305  -43.5620 H         1 UNK         0.0600 
    177 H177       -2.0996  -12.4336  -45.2012 H         1 UNK         0.0600 
    178 H178       -3.7737  -12.8786  -44.8692 H         1 UNK         0.0600 
    179 H179       -2.6999  -14.1204  -46.9074 H         1 UNK         0.3000 
    180 H180       -2.1787  -17.2000  -48.5649 H         1 UNK         0.0600 
    181 H181       -4.6528  -17.2830  -48.2404 H         1 UNK         0.0600 
    182 H182       -4.7587  -15.5543  -48.5575 H         1 UNK         0.0600 
    183 H183       -4.2259  -16.6602  -49.8257 H         1 UNK         0.0600 
    184 H184       -2.6666  -14.7443  -49.7470 H         1 UNK         0.3000 
    185 H185       -0.5841  -13.8233  -50.8341 H         1 UNK         0.0600 
    186 H186       -2.1164  -12.3866  -49.4315 H         1 UNK         0.0600 
    187 H187       -0.8172  -12.1131  -48.2747 H         1 UNK         0.0600 
    188 H188       -0.7011  -11.4716  -49.9106 H         1 UNK         0.0600 
    189 H189        1.4268  -14.1157  -48.8708 H         1 UNK         0.3000 
    190 H190        2.0251  -25.5700  -47.7017 H         1 UNK         0.3000 
    191 H191       -0.2780  -26.9890  -46.9696 H         1 UNK         0.0600 
    192 H192        1.2638  -26.9864  -49.6195 H         1 UNK         0.0600 
    193 H193        0.1257  -28.2259  -49.1054 H         1 UNK         0.0600 
    194 H194        1.6171  -27.9872  -48.2101 H         1 UNK         0.0600 
    195 H195        0.0864  -24.3560  -49.3172 H         1 UNK         0.3000 
    196 H196       -2.4400  -24.5547  -50.6071 H         1 UNK         0.0600 
    197 H197       -1.9735  -22.1916  -51.2695 H         1 UNK         0.0600 
    198 H198       -0.5498  -23.1962  -51.4887 H         1 UNK         0.0600 
    199 H199       -0.6604  -22.1079  -50.1036 H         1 UNK         0.0600 
    200 H200       -1.4548  -22.9800  -47.5523 H         1 UNK         0.3000 
    201 H201       -4.0210  -21.6613  -47.1405 H         1 UNK         0.0600 
    202 H202       -3.0609  -21.0966  -44.9278 H         1 UNK         0.0600 
    203 H203       -1.6500  -22.0994  -45.2526 H         1 UNK         0.0600 
    204 H204       -1.9678  -20.6666  -46.2318 H         1 UNK         0.0600 
    205 H205       -2.4090  -24.6570  -46.0416 H         1 UNK         0.3000 
    206 H206       -4.4499  -25.5571  -44.2694 H         1 UNK         0.0600 
    207 H207       -2.1177  -26.4652  -44.3145 H         1 UNK         0.0600 
    208 H208       -3.3148  -27.7438  -44.4644 H         1 UNK         0.0600 
    209 H209       -2.4320  -27.2038  -45.8840 H         1 UNK         0.0600 
    210 H210       -3.9693  -26.0428  -47.7809 H         1 UNK         0.3000 
    211 H211       -6.3331  -27.6383  -48.2031 H         1 UNK         0.0600 
    212 H212       -5.7740  -27.2457  -50.6037 H         1 UNK         0.0600 
    213 H213       -4.3437  -27.7157  -49.6995 H         1 UNK         0.0600 
    214 H214       -4.5901  -26.0273  -50.1447 H         1 UNK         0.0600 
    215 H215       -5.9595  -24.3252  -47.5660 H         1 UNK         0.3000 
    216 H216       -7.1905  -22.5051  -47.6066 H         1 UNK         0.0600 
    217 H217       -9.6479  -22.6660  -47.4733 H         1 UNK         0.0600 
    218 H218       -8.9101  -23.9227  -46.4929 H         1 UNK         0.0600 
    219 H219       -9.6161  -24.3229  -48.0582 H         1 UNK         0.0600 
    220 H220       -5.7727  -22.7235  -49.7795 H         1 UNK         0.3000 
    221 H221       -7.0487  -22.5437  -52.2876 H         1 UNK         0.0600 
    222 H222       -4.4336  -21.2851  -51.2852 H         1 UNK         0.0600 
    223 H223       -4.6040  -22.8968  -51.9823 H         1 UNK         0.0600 
    224 H224       -4.8792  -21.4748  -52.9753 H         1 UNK         0.0600 
    225 H225       -7.3350  -20.7323  -53.6696 H         1 UNK         0.3000 
    226 H226       -8.7876  -18.5215  -52.5416 H         1 UNK         0.0600 
    227 H227       -7.8425  -19.0926  -55.4117 H         1 UNK         0.0600 
    228 H228       -9.3666  -19.6388  -54.7147 H         1 UNK         0.0600 
    229 H229       -9.0785  -17.9275  -54.9538 H         1 UNK         0.0600 
    230 H230       -8.3614  -16.2816  -53.5045 H         1 UNK         0.3000 
    231 H231       -6.0674  -15.1304  -52.3919 H         1 UNK         0.0600 
    232 H232       -8.2447  -13.9726  -52.6702 H         1 UNK         0.0600 
    233 H233       -8.0624  -13.9965  -54.4251 H         1 UNK         0.0600 
    234 H234       -6.9685  -13.0411  -53.4324 H         1 UNK         0.0600 
    235 H235       -6.1197  -16.7898  -55.3118 H         1 UNK         0.3000 
    236 H236       -4.0730  -15.4090  -56.8022 H         1 UNK         0.0600 
    237 H237       -5.5776  -17.0883  -57.8509 H         1 UNK         0.0600 
    238 H238       -3.9046  -17.6050  -57.9882 H         1 UNK         0.0600 
    239 H239       -4.9529  -18.3494  -56.7867 H         1 UNK         0.0600 
    240 H240       -4.0705  -17.4994  -53.9614 H         1 UNK         0.3000 
    241 H241       -1.2055  -17.9971  -53.9599 H         1 UNK         0.0600 
    242 H242        0.2878  -16.3532  -53.5936 H         1 UNK         0.3800 
    243 H243       -0.0280  -14.9412  -52.6330 H         1 UNK         0.3800 
    244 H244       -3.3998  -18.3925  -51.8899 H         1 UNK         0.0800 
    245 H245       -2.5845  -19.6201  -52.8139 H         1 UNK         0.0800 
    246 H246        0.1006  -20.5784  -51.9470 H         1 UNK         0.0800 
    247 H247        0.3690  -19.0224  -52.6855 H         1 UNK         0.0800 
@<TRIPOS>BOND
     1    1    2 1    
     2    1  127 1    
     3    1  128 1    
     4    1  129 1    
     5    2    3 2    
     6    2    4 am   BACKBONE|DICT|INTERRES
     7    4    5 1    
     8    4  130 1    
     9    5    6 1    
    10    5   65 1    
    11    5  131 1    
    12    6    7 1    
    13    6  132 1    
    14    6  133 1    
    15    7    8 1    
    16    8    9 1    
    17    8  134 1    
    18    8  135 1    
    19    9   10 ar   
    20    9   14 ar   
    21   10   11 ar   
    22   10  136 1    
    23   11   12 ar   
    24   11  126 1    
    25   12   13 ar   
    26   12  137 1    
    27   13   14 ar   
    28   13   15 1    
    29   14  138 1    
    30   15   16 1    
    31   15  139 1    
    32   15  140 1    
    33   16   17 1    
    34   17   18 1    
    35   17  141 1    
    36   17  142 1    
    37   18   19 1    
    38   18   67 1    
    39   18  143 1    
    40   19   20 am   BACKBONE|DICT|INTERRES
    41   19  144 1    
    42   20   21 2    
    43   20   22 1    
    44   22   23 1    
    45   22   24 1    
    46   22  145 1    
    47   23  146 1    
    48   23  147 1    
    49   23  148 1    
    50   24   25 am   BACKBONE|DICT|INTERRES
    51   24  149 1    
    52   25   26 2    
    53   25   27 1    
    54   27   28 1    
    55   27   29 1    
    56   27  150 1    
    57   28  151 1    
    58   28  152 1    
    59   28  153 1    
    60   29   30 am   BACKBONE|DICT|INTERRES
    61   29  154 1    
    62   30   31 2    
    63   30   32 1    
    64   32   33 1    
    65   32   34 1    
    66   32  155 1    
    67   33  156 1    
    68   33  157 1    
    69   33  158 1    
    70   34   35 am   BACKBONE|DICT|INTERRES
    71   34  159 1    
    72   35   36 2    
    73   35   37 1    
    74   37   38 1    
    75   37   39 1    
    76   37  160 1    
    77   38  161 1    
    78   38  162 1    
    79   38  163 1    
    80   39   40 am   BACKBONE|DICT|INTERRES
    81   39  164 1    
    82   40   41 2    
    83   40   42 1    
    84   42   43 1    
    85   42   44 1    
    86   42  165 1    
    87   43  166 1    
    88   43  167 1    
    89   43  168 1    
    90   44   45 am   BACKBONE|DICT|INTERRES
    91   44  169 1    
    92   45   46 2    
    93   45   47 1    
    94   47   48 1    
    95   47   49 1    
    96   47  170 1    
    97   48  171 1    
    98   48  172 1    
    99   48  173 1    
   100   49   50 am   BACKBONE|DICT|INTERRES
   101   49  174 1    
   102   50   51 2    
   103   50   52 1    
   104   52   53 1    
   105   52   54 1    
   106   52  175 1    
   107   53  176 1    
   108   53  177 1    
   109   53  178 1    
   110   54   55 am   BACKBONE|DICT|INTERRES
   111   54  179 1    
   112   55   56 2    
   113   55   57 1    
   114   57   58 1    
   115   57   59 1    
   116   57  180 1    
   117   58  181 1    
   118   58  182 1    
   119   58  183 1    
   120   59   60 am   BACKBONE|DICT|INTERRES
   121   59  184 1    
   122   60   61 2    
   123   60   62 1    
   124   62   63 1    
   125   62   64 1    
   126   62  185 1    
   127   63  186 1    
   128   63  187 1    
   129   63  188 1    
   130   64   65 am   BACKBONE|DICT|INTERRES
   131   64  189 1    
   132   65   66 2    
   133   67   68 2    
   134   67   69 am   BACKBONE|DICT|INTERRES
   135   69   70 1    
   136   69  190 1    
   137   70   71 1    
   138   70   72 1    
   139   70  191 1    
   140   71  192 1    
   141   71  193 1    
   142   71  194 1    
   143   72   73 2    
   144   72   74 am   BACKBONE|DICT|INTERRES
   145   74   75 1    
   146   74  195 1    
   147   75   76 1    
   148   75   77 1    
   149   75  196 1    
   150   76  197 1    
   151   76  198 1    
   152   76  199 1    
   153   77   78 2    
   154   77   79 am   BACKBONE|DICT|INTERRES
   155   79   80 1    
   156   79  200 1    
   157   80   81 1    
   158   80   82 1    
   159   80  201 1    
   160   81  202 1    
   161   81  203 1    
   162   81  204 1    
   163   82   83 2    
   164   82   84 am   BACKBONE|DICT|INTERRES
   165   84   85 1    
   166   84  205 1    
   167   85   86 1    
   168   85   87 1    
   169   85  206 1    
   170   86  207 1    
   171   86  208 1    
   172   86  209 1    
   173   87   88 2    
   174   87   89 am   BACKBONE|DICT|INTERRES
   175   89   90 1    
   176   89  210 1    
   177   90   91 1    
   178   90   92 1    
   179   90  211 1    
   180   91  212 1    
   181   91  213 1    
   182   91  214 1    
   183   92   93 2    
   184   92   94 am   BACKBONE|DICT|INTERRES
   185   94   95 1    
   186   94  215 1    
   187   95   96 1    
   188   95   97 1    
   189   95  216 1    
   190   96  217 1    
   191   96  218 1    
   192   96  219 1    
   193   97   98 2    
   194   97   99 am   BACKBONE|DICT|INTERRES
   195   99  100 1    
   196   99  220 1    
   197  100  101 1    
   198  100  102 1    
   199  100  221 1    
   200  101  222 1    
   201  101  223 1    
   202  101  224 1    
   203  102  103 2    
   204  102  104 am   BACKBONE|DICT|INTERRES
   205  104  105 1    
   206  104  225 1    
   207  105  106 1    
   208  105  107 1    
   209  105  226 1    
   210  106  227 1    
   211  106  228 1    
   212  106  229 1    
   213  107  108 2    
   214  107  109 am   BACKBONE|DICT|INTERRES
   215  109  110 1    
   216  109  230 1    
   217  110  111 1    
   218  110  112 1    
   219  110  231 1    
   220  111  232 1    
   221  111  233 1    
   222  111  234 1    
   223  112  113 2    
   224  112  114 am   BACKBONE|DICT|INTERRES
   225  114  115 1    
   226  114  235 1    
   227  115  116 1    
   228  115  117 1    
   229  115  236 1    
   230  116  237 1    
   231  116  238 1    
   232  116  239 1    
   233  117  118 2    
   234  117  119 am   BACKBONE|DICT|INTERRES
   235  119  120 1    
   236  119  240 1    
   237  120  121 1    
   238  120  124 1    
   239  120  241 1    
   240  121  122 am   BACKBONE|DICT|INTERRES
   241  121  123 2    
   242  122  242 1    
   243  122  243 1    
   244  124  125 1    
   245  124  244 1    
   246  124  245 1    
   247  125  126 1    
   248  126  246 1    
   249  126  247 1    
@<TRIPOS>SUBSTRUCTURE
     1 UNK         1 GROUP             0       ****    0 ROOT    
