@<TRIPOS>MOLECULE
3R540
247   249    1
SMALL
USER_CHARGES


@<TRIPOS>ATOM
      1 CA         -1.9337  -14.3619  -51.2239 C.3       0 UNK        -0.1800 
      2 C          -1.2165  -13.7139  -50.0487 C.2       0 UNK         0.5000 
      3 O          -1.7116  -12.7386  -49.4848 O.2       0 UNK        -0.5000 
      4 N          -0.0528  -14.2585  -49.6731 N.am      1 UNK        -0.5000 
      5 CA          0.8186  -13.7557  -48.6013 C.3       1 UNK         0.1400 
      6 C6          2.2450  -14.3631  -48.6578 C.3       23 UNK        -0.0398 
      7 S7          3.0239  -14.3668  -50.3092 S.3       23 UNK        -0.2404 
      8 C8          3.1978  -16.1571  -50.6199 C.3       23 UNK        -0.0205 
      9 C9          1.9031  -16.7737  -51.1297 C.ar      23 UNK        -0.0193 
     10 C10         1.6929  -16.9009  -52.5063 C.ar      23 UNK        -0.1150 
     11 C11         0.5083  -17.4542  -52.9977 C.ar      23 UNK        -0.0193 
     12 C12        -0.4820  -17.8531  -52.0965 C.ar      23 UNK        -0.1150 
     13 C13        -0.2868  -17.7373  -50.7187 C.ar      23 UNK        -0.0193 
     14 C14         0.9190  -17.2186  -50.2384 C.ar      23 UNK        -0.1150 
     15 C15        -1.4034  -18.1356  -49.7652 C.3       23 UNK        -0.0205 
     16 S16        -1.4396  -19.9274  -49.4528 S.3       23 UNK        -0.2404 
     17 C17        -0.4030  -20.0705  -47.9568 C.3       23 UNK        -0.0398 
     18 CA         -0.4751  -21.4693  -47.2904 C.3       11 UNK         0.1400 
     19 N           0.5114  -21.5961  -46.2158 N.am      11 UNK        -0.5000 
     20 C           0.9286  -22.7519  -45.6813 C.2       10 UNK         0.5000 
     21 O           0.4241  -23.8434  -45.9380 O.2       10 UNK        -0.5000 
     22 CA          2.1161  -22.6789  -44.7072 C.3       10 UNK         0.1400 
     23 CB          3.3739  -22.1238  -45.3974 C.3       10 UNK        -0.1800 
     24 N           1.7829  -21.8389  -43.5622 N.am      10 UNK        -0.5000 
     25 C           1.6107  -22.2788  -42.3084 C.2       9 UNK         0.5000 
     26 O           1.8289  -23.4396  -41.9596 O.2       9 UNK        -0.5000 
     27 CA          1.1016  -21.2715  -41.2517 C.3       9 UNK         0.1400 
     28 CB          2.2074  -20.9516  -40.2335 C.3       9 UNK        -0.1800 
     29 N           0.5870  -20.0124  -41.7952 N.am      9 UNK        -0.5000 
     30 C          -0.4595  -19.8873  -42.6218 C.2       8 UNK         0.5000 
     31 O          -1.1406  -20.8346  -43.0114 O.2       8 UNK        -0.5000 
     32 CA         -0.7219  -18.4795  -43.1871 C.3       8 UNK         0.1400 
     33 CB         -1.5689  -17.6536  -42.2107 C.3       8 UNK        -0.1800 
     34 N           0.5169  -17.7626  -43.5038 N.am      8 UNK        -0.5000 
     35 C           1.4376  -18.1840  -44.3844 C.2       7 UNK         0.5000 
     36 O           1.3103  -19.1999  -45.0673 O.2       7 UNK        -0.5000 
     37 CA          2.7287  -17.3630  -44.4998 C.3       7 UNK         0.1400 
     38 CB          2.5258  -16.1813  -45.4498 C.3       7 UNK        -0.1800 
     39 N           3.1768  -16.8798  -43.1971 N.am      7 UNK        -0.5000 
     40 C           3.8667  -17.6219  -42.3203 C.2       6 UNK         0.5000 
     41 O           4.2646  -18.7632  -42.5534 O.2       6 UNK        -0.5000 
     42 CA          4.1406  -16.9908  -40.9419 C.3       6 UNK         0.1400 
     43 CB          5.4780  -16.2354  -40.9516 C.3       6 UNK        -0.1800 
     44 N           3.0789  -16.0812  -40.5063 N.am      6 UNK        -0.5000 
     45 C           1.8290  -16.4603  -40.2056 C.2       5 UNK         0.5000 
     46 O           1.4408  -17.6276  -40.2458 O.2       5 UNK        -0.5000 
     47 CA          0.8359  -15.3384  -39.8480 C.3       5 UNK         0.1400 
     48 CB          0.8918  -15.0289  -38.3449 C.3       5 UNK        -0.1800 
     49 N           1.0491  -14.1017  -40.6077 N.am      5 UNK        -0.5000 
     50 C           0.9336  -13.9976  -41.9379 C.2       4 UNK         0.5000 
     51 O           0.6926  -14.9542  -42.6793 O.2       4 UNK        -0.5000 
     52 CA          1.1737  -12.6068  -42.5468 C.3       4 UNK         0.1400 
     53 CB          2.5423  -12.5583  -43.2434 C.3       4 UNK        -0.1800 
     54 N           0.1301  -12.3134  -43.5233 N.am      4 UNK        -0.5000 
     55 C          -1.0767  -11.8098  -43.2221 C.2       3 UNK         0.5000 
     56 O          -1.3806  -11.3851  -42.1067 O.2       3 UNK        -0.5000 
     57 CA         -2.1352  -11.8116  -44.3476 C.3       3 UNK         0.1400 
     58 CB         -2.0845  -10.4987  -45.1430 C.3       3 UNK        -0.1800 
     59 N          -1.9479  -12.9350  -45.2656 N.am      3 UNK        -0.5000 
     60 C          -2.0936  -14.2198  -44.9191 C.2       2 UNK         0.5000 
     61 O          -2.6911  -14.5707  -43.9015 O.2       2 UNK        -0.5000 
     62 CA         -1.4298  -15.2909  -45.8158 C.3       2 UNK         0.1400 
     63 CB         -2.4073  -16.4302  -46.1532 C.3       2 UNK        -0.1800 
     64 N          -0.8005  -14.8173  -47.0585 N.am      2 UNK        -0.5000 
     65 C           0.2350  -13.9708  -47.1847 C.2       1 UNK         0.5000 
     66 O           0.7427  -13.3776  -46.2329 O.2       1 UNK        -0.5000 
     67 C          -1.8969  -21.8330  -46.8157 C.2       11 UNK         0.5000 
     68 O          -2.5097  -22.7474  -47.3700 O.2       11 UNK        -0.5000 
     69 N          -2.3948  -21.1279  -45.7901 N.am      12 UNK        -0.5000 
     70 CA         -3.7449  -21.3228  -45.2529 C.3       12 UNK         0.1400 
     71 CB         -4.1445  -20.1293  -44.3718 C.3       12 UNK        -0.1800 
     72 C          -3.8862  -22.6555  -44.4968 C.2       12 UNK         0.5000 
     73 O          -4.9460  -23.2777  -44.5604 O.2       12 UNK        -0.5000 
     74 N          -2.7980  -23.1070  -43.8585 N.am      13 UNK        -0.5000 
     75 CA         -2.6736  -24.4250  -43.2306 C.3       13 UNK         0.1400 
     76 CB         -1.3314  -24.5023  -42.4924 C.3       13 UNK        -0.1800 
     77 C          -2.8076  -25.5931  -44.2303 C.2       13 UNK         0.5000 
     78 O          -3.3329  -26.6452  -43.8661 O.2       13 UNK        -0.5000 
     79 N          -2.3719  -25.3728  -45.4783 N.am      14 UNK        -0.5000 
     80 CA         -2.5319  -26.2900  -46.6087 C.3       14 UNK         0.1400 
     81 CB         -1.3172  -26.1402  -47.5408 C.3       14 UNK        -0.1800 
     82 C          -3.8499  -26.0604  -47.3797 C.2       14 UNK         0.5000 
     83 O          -4.0204  -26.6335  -48.4564 O.2       14 UNK        -0.5000 
     84 N          -4.7426  -25.2080  -46.8495 N.am      15 UNK        -0.5000 
     85 CA         -6.0368  -24.8002  -47.4111 C.3       15 UNK         0.1400 
     86 CB         -7.0144  -25.9935  -47.4419 C.3       15 UNK        -0.1800 
     87 C          -5.9223  -24.0875  -48.7764 C.2       15 UNK         0.5000 
     88 O          -6.8719  -24.1136  -49.5611 O.2       15 UNK        -0.5000 
     89 N          -4.7577  -23.4720  -49.0335 N.am      16 UNK        -0.5000 
     90 CA         -4.3507  -22.8133  -50.2753 C.3       16 UNK         0.1400 
     91 CB         -5.1255  -21.4951  -50.4758 C.3       16 UNK        -0.1800 
     92 C          -4.3996  -23.7421  -51.5087 C.2       16 UNK         0.5000 
     93 O          -4.7374  -23.2883  -52.6026 O.2       16 UNK        -0.5000 
     94 N          -4.0541  -25.0265  -51.3226 N.am      17 UNK        -0.5000 
     95 CA         -3.9639  -26.0378  -52.3802 C.3       17 UNK         0.1400 
     96 CB         -3.5449  -27.3809  -51.7634 C.3       17 UNK        -0.1800 
     97 C          -2.9842  -25.6048  -53.4883 C.2       17 UNK         0.5000 
     98 O          -1.7992  -25.4166  -53.2070 O.2       17 UNK        -0.5000 
     99 N          -3.5197  -25.3623  -54.6940 N.am      18 UNK        -0.5000 
    100 CA        -2.8937  -24.7571  -55.8831 C.3       18 UNK         0.1400 
    101 CB        -1.6820  -25.5754  -56.3679 C.3       18 UNK        -0.1800 
    102 C         -2.5320  -23.2621  -55.7271 C.2       18 UNK         0.5000 
    103 O         -2.6363  -22.5083  -56.6956 O.2       18 UNK        -0.5000 
    104 N         -2.1496  -22.8484  -54.5135 N.am      19 UNK        -0.5000 
    105 CA        -1.8039  -21.4831  -54.1189 C.3       19 UNK         0.1400 
    106 CB        -1.2303  -21.5239  -52.6974 C.3       19 UNK        -0.1800 
    107 C         -2.9724  -20.4799  -54.2192 C.2       19 UNK         0.5000 
    108 O         -2.7263  -19.2812  -54.3385 O.2       19 UNK        -0.5000 
    109 N         -4.2195  -20.9717  -54.2403 N.am      20 UNK        -0.5000 
    110 CA        -5.4554  -20.2086  -54.4592 C.3       20 UNK         0.1400 
    111 CB        -6.6529  -21.1661  -54.3502 C.3       20 UNK        -0.1800 
    112 C         -5.5163  -19.4120  -55.7845 C.2       20 UNK         0.5000 
    113 O         -6.4111  -18.5812  -55.9457 O.2       20 UNK        -0.5000 
    114 N         -4.5647  -19.6532  -56.6984 N.am      21 UNK        -0.5000 
    115 CA        -4.2932  -18.8347  -57.8795 C.3       21 UNK         0.1400 
    116 CB        -3.2149  -19.5293  -58.7248 C.3       21 UNK        -0.1800 
    117 C         -3.8672  -17.3876  -57.5437 C.2       21 UNK         0.5000 
    118 O         -4.1345  -16.4897  -58.3439 O.2       21 UNK        -0.5000 
    119 N         -3.2355  -17.1743  -56.3788 N.am      22 UNK        -0.5000 
    120 CA        -2.9761  -15.8393  -55.8190 C.3       22 UNK         0.1400 
    121 C         -4.2870  -15.2072  -55.2755 C.2       22 UNK         0.5000 
    122 N         -4.6381  -14.0063  -55.7144 N.am      22 UNK        -0.7600 
    123 O         -4.9634  -15.7789  -54.4242 O.2       22 UNK        -0.5000 
    124 C124       -1.8981  -15.8669  -54.7063 C.3       23 UNK        -0.0398 
    125 S125       -0.2124  -16.1341  -55.3520 S.3       23 UNK        -0.2404 
    126 C126        0.3177  -17.6510  -54.4965 C.3       23 UNK        -0.0205 
    127 H127       -1.2829  -15.0566  -51.7544 H         1 UNK         0.0600 
    128 H128       -2.2625  -13.6009  -51.9315 H         1 UNK         0.0600 
    129 H129       -2.8098  -14.9093  -50.8768 H         1 UNK         0.0600 
    130 H130        0.3179  -15.0396  -50.1984 H         1 UNK         0.3000 
    131 H131        0.9140  -12.6770  -48.7422 H         1 UNK         0.0600 
    132 H132        2.9072  -13.8121  -47.9872 H         1 UNK         0.0800 
    133 H133        2.2385  -15.3839  -48.2834 H         1 UNK         0.0800 
    134 H134        3.5372  -16.6709  -49.7192 H         1 UNK         0.0800 
    135 H135        3.9888  -16.3022  -51.3574 H         1 UNK         0.0800 
    136 H136        2.4555  -16.5741  -53.1995 H         1 UNK         0.1150 
    137 H137       -1.4105  -18.2634  -52.4625 H         1 UNK         0.1150 
    138 H138        1.0775  -17.1420  -49.1726 H         1 UNK         0.1150 
    139 H139       -1.3181  -17.5875  -48.8280 H         1 UNK         0.0800 
    140 H140       -2.3623  -17.8425  -50.1957 H         1 UNK         0.0800 
    141 H141       -0.6843  -19.2942  -47.2443 H         1 UNK         0.0800 
    142 H142        0.6259  -19.8537  -48.2480 H         1 UNK         0.0800 
    143 H143       -0.2029  -22.2017  -48.0540 H         1 UNK         0.0600 
    144 H144        0.9368  -20.7278  -45.8964 H         1 UNK         0.3000 
    145 H145        2.3371  -23.6994  -44.3878 H         1 UNK         0.0600 
    146 H146        4.2330  -22.1600  -44.7274 H         1 UNK         0.0600 
    147 H147        3.6259  -22.7110  -46.2814 H         1 UNK         0.0600 
    148 H148        3.2466  -21.0882  -45.7144 H         1 UNK         0.0600 
    149 H149        1.5653  -20.8721  -43.7674 H         1 UNK         0.3000 
    150 H150        0.2805  -21.7573  -40.7211 H         1 UNK         0.0600 
    151 H151        2.5946  -21.8612  -39.7728 H         1 UNK         0.0600 
    152 H152        1.8328  -20.3168  -39.4303 H         1 UNK         0.0600 
    153 H153        3.0466  -20.4377  -40.7029 H         1 UNK         0.0600 
    154 H154        1.0579  -19.1667  -41.4887 H         1 UNK         0.3000 
    155 H155       -1.2833  -18.5886  -44.1166 H         1 UNK         0.0600 
    156 H156       -2.5513  -18.1054  -42.0699 H         1 UNK         0.0600 
    157 H157       -1.7255  -16.6410  -42.5799 H         1 UNK         0.0600 
    158 H158       -1.0997  -17.5821  -41.2301 H         1 UNK         0.0600 
    159 H159        0.6691  -16.8807  -43.0233 H         1 UNK         0.3000 
    160 H160        3.4963  -18.0105  -44.9296 H         1 UNK         0.0600 
    161 H161        1.8376  -15.4479  -45.0330 H         1 UNK         0.0600 
    162 H162        2.1088  -16.5271  -46.3945 H         1 UNK         0.0600 
    163 H163        3.4672  -15.6758  -45.6649 H         1 UNK         0.0600 
    164 H164        2.8471  -15.9689  -42.9117 H         1 UNK         0.3000 
    165 H165        4.2100  -17.8029  -40.2149 H         1 UNK         0.0600 
    166 H166        5.7203  -15.8493  -39.9613 H         1 UNK         0.0600 
    167 H167        6.2953  -16.8928  -41.2515 H         1 UNK         0.0600 
    168 H168        5.4612  -15.3945  -41.6461 H         1 UNK         0.0600 
    169 H169        3.3119  -15.1010  -40.4469 H         1 UNK         0.3000 
    170 H170       -0.1672  -15.6996  -40.0816 H         1 UNK         0.0600 
    171 H171        0.7149  -15.9290  -37.7544 H         1 UNK         0.0600 
    172 H172        1.8629  -14.6288  -38.0508 H         1 UNK         0.0600 
    173 H173        0.1292  -14.3027  -38.0629 H         1 UNK         0.0600 
    174 H174        1.2584  -13.2744  -40.0676 H         1 UNK         0.3000 
    175 H175        1.1602  -11.8530  -41.7568 H         1 UNK         0.0600 
    176 H176        2.6111  -13.2867  -44.0524 H         1 UNK         0.0600 
    177 H177        2.7315  -11.5724  -43.6681 H         1 UNK         0.0600 
    178 H178        3.3484  -12.7702  -42.5399 H         1 UNK         0.0600 
    179 H179        0.2880  -12.6785  -44.4581 H         1 UNK         0.3000 
    180 H180       -3.1209  -11.9001  -43.8860 H         1 UNK         0.0600 
    181 H181       -1.1213  -10.3644  -45.6372 H         1 UNK         0.0600 
    182 H182       -2.2413   -9.6402  -44.4886 H         1 UNK         0.0600 
    183 H183       -2.8611  -10.4707  -45.9077 H         1 UNK         0.0600 
    184 H184       -1.4303  -12.7412  -46.1109 H         1 UNK         0.3000 
    185 H185       -0.6332  -15.7178  -45.2045 H         1 UNK         0.0600 
    186 H186       -2.9089  -16.8052  -45.2601 H         1 UNK         0.0600 
    187 H187       -3.1797  -16.1036  -46.8502 H         1 UNK         0.0600 
    188 H188       -1.8852  -17.2770  -46.5949 H         1 UNK         0.0600 
    189 H189       -1.1742  -15.2030  -47.9122 H         1 UNK         0.3000 
    190 H190       -1.8053  -20.4615  -45.3153 H         1 UNK         0.3000 
    191 H191       -4.4364  -21.3532  -46.0981 H         1 UNK         0.0600 
    192 H192       -4.0303  -19.1860  -44.9059 H         1 UNK         0.0600 
    193 H193       -5.1901  -20.2071  -44.0718 H         1 UNK         0.0600 
    194 H194       -3.5530  -20.0749  -43.4592 H         1 UNK         0.0600 
    195 H195       -1.9991  -22.4850  -43.7882 H         1 UNK         0.3000 
    196 H196       -3.4764  -24.5212  -42.4968 H         1 UNK         0.0600 
    197 H197       -1.2257  -25.4532  -41.9689 H         1 UNK         0.0600 
    198 H198       -1.2425  -23.7096  -41.7494 H         1 UNK         0.0600 
    199 H199       -0.4922  -24.4129  -43.1830 H         1 UNK         0.0600 
    200 H200       -1.9373  -24.4840  -45.6922 H         1 UNK         0.3000 
    201 H201       -2.5493  -27.3185  -46.2433 H         1 UNK         0.0600 
    202 H202       -0.3865  -26.3308  -47.0064 H         1 UNK         0.0600 
    203 H203       -1.2582  -25.1379  -47.9666 H         1 UNK         0.0600 
    204 H204       -1.3629  -26.8477  -48.3696 H         1 UNK         0.0600 
    205 H205       -4.5073  -24.7618  -45.9709 H         1 UNK         0.3000 
    206 H206       -6.4460  -24.0598  -46.7229 H         1 UNK         0.0600 
    207 H207       -7.0790  -26.4750  -46.4662 H         1 UNK         0.0600 
    208 H208       -8.0209  -25.6692  -47.7085 H         1 UNK         0.0600 
    209 H209       -6.7112  -26.7471  -48.1693 H         1 UNK         0.0600 
    210 H210       -4.0429  -23.4798  -48.3104 H         1 UNK         0.3000 
    211 H211       -3.3006  -22.5544  -50.1374 H         1 UNK         0.0600 
    212 H212       -4.7249  -20.9303  -51.3182 H         1 UNK         0.0600 
    213 H213       -5.0479  -20.8567  -49.5958 H         1 UNK         0.0600 
    214 H214       -6.1830  -21.6733  -50.6724 H         1 UNK         0.0600 
    215 H215       -3.8237  -25.3365  -50.3873 H         1 UNK         0.3000 
    216 H216       -4.9598  -26.1573  -52.8113 H         1 UNK         0.0600 
    217 H217       -3.4527  -28.1519  -52.5294 H         1 UNK         0.0600 
    218 H218       -4.2826  -27.7284  -51.0398 H         1 UNK         0.0600 
    219 H219       -2.5844  -27.3071  -51.2516 H         1 UNK         0.0600 
    220 H220       -4.5164  -25.5038  -54.7844 H         1 UNK         0.3000 
    221 H221       -3.6517  -24.8060  -56.6664 H         1 UNK         0.0600 
    222 H222       -0.8522  -25.5377  -55.6620 H         1 UNK         0.0600 
    223 H223       -1.9475  -26.6216  -56.5199 H         1 UNK         0.0600 
    224 H224       -1.3130  -25.1920  -57.3200 H         1 UNK         0.0600 
    225 H225       -2.0637  -23.5621  -53.7980 H         1 UNK         0.3000 
    226 H226       -1.0196  -21.1359  -54.7942 H         1 UNK         0.0600 
    227 H227       -0.4120  -22.2399  -52.6183 H         1 UNK         0.0600 
    228 H228       -0.8322  -20.5534  -52.4087 H         1 UNK         0.0600 
    229 H229       -1.9893  -21.7997  -51.9668 H         1 UNK         0.0600 
    230 H230       -4.3393  -21.9595  -54.0390 H         1 UNK         0.3000 
    231 H231       -5.5294  -19.4770  -53.6524 H         1 UNK         0.0600 
    232 H232       -6.5890  -21.9715  -55.0827 H         1 UNK         0.0600 
    233 H233       -7.5953  -20.6427  -54.5164 H         1 UNK         0.0600 
    234 H234       -6.7088  -21.6162  -53.3592 H         1 UNK         0.0600 
    235 H235       -3.8928  -20.3812  -56.4962 H         1 UNK         0.3000 
    236 H236       -5.2116  -18.7815  -58.4675 H         1 UNK         0.0600 
    237 H237       -3.5347  -20.5253  -59.0318 H         1 UNK         0.0600 
    238 H238       -3.0021  -18.9616  -59.6316 H         1 UNK         0.0600 
    239 H239       -2.2793  -19.6337  -58.1737 H         1 UNK         0.0600 
    240 H240       -3.0775  -17.9568  -55.7508 H         1 UNK         0.3000 
    241 H241       -2.6025  -15.2036  -56.6245 H         1 UNK         0.0600 
    242 H242       -5.4792  -13.5809  -55.3563 H         1 UNK         0.3800 
    243 H243       -4.0981  -13.5200  -56.4139 H         1 UNK         0.3800 
    244 H244       -1.8725  -14.9115  -54.1800 H         1 UNK         0.0800 
    245 H245       -2.1499  -16.6161  -53.9565 H         1 UNK         0.0800 
    246 H246       -0.3913  -18.4518  -54.6967 H         1 UNK         0.0800 
    247 H247        1.2613  -17.9798  -54.9341 H         1 UNK         0.0800 
@<TRIPOS>BOND
     1    1    2 1    
     2    1  127 1    
     3    1  128 1    
     4    1  129 1    
     5    2    3 2    
     6    2    4 am   BACKBONE|DICT|INTERRES
     7    4    5 1    
     8    4  130 1    
     9    5    6 1    
    10    5   65 1    
    11    5  131 1    
    12    6    7 1    
    13    6  132 1    
    14    6  133 1    
    15    7    8 1    
    16    8    9 1    
    17    8  134 1    
    18    8  135 1    
    19    9   10 ar   
    20    9   14 ar   
    21   10   11 ar   
    22   10  136 1    
    23   11   12 ar   
    24   11  126 1    
    25   12   13 ar   
    26   12  137 1    
    27   13   14 ar   
    28   13   15 1    
    29   14  138 1    
    30   15   16 1    
    31   15  139 1    
    32   15  140 1    
    33   16   17 1    
    34   17   18 1    
    35   17  141 1    
    36   17  142 1    
    37   18   19 1    
    38   18   67 1    
    39   18  143 1    
    40   19   20 am   BACKBONE|DICT|INTERRES
    41   19  144 1    
    42   20   21 2    
    43   20   22 1    
    44   22   23 1    
    45   22   24 1    
    46   22  145 1    
    47   23  146 1    
    48   23  147 1    
    49   23  148 1    
    50   24   25 am   BACKBONE|DICT|INTERRES
    51   24  149 1    
    52   25   26 2    
    53   25   27 1    
    54   27   28 1    
    55   27   29 1    
    56   27  150 1    
    57   28  151 1    
    58   28  152 1    
    59   28  153 1    
    60   29   30 am   BACKBONE|DICT|INTERRES
    61   29  154 1    
    62   30   31 2    
    63   30   32 1    
    64   32   33 1    
    65   32   34 1    
    66   32  155 1    
    67   33  156 1    
    68   33  157 1    
    69   33  158 1    
    70   34   35 am   BACKBONE|DICT|INTERRES
    71   34  159 1    
    72   35   36 2    
    73   35   37 1    
    74   37   38 1    
    75   37   39 1    
    76   37  160 1    
    77   38  161 1    
    78   38  162 1    
    79   38  163 1    
    80   39   40 am   BACKBONE|DICT|INTERRES
    81   39  164 1    
    82   40   41 2    
    83   40   42 1    
    84   42   43 1    
    85   42   44 1    
    86   42  165 1    
    87   43  166 1    
    88   43  167 1    
    89   43  168 1    
    90   44   45 am   BACKBONE|DICT|INTERRES
    91   44  169 1    
    92   45   46 2    
    93   45   47 1    
    94   47   48 1    
    95   47   49 1    
    96   47  170 1    
    97   48  171 1    
    98   48  172 1    
    99   48  173 1    
   100   49   50 am   BACKBONE|DICT|INTERRES
   101   49  174 1    
   102   50   51 2    
   103   50   52 1    
   104   52   53 1    
   105   52   54 1    
   106   52  175 1    
   107   53  176 1    
   108   53  177 1    
   109   53  178 1    
   110   54   55 am   BACKBONE|DICT|INTERRES
   111   54  179 1    
   112   55   56 2    
   113   55   57 1    
   114   57   58 1    
   115   57   59 1    
   116   57  180 1    
   117   58  181 1    
   118   58  182 1    
   119   58  183 1    
   120   59   60 am   BACKBONE|DICT|INTERRES
   121   59  184 1    
   122   60   61 2    
   123   60   62 1    
   124   62   63 1    
   125   62   64 1    
   126   62  185 1    
   127   63  186 1    
   128   63  187 1    
   129   63  188 1    
   130   64   65 am   BACKBONE|DICT|INTERRES
   131   64  189 1    
   132   65   66 2    
   133   67   68 2    
   134   67   69 am   BACKBONE|DICT|INTERRES
   135   69   70 1    
   136   69  190 1    
   137   70   71 1    
   138   70   72 1    
   139   70  191 1    
   140   71  192 1    
   141   71  193 1    
   142   71  194 1    
   143   72   73 2    
   144   72   74 am   BACKBONE|DICT|INTERRES
   145   74   75 1    
   146   74  195 1    
   147   75   76 1    
   148   75   77 1    
   149   75  196 1    
   150   76  197 1    
   151   76  198 1    
   152   76  199 1    
   153   77   78 2    
   154   77   79 am   BACKBONE|DICT|INTERRES
   155   79   80 1    
   156   79  200 1    
   157   80   81 1    
   158   80   82 1    
   159   80  201 1    
   160   81  202 1    
   161   81  203 1    
   162   81  204 1    
   163   82   83 2    
   164   82   84 am   BACKBONE|DICT|INTERRES
   165   84   85 1    
   166   84  205 1    
   167   85   86 1    
   168   85   87 1    
   169   85  206 1    
   170   86  207 1    
   171   86  208 1    
   172   86  209 1    
   173   87   88 2    
   174   87   89 am   BACKBONE|DICT|INTERRES
   175   89   90 1    
   176   89  210 1    
   177   90   91 1    
   178   90   92 1    
   179   90  211 1    
   180   91  212 1    
   181   91  213 1    
   182   91  214 1    
   183   92   93 2    
   184   92   94 am   BACKBONE|DICT|INTERRES
   185   94   95 1    
   186   94  215 1    
   187   95   96 1    
   188   95   97 1    
   189   95  216 1    
   190   96  217 1    
   191   96  218 1    
   192   96  219 1    
   193   97   98 2    
   194   97   99 am   BACKBONE|DICT|INTERRES
   195   99  100 1    
   196   99  220 1    
   197  100  101 1    
   198  100  102 1    
   199  100  221 1    
   200  101  222 1    
   201  101  223 1    
   202  101  224 1    
   203  102  103 2    
   204  102  104 am   BACKBONE|DICT|INTERRES
   205  104  105 1    
   206  104  225 1    
   207  105  106 1    
   208  105  107 1    
   209  105  226 1    
   210  106  227 1    
   211  106  228 1    
   212  106  229 1    
   213  107  108 2    
   214  107  109 am   BACKBONE|DICT|INTERRES
   215  109  110 1    
   216  109  230 1    
   217  110  111 1    
   218  110  112 1    
   219  110  231 1    
   220  111  232 1    
   221  111  233 1    
   222  111  234 1    
   223  112  113 2    
   224  112  114 am   BACKBONE|DICT|INTERRES
   225  114  115 1    
   226  114  235 1    
   227  115  116 1    
   228  115  117 1    
   229  115  236 1    
   230  116  237 1    
   231  116  238 1    
   232  116  239 1    
   233  117  118 2    
   234  117  119 am   BACKBONE|DICT|INTERRES
   235  119  120 1    
   236  119  240 1    
   237  120  121 1    
   238  120  124 1    
   239  120  241 1    
   240  121  122 am   BACKBONE|DICT|INTERRES
   241  121  123 2    
   242  122  242 1    
   243  122  243 1    
   244  124  125 1    
   245  124  244 1    
   246  124  245 1    
   247  125  126 1    
   248  126  246 1    
   249  126  247 1    
@<TRIPOS>SUBSTRUCTURE
     1 UNK         1 GROUP             0       ****    0 ROOT    
