@<TRIPOS>MOLECULE
3R540
247   249    1
SMALL
USER_CHARGES


@<TRIPOS>ATOM
      1 CA          5.8162  -11.1400  -48.7964 C.3       0 UNK        -0.1800 
      2 C           6.0460  -12.6075  -48.4639 C.2       0 UNK         0.5000 
      3 O           7.0988  -12.9573  -47.9302 O.2       0 UNK        -0.5000 
      4 N           5.0666  -13.4650  -48.7786 N.am      1 UNK        -0.5000 
      5 CA          5.0989  -14.9133  -48.5289 C.3       1 UNK         0.1400 
      6 C6          3.9673  -15.6524  -49.2801 C.3       23 UNK        -0.0398 
      7 S7          4.1337  -15.5071  -51.0895 S.3       23 UNK        -0.2404 
      8 C8          4.7546  -17.1647  -51.5220 C.3       23 UNK        -0.0205 
      9 C9          3.7191  -18.2532  -51.2727 C.ar      23 UNK        -0.0193 
     10 C10         2.5145  -18.2450  -51.9806 C.ar      23 UNK        -0.1150 
     11 C11         1.5573  -19.2404  -51.7725 C.ar      23 UNK        -0.0193 
     12 C12         1.8199  -20.2585  -50.8502 C.ar      23 UNK        -0.1150 
     13 C13         3.0295  -20.2924  -50.1469 C.ar      23 UNK        -0.0193 
     14 C14         3.9720  -19.2812  -50.3579 C.ar      23 UNK        -0.1150 
     15 C15         3.3523  -21.4665  -49.2285 C.3       23 UNK        -0.0205 
     16 S16         3.4482  -21.0338  -47.4568 S.3       23 UNK        -0.2404 
     17 C17         1.7492  -20.5097  -47.0523 C.3       23 UNK        -0.0398 
     18 CA          0.8071  -21.6734  -46.6330 C.3       11 UNK         0.1400 
     19 N          -0.2490  -21.2330  -45.7128 N.am      11 UNK        -0.5000 
     20 C          -1.1891  -22.0222  -45.1678 C.2       10 UNK         0.5000 
     21 O          -1.2143  -23.2471  -45.2928 O.2       10 UNK        -0.5000 
     22 CA         -2.3324  -21.3203  -44.4084 C.3       10 UNK         0.1400 
     23 CB         -1.9331  -21.0242  -42.9556 C.3       10 UNK        -0.1800 
     24 N          -2.7746  -20.0896  -45.0698 N.am      10 UNK        -0.5000 
     25 C          -3.3494  -20.0535  -46.2811 C.2       9 UNK         0.5000 
     26 O          -3.6296  -21.0588  -46.9305 O.2       9 UNK        -0.5000 
     27 CA         -3.6049  -18.6711  -46.9049 C.3       9 UNK         0.1400 
     28 CB         -4.9173  -18.0652  -46.3898 C.3       9 UNK        -0.1800 
     29 N          -2.5053  -17.7334  -46.6817 N.am      9 UNK        -0.5000 
     30 C          -1.2584  -17.8979  -47.1445 C.2       8 UNK         0.5000 
     31 O          -0.9274  -18.8264  -47.8801 O.2       8 UNK        -0.5000 
     32 CA         -0.1911  -16.9042  -46.6436 C.3       8 UNK         0.1400 
     33 CB         -0.2054  -15.6081  -47.4661 C.3       8 UNK        -0.1800 
     34 N          -0.3517  -16.5954  -45.2197 N.am      8 UNK        -0.5000 
     35 C          -0.1843  -17.4923  -44.2363 C.2       7 UNK         0.5000 
     36 O           0.2099  -18.6415  -44.4302 O.2       7 UNK        -0.5000 
     37 CA         -0.5851  -17.0633  -42.8128 C.3       7 UNK         0.1400 
     38 CB          0.5639  -16.3623  -42.0759 C.3       7 UNK        -0.1800 
     39 N          -1.7624  -16.1980  -42.8182 N.am      7 UNK        -0.5000 
     40 C          -3.0113  -16.6358  -43.0255 C.2       6 UNK         0.5000 
     41 O          -3.2970  -17.8213  -43.1901 O.2       6 UNK        -0.5000 
     42 CA         -4.1174  -15.5660  -43.0979 C.3       6 UNK         0.1400 
     43 CB         -4.6436  -15.2392  -41.6927 C.3       6 UNK        -0.1800 
     44 N          -3.6664  -14.3318  -43.7438 N.am      6 UNK        -0.5000 
     45 C          -3.3217  -14.2331  -45.0357 C.2       5 UNK         0.5000 
     46 O          -3.3995  -15.1646  -45.8340 O.2       5 UNK        -0.5000 
     47 CA         -2.7401  -12.8852  -45.5009 C.3       5 UNK         0.1400 
     48 CB         -3.8594  -11.9589  -45.9981 C.3       5 UNK        -0.1800 
     49 N          -1.9658  -12.2016  -44.4608 N.am      5 UNK        -0.5000 
     50 C          -0.8429  -12.6799  -43.9096 C.2       4 UNK         0.5000 
     51 O          -0.3299  -13.7592  -44.2198 O.2       4 UNK        -0.5000 
     52 CA         -0.2345  -11.8415  -42.7803 C.3       4 UNK         0.1400 
     53 CB         -0.9671  -12.1092  -41.4532 C.3       4 UNK        -0.1800 
     54 N           1.1764  -12.1792  -42.6340 N.am      4 UNK        -0.5000 
     55 C           2.1239  -11.3529  -42.1763 C.2       3 UNK         0.5000 
     56 O           1.8974  -10.1979  -41.8116 O.2       3 UNK        -0.5000 
     57 CA          3.5668  -11.8936  -42.0913 C.3       3 UNK         0.1400 
     58 CB          3.9476  -12.1672  -40.6273 C.3       3 UNK        -0.1800 
     59 N           3.8083  -13.1115  -42.8702 N.am      3 UNK        -0.5000 
     60 C           3.8655  -13.1698  -44.2059 C.2       2 UNK         0.5000 
     61 O           3.6805  -12.1993  -44.9462 O.2       2 UNK        -0.5000 
     62 CA          4.1763  -14.5489  -44.8059 C.3       2 UNK         0.1400 
     63 CB          3.0391  -15.5504  -44.5380 C.3       2 UNK        -0.1800 
     64 N           4.3756  -14.4031  -46.2401 N.am      2 UNK        -0.5000 
     65 C           5.0294  -15.2617  -47.0285 C.2       1 UNK         0.5000 
     66 O           5.5560  -16.2986  -46.6224 O.2       1 UNK        -0.5000 
     67 C           0.2004  -22.3605  -47.8711 C.2       11 UNK         0.5000 
     68 O           0.5495  -23.4985  -48.1779 O.2       11 UNK        -0.5000 
     69 N          -0.7261  -21.6601  -48.5342 N.am      12 UNK        -0.5000 
     70 CA         -1.4219  -22.1057  -49.7368 C.3       12 UNK         0.1400 
     71 CB         -2.2424  -20.9314  -50.2667 C.3       12 UNK        -0.1800 
     72 C          -2.3021  -23.3467  -49.5181 C.2       12 UNK         0.5000 
     73 O          -2.3262  -24.2310  -50.3779 O.2       12 UNK        -0.5000 
     74 N          -2.9787  -23.4080  -48.3634 N.am      13 UNK        -0.5000 
     75 CA         -3.7644  -24.5536  -47.9117 C.3       13 UNK         0.1400 
     76 CB         -4.5115  -24.1994  -46.6175 C.3       13 UNK        -0.1800 
     77 C          -2.9015  -25.8114  -47.7112 C.2       13 UNK         0.5000 
     78 O          -3.2977  -26.8922  -48.1455 O.2       13 UNK        -0.5000 
     79 N          -1.7267  -25.6456  -47.0899 N.am      14 UNK        -0.5000 
     80 CA         -0.7521  -26.7168  -46.8913 C.3       14 UNK         0.1400 
     81 CB          0.2965  -26.2680  -45.8618 C.3       14 UNK        -0.1800 
     82 C          -0.0776  -27.1560  -48.2045 C.2       14 UNK         0.5000 
     83 O           0.1023  -28.3548  -48.4223 O.2       14 UNK        -0.5000 
     84 N           0.2944  -26.1809  -49.0439 N.am      15 UNK        -0.5000 
     85 CA          1.0464  -26.3931  -50.2777 C.3       15 UNK         0.1400 
     86 CB          1.6584  -25.0616  -50.7419 C.3       15 UNK        -0.1800 
     87 C           0.2235  -27.0260  -51.4115 C.2       15 UNK         0.5000 
     88 O           0.7240  -27.9399  -52.0693 O.2       15 UNK        -0.5000 
     89 N          -0.9904  -26.5118  -51.6545 N.am      16 UNK        -0.5000 
     90 CA         -1.7575  -26.8179  -52.8672 C.3       16 UNK         0.1400 
     91 CB         -1.3992  -25.7775  -53.9468 C.3       16 UNK        -0.1800 
     92 C          -3.2782  -26.8861  -52.6453 C.2       16 UNK         0.5000 
     93 O          -4.0137  -26.9856  -53.6283 O.2       16 UNK        -0.5000 
     94 N          -3.7359  -26.8041  -51.3860 N.am      17 UNK        -0.5000 
     95 CA         -5.1451  -26.7023  -50.9725 C.3       17 UNK         0.1400 
     96 CB         -5.9393  -27.9681  -51.3579 C.3       17 UNK        -0.1800 
     97 C          -5.8333  -25.4008  -51.4456 C.2       17 UNK         0.5000 
     98 O          -7.0626  -25.3216  -51.4530 O.2       17 UNK        -0.5000 
     99 N          -5.0372  -24.3839  -51.8015 N.am      18 UNK        -0.5000 
    100 CA        -5.4778  -23.0947  -52.3327 C.3       18 UNK         0.1400 
    101 CB        -4.4277  -22.5968  -53.3410 C.3       18 UNK        -0.1800 
    102 C         -5.7497  -22.0967  -51.1915 C.2       18 UNK         0.5000 
    103 O         -5.2075  -20.9909  -51.1802 O.2       18 UNK        -0.5000 
    104 N         -6.5852  -22.5236  -50.2359 N.am      19 UNK        -0.5000 
    105 CA        -6.8824  -21.8462  -48.9706 C.3       19 UNK         0.1400 
    106 CB        -7.7713  -22.7675  -48.1216 C.3       19 UNK        -0.1800 
    107 C         -7.5209  -20.4481  -49.0995 C.2       19 UNK         0.5000 
    108 O         -7.5142  -19.6943  -48.1281 O.2       19 UNK        -0.5000 
    109 N         -8.0242  -20.0951  -50.2885 N.am      20 UNK        -0.5000 
    110 CA        -8.5673  -18.7796  -50.6389 C.3       20 UNK         0.1400 
    111 CB        -9.5332  -18.9547  -51.8250 C.3       20 UNK        -0.1800 
    112 C         -7.4700  -17.7219  -50.9192 C.2       20 UNK         0.5000 
    113 O         -7.6326  -16.9013  -51.8233 O.2       20 UNK        -0.5000 
    114 N         -6.3828  -17.7558  -50.1335 N.am      21 UNK        -0.5000 
    115 CA        -5.1919  -16.9031  -50.2051 C.3       21 UNK         0.1400 
    116 CB        -5.5330  -15.4502  -49.8125 C.3       21 UNK        -0.1800 
    117 C         -4.4538  -17.0214  -51.5548 C.2       21 UNK         0.5000 
    118 O         -4.2258  -16.0120  -52.2251 O.2       21 UNK        -0.5000 
    119 N         -4.0918  -18.2624  -51.9096 N.am      22 UNK        -0.5000 
    120 CA        -3.4075  -18.6614  -53.1527 C.3       22 UNK         0.1400 
    121 C         -4.3469  -18.6744  -54.3969 C.2       22 UNK         0.5000 
    122 N         -3.8625  -19.1323  -55.5446 N.am      22 UNK        -0.7600 
    123 O         -5.5179  -18.3064  -54.3448 O.2       22 UNK        -0.5000 
    124 C124       -2.0731  -17.9003  -53.4290 C.3       23 UNK        -0.0398 
    125 S125       -0.8755  -17.9278  -52.0468 S.3       23 UNK        -0.2404 
    126 C126        0.2731  -19.2329  -52.5911 C.3       23 UNK        -0.0205 
    127 H127        6.5989  -10.7790  -49.4636 H         1 UNK         0.0600 
    128 H128        5.8394  -10.5417  -47.8855 H         1 UNK         0.0600 
    129 H129        4.8539  -10.9802  -49.2836 H         1 UNK         0.0600 
    130 H130        4.2372  -13.1205  -49.2408 H         1 UNK         0.3000 
    131 H131        6.0547  -15.2932  -48.8967 H         1 UNK         0.0600 
    132 H132        3.9475  -16.7082  -49.0048 H         1 UNK         0.0800 
    133 H133        2.9919  -15.2544  -48.9943 H         1 UNK         0.0800 
    134 H134        5.0285  -17.1739  -52.5778 H         1 UNK         0.0800 
    135 H135        5.6722  -17.3609  -50.9649 H         1 UNK         0.0800 
    136 H136        2.3208  -17.4591  -52.6974 H         1 UNK         0.1150 
    137 H137        1.0975  -21.0449  -50.7047 H         1 UNK         0.1150 
    138 H138        4.9104  -19.3087  -49.8218 H         1 UNK         0.1150 
    139 H139        2.6357  -22.2746  -49.3697 H         1 UNK         0.0800 
    140 H140        4.3164  -21.8801  -49.5275 H         1 UNK         0.0800 
    141 H141        1.3496  -19.9217  -47.8784 H         1 UNK         0.0800 
    142 H142        1.8490  -19.8075  -46.2240 H         1 UNK         0.0800 
    143 H143        1.3924  -22.4196  -46.0919 H         1 UNK         0.0600 
    144 H144       -0.2761  -20.2413  -45.4980 H         1 UNK         0.3000 
    145 H145       -3.1829  -22.0046  -44.3868 H         1 UNK         0.0600 
    146 H146       -2.7518  -20.5561  -42.4086 H         1 UNK         0.0600 
    147 H147       -1.6743  -21.9441  -42.4300 H         1 UNK         0.0600 
    148 H148       -1.0698  -20.3627  -42.8976 H         1 UNK         0.0600 
    149 H149       -2.6394  -19.2212  -44.5646 H         1 UNK         0.3000 
    150 H150       -3.6985  -18.8246  -47.9808 H         1 UNK         0.0600 
    151 H151       -5.7434  -18.7655  -46.5046 H         1 UNK         0.0600 
    152 H152       -5.1766  -17.1584  -46.9363 H         1 UNK         0.0600 
    153 H153       -4.8573  -17.8117  -45.3328 H         1 UNK         0.0600 
    154 H154       -2.7229  -16.8968  -46.1470 H         1 UNK         0.3000 
    155 H155        0.7866  -17.3725  -46.7758 H         1 UNK         0.0600 
    156 H156       -0.0120  -15.8162  -48.5193 H         1 UNK         0.0600 
    157 H157        0.5628  -14.9144  -47.1234 H         1 UNK         0.0600 
    158 H158       -1.1679  -15.1011  -47.4047 H         1 UNK         0.0600 
    159 H159       -0.6265  -15.6502  -44.9766 H         1 UNK         0.3000 
    160 H160       -0.8264  -17.9701  -42.2542 H         1 UNK         0.0600 
    161 H161        0.8290  -15.4150  -42.5428 H         1 UNK         0.0600 
    162 H162        1.4550  -16.9906  -42.0589 H         1 UNK         0.0600 
    163 H163        0.2951  -16.1558  -41.0399 H         1 UNK         0.0600 
    164 H164       -1.5972  -15.2048  -42.7496 H         1 UNK         0.3000 
    165 H165       -4.9416  -15.9758  -43.6851 H         1 UNK         0.0600 
    166 H166       -5.4773  -14.5382  -41.7371 H         1 UNK         0.0600 
    167 H167       -5.0037  -16.1392  -41.1922 H         1 UNK         0.0600 
    168 H168       -3.8686  -14.8007  -41.0627 H         1 UNK         0.0600 
    169 H169       -3.5802  -13.5143  -43.1588 H         1 UNK         0.3000 
    170 H170       -2.0685  -13.0872  -46.3375 H         1 UNK         0.0600 
    171 H171       -4.4383  -12.4369  -46.7897 H         1 UNK         0.0600 
    172 H172       -4.5520  -11.6965  -45.1973 H         1 UNK         0.0600 
    173 H173       -3.4532  -11.0341  -46.4083 H         1 UNK         0.0600 
    174 H174       -2.3270  -11.3129  -44.1448 H         1 UNK         0.3000 
    175 H175       -0.3336  -10.7877  -43.0496 H         1 UNK         0.0600 
    176 H176       -0.8856  -13.1550  -41.1535 H         1 UNK         0.0600 
    177 H177       -0.5583  -11.4995  -40.6473 H         1 UNK         0.0600 
    178 H178       -2.0282  -11.8695  -41.5310 H         1 UNK         0.0600 
    179 H179        1.4328  -13.0936  -42.9806 H         1 UNK         0.3000 
    180 H180        4.2263  -11.1112  -42.4732 H         1 UNK         0.0600 
    181 H181        3.3295  -12.9534  -40.1917 H         1 UNK         0.0600 
    182 H182        3.8206  -11.2733  -40.0151 H         1 UNK         0.0600 
    183 H183        4.9909  -12.4714  -40.5402 H         1 UNK         0.0600 
    184 H184        3.9687  -13.9539  -42.3369 H         1 UNK         0.3000 
    185 H185        5.1015  -14.9134  -44.3544 H         1 UNK         0.0600 
    186 H186        2.9710  -15.7736  -43.4748 H         1 UNK         0.0600 
    187 H187        2.0758  -15.1575  -44.8646 H         1 UNK         0.0600 
    188 H188        3.2024  -16.4992  -45.0493 H         1 UNK         0.0600 
    189 H189        4.0292  -13.5315  -46.6218 H         1 UNK         0.3000 
    190 H190       -0.9380  -20.7174  -48.2162 H         1 UNK         0.3000 
    191 H191       -0.6724  -22.3690  -50.4837 H         1 UNK         0.0600 
    192 H192       -1.6406  -20.0271  -50.3235 H         1 UNK         0.0600 
    193 H193       -2.6100  -21.1424  -51.2671 H         1 UNK         0.0600 
    194 H194       -3.0971  -20.7129  -49.6264 H         1 UNK         0.0600 
    195 H195       -2.9661  -22.5971  -47.7491 H         1 UNK         0.3000 
    196 H196       -4.5074  -24.7632  -48.6814 H         1 UNK         0.0600 
    197 H197       -3.8229  -23.9826  -45.8010 H         1 UNK         0.0600 
    198 H198       -5.1503  -25.0237  -46.2982 H         1 UNK         0.0600 
    199 H199       -5.1498  -23.3273  -46.7517 H         1 UNK         0.0600 
    200 H200       -1.4778  -24.7277  -46.7355 H         1 UNK         0.3000 
    201 H201       -1.2764  -27.5824  -46.4809 H         1 UNK         0.0600 
    202 H202       -0.1691  -26.0286  -44.9056 H         1 UNK         0.0600 
    203 H203        0.8397  -25.3838  -46.1972 H         1 UNK         0.0600 
    204 H204        1.0288  -27.0555  -45.6803 H         1 UNK         0.0600 
    205 H205        0.1692  -25.2139  -48.7520 H         1 UNK         0.3000 
    206 H206        1.8711  -27.0732  -50.0535 H         1 UNK         0.0600 
    207 H207        2.3473  -24.6668  -49.9953 H         1 UNK         0.0600 
    208 H208        2.2220  -25.1888  -51.6670 H         1 UNK         0.0600 
    209 H209        0.8924  -24.3071  -50.9242 H         1 UNK         0.0600 
    210 H210       -1.3319  -25.7426  -51.0841 H         1 UNK         0.3000 
    211 H211       -1.4822  -27.8060  -53.2414 H         1 UNK         0.0600 
    212 H212       -1.6771  -24.7697  -53.6351 H         1 UNK         0.0600 
    213 H213       -1.9114  -25.9849  -54.8871 H         1 UNK         0.0600 
    214 H214       -0.3299  -25.7791  -54.1590 H         1 UNK         0.0600 
    215 H215       -3.0607  -26.7417  -50.6359 H         1 UNK         0.3000 
    216 H216       -5.1476  -26.6558  -49.8856 H         1 UNK         0.0600 
    217 H217       -6.9256  -27.9656  -50.8927 H         1 UNK         0.0600 
    218 H218       -5.4280  -28.8708  -51.0238 H         1 UNK         0.0600 
    219 H219       -6.0910  -28.0455  -52.4346 H         1 UNK         0.0600 
    220 H220       -4.0395  -24.4946  -51.6659 H         1 UNK         0.3000 
    221 H221       -6.4169  -23.2242  -52.8746 H         1 UNK         0.0600 
    222 H222       -3.4436  -22.4933  -52.8859 H         1 UNK         0.0600 
    223 H223       -4.3313  -23.2910  -54.1761 H         1 UNK         0.0600 
    224 H224       -4.7103  -21.6301  -53.7580 H         1 UNK         0.0600 
    225 H225       -6.9996  -23.4391  -50.3628 H         1 UNK         0.3000 
    226 H226       -5.9325  -21.7101  -48.4495 H         1 UNK         0.0600 
    227 H227       -7.3012  -23.7383  -47.9638 H         1 UNK         0.0600 
    228 H228       -7.9575  -22.3346  -47.1378 H         1 UNK         0.0600 
    229 H229       -8.7389  -22.9375  -48.5953 H         1 UNK         0.0600 
    230 H230       -7.9452  -20.7598  -51.0434 H         1 UNK         0.3000 
    231 H231       -9.1495  -18.4096  -49.7925 H         1 UNK         0.0600 
    232 H232       -9.0095  -19.2895  -52.7214 H         1 UNK         0.0600 
    233 H233      -10.0349  -18.0170  -52.0670 H         1 UNK         0.0600 
    234 H234      -10.3106  -19.6842  -51.5972 H         1 UNK         0.0600 
    235 H235       -6.3823  -18.4555  -49.4017 H         1 UNK         0.3000 
    236 H236       -4.4973  -17.2770  -49.4544 H         1 UNK         0.0600 
    237 H237       -6.0034  -15.4081  -48.8301 H         1 UNK         0.0600 
    238 H238       -4.6310  -14.8389  -49.7648 H         1 UNK         0.0600 
    239 H239       -6.2081  -14.9819  -50.5291 H         1 UNK         0.0600 
    240 H240       -4.4129  -19.0409  -51.3448 H         1 UNK         0.3000 
    241 H241       -3.1510  -19.7079  -52.9946 H         1 UNK         0.0600 
    242 H242       -2.9185  -19.4731  -55.6338 H         1 UNK         0.3800 
    243 H243       -4.4684  -19.1512  -56.3502 H         1 UNK         0.3800 
    244 H244       -1.5805  -18.3046  -54.3134 H         1 UNK         0.0800 
    245 H245       -2.2747  -16.8567  -53.6721 H         1 UNK         0.0800 
    246 H246        0.5319  -19.0807  -53.6398 H         1 UNK         0.0800 
    247 H247       -0.2285  -20.1999  -52.5337 H         1 UNK         0.0800 
@<TRIPOS>BOND
     1    1    2 1    
     2    1  127 1    
     3    1  128 1    
     4    1  129 1    
     5    2    3 2    
     6    2    4 am   BACKBONE|DICT|INTERRES
     7    4    5 1    
     8    4  130 1    
     9    5    6 1    
    10    5   65 1    
    11    5  131 1    
    12    6    7 1    
    13    6  132 1    
    14    6  133 1    
    15    7    8 1    
    16    8    9 1    
    17    8  134 1    
    18    8  135 1    
    19    9   10 ar   
    20    9   14 ar   
    21   10   11 ar   
    22   10  136 1    
    23   11   12 ar   
    24   11  126 1    
    25   12   13 ar   
    26   12  137 1    
    27   13   14 ar   
    28   13   15 1    
    29   14  138 1    
    30   15   16 1    
    31   15  139 1    
    32   15  140 1    
    33   16   17 1    
    34   17   18 1    
    35   17  141 1    
    36   17  142 1    
    37   18   19 1    
    38   18   67 1    
    39   18  143 1    
    40   19   20 am   BACKBONE|DICT|INTERRES
    41   19  144 1    
    42   20   21 2    
    43   20   22 1    
    44   22   23 1    
    45   22   24 1    
    46   22  145 1    
    47   23  146 1    
    48   23  147 1    
    49   23  148 1    
    50   24   25 am   BACKBONE|DICT|INTERRES
    51   24  149 1    
    52   25   26 2    
    53   25   27 1    
    54   27   28 1    
    55   27   29 1    
    56   27  150 1    
    57   28  151 1    
    58   28  152 1    
    59   28  153 1    
    60   29   30 am   BACKBONE|DICT|INTERRES
    61   29  154 1    
    62   30   31 2    
    63   30   32 1    
    64   32   33 1    
    65   32   34 1    
    66   32  155 1    
    67   33  156 1    
    68   33  157 1    
    69   33  158 1    
    70   34   35 am   BACKBONE|DICT|INTERRES
    71   34  159 1    
    72   35   36 2    
    73   35   37 1    
    74   37   38 1    
    75   37   39 1    
    76   37  160 1    
    77   38  161 1    
    78   38  162 1    
    79   38  163 1    
    80   39   40 am   BACKBONE|DICT|INTERRES
    81   39  164 1    
    82   40   41 2    
    83   40   42 1    
    84   42   43 1    
    85   42   44 1    
    86   42  165 1    
    87   43  166 1    
    88   43  167 1    
    89   43  168 1    
    90   44   45 am   BACKBONE|DICT|INTERRES
    91   44  169 1    
    92   45   46 2    
    93   45   47 1    
    94   47   48 1    
    95   47   49 1    
    96   47  170 1    
    97   48  171 1    
    98   48  172 1    
    99   48  173 1    
   100   49   50 am   BACKBONE|DICT|INTERRES
   101   49  174 1    
   102   50   51 2    
   103   50   52 1    
   104   52   53 1    
   105   52   54 1    
   106   52  175 1    
   107   53  176 1    
   108   53  177 1    
   109   53  178 1    
   110   54   55 am   BACKBONE|DICT|INTERRES
   111   54  179 1    
   112   55   56 2    
   113   55   57 1    
   114   57   58 1    
   115   57   59 1    
   116   57  180 1    
   117   58  181 1    
   118   58  182 1    
   119   58  183 1    
   120   59   60 am   BACKBONE|DICT|INTERRES
   121   59  184 1    
   122   60   61 2    
   123   60   62 1    
   124   62   63 1    
   125   62   64 1    
   126   62  185 1    
   127   63  186 1    
   128   63  187 1    
   129   63  188 1    
   130   64   65 am   BACKBONE|DICT|INTERRES
   131   64  189 1    
   132   65   66 2    
   133   67   68 2    
   134   67   69 am   BACKBONE|DICT|INTERRES
   135   69   70 1    
   136   69  190 1    
   137   70   71 1    
   138   70   72 1    
   139   70  191 1    
   140   71  192 1    
   141   71  193 1    
   142   71  194 1    
   143   72   73 2    
   144   72   74 am   BACKBONE|DICT|INTERRES
   145   74   75 1    
   146   74  195 1    
   147   75   76 1    
   148   75   77 1    
   149   75  196 1    
   150   76  197 1    
   151   76  198 1    
   152   76  199 1    
   153   77   78 2    
   154   77   79 am   BACKBONE|DICT|INTERRES
   155   79   80 1    
   156   79  200 1    
   157   80   81 1    
   158   80   82 1    
   159   80  201 1    
   160   81  202 1    
   161   81  203 1    
   162   81  204 1    
   163   82   83 2    
   164   82   84 am   BACKBONE|DICT|INTERRES
   165   84   85 1    
   166   84  205 1    
   167   85   86 1    
   168   85   87 1    
   169   85  206 1    
   170   86  207 1    
   171   86  208 1    
   172   86  209 1    
   173   87   88 2    
   174   87   89 am   BACKBONE|DICT|INTERRES
   175   89   90 1    
   176   89  210 1    
   177   90   91 1    
   178   90   92 1    
   179   90  211 1    
   180   91  212 1    
   181   91  213 1    
   182   91  214 1    
   183   92   93 2    
   184   92   94 am   BACKBONE|DICT|INTERRES
   185   94   95 1    
   186   94  215 1    
   187   95   96 1    
   188   95   97 1    
   189   95  216 1    
   190   96  217 1    
   191   96  218 1    
   192   96  219 1    
   193   97   98 2    
   194   97   99 am   BACKBONE|DICT|INTERRES
   195   99  100 1    
   196   99  220 1    
   197  100  101 1    
   198  100  102 1    
   199  100  221 1    
   200  101  222 1    
   201  101  223 1    
   202  101  224 1    
   203  102  103 2    
   204  102  104 am   BACKBONE|DICT|INTERRES
   205  104  105 1    
   206  104  225 1    
   207  105  106 1    
   208  105  107 1    
   209  105  226 1    
   210  106  227 1    
   211  106  228 1    
   212  106  229 1    
   213  107  108 2    
   214  107  109 am   BACKBONE|DICT|INTERRES
   215  109  110 1    
   216  109  230 1    
   217  110  111 1    
   218  110  112 1    
   219  110  231 1    
   220  111  232 1    
   221  111  233 1    
   222  111  234 1    
   223  112  113 2    
   224  112  114 am   BACKBONE|DICT|INTERRES
   225  114  115 1    
   226  114  235 1    
   227  115  116 1    
   228  115  117 1    
   229  115  236 1    
   230  116  237 1    
   231  116  238 1    
   232  116  239 1    
   233  117  118 2    
   234  117  119 am   BACKBONE|DICT|INTERRES
   235  119  120 1    
   236  119  240 1    
   237  120  121 1    
   238  120  124 1    
   239  120  241 1    
   240  121  122 am   BACKBONE|DICT|INTERRES
   241  121  123 2    
   242  122  242 1    
   243  122  243 1    
   244  124  125 1    
   245  124  244 1    
   246  124  245 1    
   247  125  126 1    
   248  126  246 1    
   249  126  247 1    
@<TRIPOS>SUBSTRUCTURE
     1 UNK         1 GROUP             0       ****    0 ROOT    
