@<TRIPOS>MOLECULE
3R540
247   249    1
SMALL
USER_CHARGES


@<TRIPOS>ATOM
      1 CA          1.8600  -10.8238  -47.3169 C.3       0 UNK        -0.1800 
      2 C           1.7016  -12.3245  -47.5119 C.2       0 UNK         0.5000 
      3 O           2.6061  -13.0844  -47.1673 O.2       0 UNK        -0.5000 
      4 N           0.5483  -12.7548  -48.0415 N.am      1 UNK        -0.5000 
      5 CA          0.2078  -14.1499  -48.3650 C.3       1 UNK         0.1400 
      6 C6         -1.1538  -14.2429  -49.0967 C.3       23 UNK        -0.0398 
      7 S7         -1.0869  -13.5016  -50.7638 S.3       23 UNK        -0.2404 
      8 C8         -2.0150  -14.7274  -51.7503 C.3       23 UNK        -0.0205 
      9 C9         -1.1855  -15.8897  -52.2998 C.ar      23 UNK        -0.0193 
     10 C10        -1.5128  -16.4176  -53.5526 C.ar      23 UNK        -0.1150 
     11 C11        -0.8214  -17.5105  -54.0845 C.ar      23 UNK        -0.0193 
     12 C12         0.2207  -18.0795  -53.3394 C.ar      23 UNK        -0.1150 
     13 C13         0.5654  -17.5655  -52.0862 C.ar      23 UNK        -0.0193 
     14 C14        -0.1409  -16.4745  -51.5745 C.ar      23 UNK        -0.1150 
     15 C15         1.7031  -18.1819  -51.2805 C.3       23 UNK        -0.0205 
     16 S16         1.2627  -19.7890  -50.5413 S.3       23 UNK        -0.2404 
     17 C17        -0.1286  -19.3309  -49.4556 C.3       23 UNK        -0.0398 
     18 CA         -0.7635  -20.5563  -48.7566 C.3       11 UNK         0.1400 
     19 N           0.1807  -21.2609  -47.8863 N.am      11 UNK        -0.5000 
     20 C          -0.0741  -22.3818  -47.1939 C.2       10 UNK         0.5000 
     21 O          -1.1475  -22.9824  -47.2365 O.2       10 UNK        -0.5000 
     22 CA          1.0422  -22.8854  -46.2577 C.3       10 UNK         0.1400 
     23 CB          1.8707  -23.9772  -46.9501 C.3       10 UNK        -0.1800 
     24 N           1.9344  -21.8114  -45.8086 N.am      10 UNK        -0.5000 
     25 C           1.5558  -20.7929  -45.0250 C.2       9 UNK         0.5000 
     26 O           0.4250  -20.6791  -44.5464 O.2       9 UNK        -0.5000 
     27 CA          2.5789  -19.6608  -44.8448 C.3       9 UNK         0.1400 
     28 CB          2.2501  -18.5304  -45.8286 C.3       9 UNK        -0.1800 
     29 N           2.5776  -19.1356  -43.4807 N.am      9 UNK        -0.5000 
     30 C           3.0798  -19.7920  -42.4261 C.2       8 UNK         0.5000 
     31 O           3.6419  -20.8853  -42.5085 O.2       8 UNK        -0.5000 
     32 CA          2.9453  -19.1199  -41.0469 C.3       8 UNK         0.1400 
     33 CB          4.1800  -18.2588  -40.7380 C.3       8 UNK        -0.1800 
     34 N           1.7484  -18.2919  -40.9175 N.am      8 UNK        -0.5000 
     35 C           0.4950  -18.7556  -40.8405 C.2       7 UNK         0.5000 
     36 O           0.1984  -19.9514  -40.8570 O.2       7 UNK        -0.5000 
     37 CA         -0.5847  -17.6731  -40.6610 C.3       7 UNK         0.1400 
     38 CB         -2.0281  -18.2175  -40.7027 C.3       7 UNK        -0.1800 
     39 N          -0.3353  -16.8832  -39.4495 N.am      7 UNK        -0.5000 
     40 C          -0.3626  -17.3117  -38.1752 C.2       6 UNK         0.5000 
     41 O          -0.7002  -18.4485  -37.8431 O.2       6 UNK        -0.5000 
     42 CA          0.0826  -16.3276  -37.0693 C.3       6 UNK         0.1400 
     43 CB          1.3552  -16.8418  -36.3754 C.3       6 UNK        -0.1800 
     44 N           0.3442  -14.9719  -37.5506 N.am      6 UNK        -0.5000 
     45 C          -0.5828  -14.0679  -37.8927 C.2       5 UNK         0.5000 
     46 O          -1.7931  -14.2426  -37.7504 O.2       5 UNK        -0.5000 
     47 CA         -0.0684  -12.7595  -38.5324 C.3       5 UNK         0.1400 
     48 CB         -0.0860  -11.6169  -37.5054 C.3       5 UNK        -0.1800 
     49 N           1.2787  -12.8562  -39.1138 N.am      5 UNK        -0.5000 
     50 C           1.6285  -13.6731  -40.1160 C.2       4 UNK         0.5000 
     51 O           0.8533  -14.4743  -40.6453 O.2       4 UNK        -0.5000 
     52 CA          3.0971  -13.6330  -40.5568 C.3       4 UNK         0.1400 
     53 CB          3.9820  -14.4347  -39.5866 C.3       4 UNK        -0.1800 
     54 N           3.1808  -14.2134  -41.8889 N.am      4 UNK        -0.5000 
     55 C           4.0827  -13.9335  -42.8311 C.2       3 UNK         0.5000 
     56 O           5.0356  -13.1738  -42.6525 O.2       3 UNK        -0.5000 
     57 CA          3.8811  -14.5782  -44.2193 C.3       3 UNK         0.1400 
     58 CB          4.6560  -15.9042  -44.3343 C.3       3 UNK        -0.1800 
     59 N           2.4771  -14.7178  -44.6425 N.am      3 UNK        -0.5000 
     60 C           1.5016  -15.4813  -44.1241 C.2       2 UNK         0.5000 
     61 O           1.6798  -16.2899  -43.2118 O.2       2 UNK        -0.5000 
     62 CA          0.0761  -15.2927  -44.6779 C.3       2 UNK         0.1400 
     63 CB         -0.8006  -14.5500  -43.6579 C.3       2 UNK        -0.1800 
     64 N           0.0365  -14.5545  -45.9392 N.am      2 UNK        -0.5000 
     65 C           0.2135  -15.1011  -47.1488 C.2       1 UNK         0.5000 
     66 O           0.3728  -16.3064  -47.3358 O.2       1 UNK        -0.5000 
     67 C          -2.0464  -20.1301  -48.0171 C.2       11 UNK         0.5000 
     68 O          -3.1180  -20.1855  -48.6166 O.2       11 UNK        -0.5000 
     69 N          -1.9331  -19.7458  -46.7365 N.am      12 UNK        -0.5000 
     70 CA         -3.0699  -19.3677  -45.8953 C.3       12 UNK         0.1400 
     71 CB         -2.5639  -18.7231  -44.5973 C.3       12 UNK        -0.1800 
     72 C          -3.9939  -20.5596  -45.5922 C.2       12 UNK         0.5000 
     73 O          -5.2126  -20.4300  -45.7111 O.2       12 UNK        -0.5000 
     74 N          -3.3941  -21.7106  -45.2569 N.am      13 UNK        -0.5000 
     75 CA         -4.0964  -22.9729  -45.0102 C.3       13 UNK         0.1400 
     76 CB         -3.1190  -23.9868  -44.3964 C.3       13 UNK        -0.1800 
     77 C          -4.7489  -23.5426  -46.2841 C.2       13 UNK         0.5000 
     78 O          -5.8413  -24.1054  -46.2145 O.2       13 UNK        -0.5000 
     79 N          -4.0823  -23.3441  -47.4277 N.am      14 UNK        -0.5000 
     80 CA         -4.5411  -23.7210  -48.7643 C.3       14 UNK         0.1400 
     81 CB         -3.3039  -24.0187  -49.6265 C.3       14 UNK        -0.1800 
     82 C          -5.4803  -22.6813  -49.4211 C.2       14 UNK         0.5000 
     83 O          -5.7745  -22.8171  -50.6103 O.2       14 UNK        -0.5000 
     84 N          -5.9390  -21.6823  -48.6482 N.am      15 UNK        -0.5000 
     85 CA         -6.9151  -20.6424  -48.9959 C.3       15 UNK         0.1400 
     86 CB         -8.2964  -21.2709  -49.2769 C.3       15 UNK        -0.1800 
     87 C          -6.4299  -19.7308  -50.1393 C.2       15 UNK         0.5000 
     88 O          -6.9936  -19.7516  -51.2330 O.2       15 UNK        -0.5000 
     89 N          -5.3487  -18.9837  -49.8726 N.am      16 UNK        -0.5000 
     90 CA         -4.5734  -18.1746  -50.8266 C.3       16 UNK         0.1400 
     91 CB         -5.4046  -16.9956  -51.3742 C.3       16 UNK        -0.1800 
     92 C          -3.9501  -19.0496  -51.9343 C.2       16 UNK         0.5000 
     93 O          -3.8951  -18.6495  -53.0968 O.2       16 UNK        -0.5000 
     94 N          -3.5483  -20.2637  -51.5315 N.am      17 UNK        -0.5000 
     95 CA         -3.0486  -21.3723  -52.3447 C.3       17 UNK         0.1400 
     96 CB         -1.6307  -21.0808  -52.8587 C.3       17 UNK        -0.1800 
     97 C          -3.9999  -21.8422  -53.4635 C.2       17 UNK         0.5000 
     98 O          -3.5449  -22.5235  -54.3826 O.2       17 UNK        -0.5000 
     99 N          -5.3005  -21.5279  -53.3641 N.am      18 UNK        -0.5000 
    100 CA        -6.3313  -21.9327  -54.3218 C.3       18 UNK         0.1400 
    101 CB        -7.6575  -21.2385  -53.9848 C.3       18 UNK        -0.1800 
    102 C         -6.5231  -23.4571  -54.3819 C.2       18 UNK         0.5000 
    103 O         -6.7626  -23.9919  -55.4646 O.2       18 UNK        -0.5000 
    104 N         -6.3438  -24.1370  -53.2394 N.am      19 UNK        -0.5000 
    105 CA        -6.3658  -25.5986  -53.1308 C.3       19 UNK         0.1400 
    106 CB        -6.3859  -25.9896  -51.6453 C.3       19 UNK        -0.1800 
    107 C         -5.1897  -26.2879  -53.8563 C.2       19 UNK         0.5000 
    108 O         -5.2979  -27.4670  -54.1945 O.2       19 UNK        -0.5000 
    109 N         -4.1008  -25.5432  -54.0893 N.am      20 UNK        -0.5000 
    110 CA        -2.9041  -25.9807  -54.8082 C.3       20 UNK         0.1400 
    111 CB        -1.6766  -25.5977  -53.9628 C.3       20 UNK        -0.1800 
    112 C         -2.8061  -25.3512  -56.2134 C.2       20 UNK         0.5000 
    113 O         -1.8105  -25.5816  -56.9012 O.2       20 UNK        -0.5000 
    114 N         -3.7963  -24.5290  -56.5997 N.am      21 UNK        -0.5000 
    115 CA        -3.8518  -23.7024  -57.8142 C.3       21 UNK         0.1400 
    116 CB        -4.0729  -24.5917  -59.0547 C.3       21 UNK        -0.1800 
    117 C         -2.6411  -22.7492  -57.9678 C.2       21 UNK         0.5000 
    118 O         -2.2062  -22.4752  -59.0878 O.2       21 UNK        -0.5000 
    119 N         -2.1025  -22.2860  -56.8316 N.am      22 UNK        -0.5000 
    120 CA        -0.8406  -21.5389  -56.7006 C.3       22 UNK         0.1400 
    121 C          0.4438  -22.3466  -57.0803 C.2       22 UNK         0.5000 
    122 N          0.3950  -23.6690  -57.1979 N.am      22 UNK        -0.7600 
    123 O          1.5181  -21.7765  -57.2474 O.2       22 UNK        -0.5000 
    124 C124       -0.9076  -20.1255  -57.3521 C.3       23 UNK        -0.0398 
    125 S125        0.0403  -18.8772  -56.4092 S.3       23 UNK        -0.2404 
    126 C126       -1.2800  -18.0895  -55.4249 C.3       23 UNK        -0.0205 
    127 H127        0.9790  -10.2757  -47.6515 H         1 UNK         0.0600 
    128 H128        2.7200  -10.4621  -47.8805 H         1 UNK         0.0600 
    129 H129        2.0221  -10.5976  -46.2630 H         1 UNK         0.0600 
    130 H130       -0.1476  -12.0727  -48.3086 H         1 UNK         0.3000 
    131 H131        0.9867  -14.5174  -49.0362 H         1 UNK         0.0600 
    132 H132       -1.9339  -13.7397  -48.5229 H         1 UNK         0.0800 
    133 H133       -1.4786  -15.2813  -49.1864 H         1 UNK         0.0800 
    134 H134       -2.4737  -14.1872  -52.5800 H         1 UNK         0.0800 
    135 H135       -2.8403  -15.1249  -51.1591 H         1 UNK         0.0800 
    136 H136       -2.3360  -15.9924  -54.1097 H         1 UNK         0.1150 
    137 H137        0.7554  -18.9386  -53.7180 H         1 UNK         0.1150 
    138 H138        0.1297  -16.0943  -50.6032 H         1 UNK         0.1150 
    139 H139        2.5669  -18.3208  -51.9321 H         1 UNK         0.0800 
    140 H140        2.0270  -17.5041  -50.4888 H         1 UNK         0.0800 
    141 H141       -0.8772  -18.8227  -50.0662 H         1 UNK         0.0800 
    142 H142        0.2230  -18.6028  -48.7228 H         1 UNK         0.0800 
    143 H143       -1.0680  -21.2636  -49.5304 H         1 UNK         0.0600 
    144 H144        1.1010  -20.8551  -47.8119 H         1 UNK         0.3000 
    145 H145        0.5629  -23.3211  -45.3784 H         1 UNK         0.0600 
    146 H146        2.6195  -24.3922  -46.2752 H         1 UNK         0.0600 
    147 H147        1.2347  -24.8021  -47.2746 H         1 UNK         0.0600 
    148 H148        2.3865  -23.5942  -47.8316 H         1 UNK         0.0600 
    149 H149        2.8785  -21.8331  -46.1669 H         1 UNK         0.3000 
    150 H150        3.5792  -20.0367  -45.0699 H         1 UNK         0.0600 
    151 H151        2.2780  -18.8812  -46.8609 H         1 UNK         0.0600 
    152 H152        2.9605  -17.7109  -45.7508 H         1 UNK         0.0600 
    153 H153        1.2531  -18.1290  -45.6474 H         1 UNK         0.0600 
    154 H154        2.1296  -18.2377  -43.3297 H         1 UNK         0.3000 
    155 H155        2.8905  -19.9148  -40.3001 H         1 UNK         0.0600 
    156 H156        4.2451  -17.3938  -41.3989 H         1 UNK         0.0600 
    157 H157        5.0994  -18.8338  -40.8560 H         1 UNK         0.0600 
    158 H158        4.1568  -17.8953  -39.7107 H         1 UNK         0.0600 
    159 H159        1.8860  -17.2917  -40.9474 H         1 UNK         0.3000 
    160 H160       -0.4733  -16.9912  -41.5034 H         1 UNK         0.0600 
    161 H161       -2.2222  -18.9374  -39.9078 H         1 UNK         0.0600 
    162 H162       -2.2220  -18.7242  -41.6477 H         1 UNK         0.0600 
    163 H163       -2.7549  -17.4106  -40.6105 H         1 UNK         0.0600 
    164 H164       -0.0170  -15.9354  -39.6260 H         1 UNK         0.3000 
    165 H165       -0.7192  -16.2849  -36.3293 H         1 UNK         0.0600 
    166 H166        2.1914  -16.9139  -37.0722 H         1 UNK         0.0600 
    167 H167        1.6532  -16.1842  -35.5585 H         1 UNK         0.0600 
    168 H168        1.1976  -17.8333  -35.9487 H         1 UNK         0.0600 
    169 H169        1.3122  -14.7289  -37.6981 H         1 UNK         0.3000 
    170 H170       -0.7583  -12.5050  -39.3397 H         1 UNK         0.0600 
    171 H171        0.6079  -11.8036  -36.6848 H         1 UNK         0.0600 
    172 H172        0.1848  -10.6669  -37.9663 H         1 UNK         0.0600 
    173 H173       -1.0800  -11.4940  -37.0731 H         1 UNK         0.0600 
    174 H174        1.9769  -12.2416  -38.7199 H         1 UNK         0.3000 
    175 H175        3.4242  -12.5917  -40.5890 H         1 UNK         0.0600 
    176 H176        3.6481  -15.4692  -39.5019 H         1 UNK         0.0600 
    177 H177        5.0212  -14.4454  -39.9156 H         1 UNK         0.0600 
    178 H178        3.9642  -14.0000  -38.5867 H         1 UNK         0.0600 
    179 H179        2.4160  -14.8404  -42.1248 H         1 UNK         0.3000 
    180 H180        4.3269  -13.8859  -44.9353 H         1 UNK         0.0600 
    181 H181        4.6900  -16.2463  -45.3680 H         1 UNK         0.0600 
    182 H182        4.2176  -16.6950  -43.7274 H         1 UNK         0.0600 
    183 H183        5.6890  -15.7813  -44.0068 H         1 UNK         0.0600 
    184 H184        2.2292  -14.1171  -45.4212 H         1 UNK         0.3000 
    185 H185       -0.3424  -16.2875  -44.8299 H         1 UNK         0.0600 
    186 H186       -1.8238  -14.4454  -44.0189 H         1 UNK         0.0600 
    187 H187       -0.8487  -15.0865  -42.7113 H         1 UNK         0.0600 
    188 H188       -0.4144  -13.5523  -43.4450 H         1 UNK         0.0600 
    189 H189       -0.0986  -13.5556  -45.8795 H         1 UNK         0.3000 
    190 H190       -1.0257  -19.7689  -46.2919 H         1 UNK         0.3000 
    191 H191       -3.6573  -18.6214  -46.4346 H         1 UNK         0.0600 
    192 H192       -3.3957  -18.4410  -43.9506 H         1 UNK         0.0600 
    193 H193       -1.9982  -17.8179  -44.8077 H         1 UNK         0.0600 
    194 H194       -1.9211  -19.3988  -44.0322 H         1 UNK         0.0600 
    195 H195       -2.3851  -21.7365  -45.2173 H         1 UNK         0.3000 
    196 H196       -4.8910  -22.7825  -44.2857 H         1 UNK         0.0600 
    197 H197       -2.2931  -24.2127  -45.0716 H         1 UNK         0.0600 
    198 H198       -2.6967  -23.6126  -43.4636 H         1 UNK         0.0600 
    199 H199       -3.6240  -24.9268  -44.1705 H         1 UNK         0.0600 
    200 H200       -3.1584  -22.9267  -47.3734 H         1 UNK         0.3000 
    201 H201       -5.1176  -24.6451  -48.6899 H         1 UNK         0.0600 
    202 H202       -2.6289  -23.1644  -49.6591 H         1 UNK         0.0600 
    203 H203       -3.5733  -24.2806  -50.6499 H         1 UNK         0.0600 
    204 H204       -2.7424  -24.8599  -49.2195 H         1 UNK         0.0600 
    205 H205       -5.5942  -21.6405  -47.6983 H         1 UNK         0.3000 
    206 H206       -7.0187  -20.0090  -48.1135 H         1 UNK         0.0600 
    207 H207       -8.6372  -21.8660  -48.4297 H         1 UNK         0.0600 
    208 H208       -9.0456  -20.4987  -49.4546 H         1 UNK         0.0600 
    209 H209       -8.2813  -21.9173  -50.1551 H         1 UNK         0.0600 
    210 H210       -4.8912  -19.1350  -48.9811 H         1 UNK         0.3000 
    211 H211       -3.7358  -17.7553  -50.2672 H         1 UNK         0.0600 
    212 H212       -4.7931  -16.3434  -51.9982 H         1 UNK         0.0600 
    213 H213       -5.8071  -16.3877  -50.5642 H         1 UNK         0.0600 
    214 H214       -6.2397  -17.3353  -51.9871 H         1 UNK         0.0600 
    215 H215       -3.6440  -20.4582  -50.5402 H         1 UNK         0.3000 
    216 H216       -2.9695  -22.2195  -51.6706 H         1 UNK         0.0600 
    217 H217       -1.6358  -20.2998  -53.6136 H         1 UNK         0.0600 
    218 H218       -1.1794  -21.9690  -53.3015 H         1 UNK         0.0600 
    219 H219       -0.9788  -20.7590  -52.0503 H         1 UNK         0.0600 
    220 H220       -5.6165  -20.9979  -52.5608 H         1 UNK         0.3000 
    221 H221       -6.0128  -21.5985  -55.3113 H         1 UNK         0.0600 
    222 H222       -7.5459  -20.1540  -53.9838 H         1 UNK         0.0600 
    223 H223       -8.0290  -21.5390  -53.0041 H         1 UNK         0.0600 
    224 H224       -8.4263  -21.4865  -54.7176 H         1 UNK         0.0600 
    225 H225       -6.1501  -23.6169  -52.3869 H         1 UNK         0.3000 
    226 H226       -7.2896  -25.9557  -53.5904 H         1 UNK         0.0600 
    227 H227       -5.4721  -25.6829  -51.1372 H         1 UNK         0.0600 
    228 H228       -7.2279  -25.5309  -51.1264 H         1 UNK         0.0600 
    229 H229       -6.4795  -27.0698  -51.5270 H         1 UNK         0.0600 
    230 H230       -4.1104  -24.5712  -53.8083 H         1 UNK         0.3000 
    231 H231       -2.9077  -27.0646  -54.9378 H         1 UNK         0.0600 
    232 H232       -1.5931  -24.5171  -53.8406 H         1 UNK         0.0600 
    233 H233       -0.7534  -25.9476  -54.4263 H         1 UNK         0.0600 
    234 H234       -1.7279  -26.0437  -52.9694 H         1 UNK         0.0600 
    235 H235       -4.5731  -24.4051  -55.9642 H         1 UNK         0.3000 
    236 H236       -4.7278  -23.0616  -57.7049 H         1 UNK         0.0600 
    237 H237       -4.9415  -25.2375  -58.9259 H         1 UNK         0.0600 
    238 H238       -4.2495  -23.9873  -59.9451 H         1 UNK         0.0600 
    239 H239       -3.2094  -25.2267  -59.2553 H         1 UNK         0.0600 
    240 H240       -2.5604  -22.5287  -55.9555 H         1 UNK         0.3000 
    241 H241       -0.7474  -21.3958  -55.6252 H         1 UNK         0.0600 
    242 H242        1.2372  -24.1683  -57.4348 H         1 UNK         0.3800 
    243 H243       -0.4706  -24.1867  -57.0815 H         1 UNK         0.3800 
    244 H244       -0.5417  -20.1526  -58.3797 H         1 UNK         0.0800 
    245 H245       -1.9414  -19.7851  -57.4233 H         1 UNK         0.0800 
    246 H246       -1.7275  -17.3043  -56.0360 H         1 UNK         0.0800 
    247 H247       -2.0757  -18.8083  -55.2294 H         1 UNK         0.0800 
@<TRIPOS>BOND
     1    1    2 1    
     2    1  127 1    
     3    1  128 1    
     4    1  129 1    
     5    2    3 2    
     6    2    4 am   BACKBONE|DICT|INTERRES
     7    4    5 1    
     8    4  130 1    
     9    5    6 1    
    10    5   65 1    
    11    5  131 1    
    12    6    7 1    
    13    6  132 1    
    14    6  133 1    
    15    7    8 1    
    16    8    9 1    
    17    8  134 1    
    18    8  135 1    
    19    9   10 ar   
    20    9   14 ar   
    21   10   11 ar   
    22   10  136 1    
    23   11   12 ar   
    24   11  126 1    
    25   12   13 ar   
    26   12  137 1    
    27   13   14 ar   
    28   13   15 1    
    29   14  138 1    
    30   15   16 1    
    31   15  139 1    
    32   15  140 1    
    33   16   17 1    
    34   17   18 1    
    35   17  141 1    
    36   17  142 1    
    37   18   19 1    
    38   18   67 1    
    39   18  143 1    
    40   19   20 am   BACKBONE|DICT|INTERRES
    41   19  144 1    
    42   20   21 2    
    43   20   22 1    
    44   22   23 1    
    45   22   24 1    
    46   22  145 1    
    47   23  146 1    
    48   23  147 1    
    49   23  148 1    
    50   24   25 am   BACKBONE|DICT|INTERRES
    51   24  149 1    
    52   25   26 2    
    53   25   27 1    
    54   27   28 1    
    55   27   29 1    
    56   27  150 1    
    57   28  151 1    
    58   28  152 1    
    59   28  153 1    
    60   29   30 am   BACKBONE|DICT|INTERRES
    61   29  154 1    
    62   30   31 2    
    63   30   32 1    
    64   32   33 1    
    65   32   34 1    
    66   32  155 1    
    67   33  156 1    
    68   33  157 1    
    69   33  158 1    
    70   34   35 am   BACKBONE|DICT|INTERRES
    71   34  159 1    
    72   35   36 2    
    73   35   37 1    
    74   37   38 1    
    75   37   39 1    
    76   37  160 1    
    77   38  161 1    
    78   38  162 1    
    79   38  163 1    
    80   39   40 am   BACKBONE|DICT|INTERRES
    81   39  164 1    
    82   40   41 2    
    83   40   42 1    
    84   42   43 1    
    85   42   44 1    
    86   42  165 1    
    87   43  166 1    
    88   43  167 1    
    89   43  168 1    
    90   44   45 am   BACKBONE|DICT|INTERRES
    91   44  169 1    
    92   45   46 2    
    93   45   47 1    
    94   47   48 1    
    95   47   49 1    
    96   47  170 1    
    97   48  171 1    
    98   48  172 1    
    99   48  173 1    
   100   49   50 am   BACKBONE|DICT|INTERRES
   101   49  174 1    
   102   50   51 2    
   103   50   52 1    
   104   52   53 1    
   105   52   54 1    
   106   52  175 1    
   107   53  176 1    
   108   53  177 1    
   109   53  178 1    
   110   54   55 am   BACKBONE|DICT|INTERRES
   111   54  179 1    
   112   55   56 2    
   113   55   57 1    
   114   57   58 1    
   115   57   59 1    
   116   57  180 1    
   117   58  181 1    
   118   58  182 1    
   119   58  183 1    
   120   59   60 am   BACKBONE|DICT|INTERRES
   121   59  184 1    
   122   60   61 2    
   123   60   62 1    
   124   62   63 1    
   125   62   64 1    
   126   62  185 1    
   127   63  186 1    
   128   63  187 1    
   129   63  188 1    
   130   64   65 am   BACKBONE|DICT|INTERRES
   131   64  189 1    
   132   65   66 2    
   133   67   68 2    
   134   67   69 am   BACKBONE|DICT|INTERRES
   135   69   70 1    
   136   69  190 1    
   137   70   71 1    
   138   70   72 1    
   139   70  191 1    
   140   71  192 1    
   141   71  193 1    
   142   71  194 1    
   143   72   73 2    
   144   72   74 am   BACKBONE|DICT|INTERRES
   145   74   75 1    
   146   74  195 1    
   147   75   76 1    
   148   75   77 1    
   149   75  196 1    
   150   76  197 1    
   151   76  198 1    
   152   76  199 1    
   153   77   78 2    
   154   77   79 am   BACKBONE|DICT|INTERRES
   155   79   80 1    
   156   79  200 1    
   157   80   81 1    
   158   80   82 1    
   159   80  201 1    
   160   81  202 1    
   161   81  203 1    
   162   81  204 1    
   163   82   83 2    
   164   82   84 am   BACKBONE|DICT|INTERRES
   165   84   85 1    
   166   84  205 1    
   167   85   86 1    
   168   85   87 1    
   169   85  206 1    
   170   86  207 1    
   171   86  208 1    
   172   86  209 1    
   173   87   88 2    
   174   87   89 am   BACKBONE|DICT|INTERRES
   175   89   90 1    
   176   89  210 1    
   177   90   91 1    
   178   90   92 1    
   179   90  211 1    
   180   91  212 1    
   181   91  213 1    
   182   91  214 1    
   183   92   93 2    
   184   92   94 am   BACKBONE|DICT|INTERRES
   185   94   95 1    
   186   94  215 1    
   187   95   96 1    
   188   95   97 1    
   189   95  216 1    
   190   96  217 1    
   191   96  218 1    
   192   96  219 1    
   193   97   98 2    
   194   97   99 am   BACKBONE|DICT|INTERRES
   195   99  100 1    
   196   99  220 1    
   197  100  101 1    
   198  100  102 1    
   199  100  221 1    
   200  101  222 1    
   201  101  223 1    
   202  101  224 1    
   203  102  103 2    
   204  102  104 am   BACKBONE|DICT|INTERRES
   205  104  105 1    
   206  104  225 1    
   207  105  106 1    
   208  105  107 1    
   209  105  226 1    
   210  106  227 1    
   211  106  228 1    
   212  106  229 1    
   213  107  108 2    
   214  107  109 am   BACKBONE|DICT|INTERRES
   215  109  110 1    
   216  109  230 1    
   217  110  111 1    
   218  110  112 1    
   219  110  231 1    
   220  111  232 1    
   221  111  233 1    
   222  111  234 1    
   223  112  113 2    
   224  112  114 am   BACKBONE|DICT|INTERRES
   225  114  115 1    
   226  114  235 1    
   227  115  116 1    
   228  115  117 1    
   229  115  236 1    
   230  116  237 1    
   231  116  238 1    
   232  116  239 1    
   233  117  118 2    
   234  117  119 am   BACKBONE|DICT|INTERRES
   235  119  120 1    
   236  119  240 1    
   237  120  121 1    
   238  120  124 1    
   239  120  241 1    
   240  121  122 am   BACKBONE|DICT|INTERRES
   241  121  123 2    
   242  122  242 1    
   243  122  243 1    
   244  124  125 1    
   245  124  244 1    
   246  124  245 1    
   247  125  126 1    
   248  126  246 1    
   249  126  247 1    
@<TRIPOS>SUBSTRUCTURE
     1 UNK         1 GROUP             0       ****    0 ROOT    
