@<TRIPOS>MOLECULE
3R540
247   249    1
SMALL
USER_CHARGES


@<TRIPOS>ATOM
      1 CA          4.5770  -10.3563  -47.7017 C.3       0 UNK        -0.1800 
      2 C           4.4834  -11.8101  -48.1432 C.2       0 UNK         0.5000 
      3 O           5.2609  -12.2437  -48.9942 O.2       0 UNK        -0.5000 
      4 N           3.5296  -12.5583  -47.5763 N.am      1 UNK        -0.5000 
      5 CA          3.3170  -13.9874  -47.8266 C.3       1 UNK         0.1400 
      6 C6          1.9438  -14.4627  -47.2845 C.3       23 UNK        -0.0398 
      7 S7          0.5171  -13.5654  -48.0040 S.3       23 UNK        -0.2404 
      8 C8          0.5661  -13.9815  -49.7839 C.3       23 UNK        -0.0205 
      9 C9          0.1787  -15.4277  -50.0523 C.ar      23 UNK        -0.0193 
     10 C10        -1.1096  -15.7550  -50.4880 C.ar      23 UNK        -0.1150 
     11 C11        -1.4640  -17.0900  -50.7089 C.ar      23 UNK        -0.0193 
     12 C12        -0.5361  -18.1017  -50.4425 C.ar      23 UNK        -0.1150 
     13 C13         0.7536  -17.7844  -50.0086 C.ar      23 UNK        -0.0193 
     14 C14         1.1155  -16.4448  -49.8644 C.ar      23 UNK        -0.1150 
     15 C15         1.7498  -18.8839  -49.6694 C.3       23 UNK        -0.0205 
     16 S16         2.4537  -18.7133  -47.9907 S.3       23 UNK        -0.2404 
     17 C17         0.9792  -18.5866  -46.9210 C.3       23 UNK        -0.0398 
     18 CA          0.4129  -19.9736  -46.5213 C.3       11 UNK         0.1400 
     19 N          -0.0407  -20.0161  -45.1283 N.am      11 UNK        -0.5000 
     20 C          -0.4379  -21.1268  -44.4892 C.2       10 UNK         0.5000 
     21 O          -0.3834  -22.2563  -44.9752 O.2       10 UNK        -0.5000 
     22 CA         -1.0694  -20.9300  -43.1005 C.3       10 UNK         0.1400 
     23 CB          0.0062  -20.8802  -42.0031 C.3       10 UNK        -0.1800 
     24 N          -1.8967  -19.7215  -43.0584 N.am      10 UNK        -0.5000 
     25 C          -3.0757  -19.6036  -43.6895 C.2       9 UNK         0.5000 
     26 O          -3.6051  -20.5234  -44.3113 O.2       9 UNK        -0.5000 
     27 CA         -3.7633  -18.2244  -43.6602 C.3       9 UNK         0.1400 
     28 CB         -4.6655  -18.1030  -42.4235 C.3       9 UNK        -0.1800 
     29 N          -2.8185  -17.1081  -43.6769 N.am      9 UNK        -0.5000 
     30 C          -1.9720  -16.8208  -44.6775 C.2       8 UNK         0.5000 
     31 O          -1.9407  -17.4334  -45.7437 O.2       8 UNK        -0.5000 
     32 CA         -0.9300  -15.7176  -44.3960 C.3       8 UNK         0.1400 
     33 CB         -1.4613  -14.3419  -44.8204 C.3       8 UNK        -0.1800 
     34 N          -0.5327  -15.6794  -42.9826 N.am      8 UNK        -0.5000 
     35 C           0.0873  -16.6932  -42.3651 C.2       7 UNK         0.5000 
     36 O           0.4775  -17.7018  -42.9571 O.2       7 UNK        -0.5000 
     37 CA          0.1864  -16.6168  -40.8361 C.3       7 UNK         0.1400 
     38 CB         -1.1160  -17.1802  -40.2259 C.3       7 UNK        -0.1800 
     39 N           1.3558  -17.3775  -40.4023 N.am      7 UNK        -0.5000 
     40 C           1.7734  -17.5726  -39.1441 C.2       6 UNK         0.5000 
     41 O           1.2004  -17.1369  -38.1450 O.2       6 UNK        -0.5000 
     42 CA          3.0919  -18.3438  -38.9775 C.3       6 UNK         0.1400 
     43 CB          3.0309  -19.7392  -39.6251 C.3       6 UNK        -0.1800 
     44 N           4.1673  -17.5614  -39.5772 N.am      6 UNK        -0.5000 
     45 C           4.9001  -16.6473  -38.9254 C.2       5 UNK         0.5000 
     46 O           4.8863  -16.5026  -37.7023 O.2       5 UNK        -0.5000 
     47 CA          5.7798  -15.7132  -39.7841 C.3       5 UNK         0.1400 
     48 CB          7.1976  -16.2872  -39.9260 C.3       5 UNK        -0.1800 
     49 N           5.2284  -15.4683  -41.1187 N.am      5 UNK        -0.5000 
     50 C           4.0630  -14.8547  -41.3715 C.2       4 UNK         0.5000 
     51 O           3.3810  -14.3026  -40.5078 O.2       4 UNK        -0.5000 
     52 CA          3.5471  -14.8921  -42.8254 C.3       4 UNK         0.1400 
     53 CB          3.7715  -13.5292  -43.4969 C.3       4 UNK        -0.1800 
     54 N           4.1050  -15.9679  -43.6633 N.am      4 UNK        -0.5000 
     55 C           4.0160  -17.2825  -43.3909 C.2       3 UNK         0.5000 
     56 O           3.4880  -17.7154  -42.3672 O.2       3 UNK        -0.5000 
     57 CA          4.6283  -18.2873  -44.3849 C.3       3 UNK         0.1400 
     58 CB          3.7584  -19.5503  -44.5148 C.3       3 UNK        -0.1800 
     59 N           4.8348  -17.7006  -45.7094 N.am      3 UNK        -0.5000 
     60 C           6.0269  -17.3841  -46.2301 C.2       2 UNK         0.5000 
     61 O           7.0990  -17.5628  -45.6509 O.2       2 UNK        -0.5000 
     62 CA          6.0271  -16.7340  -47.6284 C.3       2 UNK         0.1400 
     63 CB          6.1957  -17.8021  -48.7201 C.3       2 UNK        -0.1800 
     64 N           4.8471  -15.9145  -47.9330 N.am      2 UNK        -0.5000 
     65 C           4.4767  -14.8256  -47.2445 C.2       1 UNK         0.5000 
     66 O           5.0112  -14.4808  -46.1891 O.2       1 UNK        -0.5000 
     67 C          -0.7074  -20.4138  -47.4840 C.2       11 UNK         0.5000 
     68 O          -0.4790  -21.2714  -48.3346 O.2       11 UNK        -0.5000 
     69 N          -1.9095  -19.8510  -47.2991 N.am      12 UNK        -0.5000 
     70 CA         -3.1139  -20.1781  -48.0606 C.3       12 UNK         0.1400 
     71 CB         -4.2463  -19.2267  -47.6481 C.3       12 UNK        -0.1800 
     72 C          -3.5422  -21.6503  -47.9181 C.2       12 UNK         0.5000 
     73 O          -3.9178  -22.2689  -48.9146 O.2       12 UNK        -0.5000 
     74 N          -3.4404  -22.1982  -46.6997 N.am      13 UNK        -0.5000 
     75 CA         -3.6802  -23.6113  -46.4085 C.3       13 UNK         0.1400 
     76 CB         -3.6863  -23.8362  -44.8891 C.3       13 UNK        -0.1800 
     77 C          -2.6606  -24.5357  -47.0989 C.2       13 UNK         0.5000 
     78 O          -3.0620  -25.5350  -47.6954 O.2       13 UNK        -0.5000 
     79 N          -1.3717  -24.1692  -47.0407 N.am      14 UNK        -0.5000 
     80 CA         -0.2726  -24.8856  -47.6933 C.3       14 UNK         0.1400 
     81 CB          1.0698  -24.3183  -47.2064 C.3       14 UNK        -0.1800 
     82 C          -0.3567  -24.8468  -49.2315 C.2       14 UNK         0.5000 
     83 O          -0.0859  -25.8569  -49.8818 O.2       14 UNK        -0.5000 
     84 N          -0.7534  -23.6917  -49.7811 N.am      15 UNK        -0.5000 
     85 CA         -0.9660  -23.4663  -51.2119 C.3       15 UNK         0.1400 
     86 CB         -1.0170  -21.9519  -51.4718 C.3       15 UNK        -0.1800 
     87 C          -2.2384  -24.1371  -51.7653 C.2       15 UNK         0.5000 
     88 O          -2.3556  -24.2668  -52.9839 O.2       15 UNK        -0.5000 
     89 N          -3.1649  -24.5232  -50.8738 N.am      16 UNK        -0.5000 
     90 CA         -4.5125  -25.0300  -51.1496 C.3       16 UNK         0.1400 
     91 CB         -4.4663  -26.3882  -51.8802 C.3       16 UNK        -0.1800 
     92 C          -5.3574  -23.9716  -51.8837 C.2       16 UNK         0.5000 
     93 O          -5.8777  -24.2272  -52.9714 O.2       16 UNK        -0.5000 
     94 N          -5.4436  -22.7814  -51.2726 N.am      17 UNK        -0.5000 
     95 CA         -6.0157  -21.5464  -51.8152 C.3       17 UNK         0.1400 
     96 CB         -6.0480  -20.4825  -50.7106 C.3       17 UNK        -0.1800 
     97 C          -7.4017  -21.6627  -52.4697 C.2       17 UNK         0.5000 
     98 O          -7.6430  -20.9874  -53.4700 O.2       17 UNK        -0.5000 
     99 N          -8.2677  -22.5211  -51.9164 N.am      18 UNK        -0.5000 
    100 CA        -9.6111  -22.7919  -52.4316 C.3       18 UNK         0.1400 
    101 CB       -10.3966  -23.5948  -51.3837 C.3       18 UNK        -0.1800 
    102 C         -9.6139  -23.5267  -53.7871 C.2       18 UNK         0.5000 
    103 O        -10.5331  -23.3217  -54.5805 O.2       18 UNK        -0.5000 
    104 N         -8.5923  -24.3581  -54.0306 N.am      19 UNK        -0.5000 
    105 CA        -8.3921  -25.0814  -55.2856 C.3       19 UNK         0.1400 
    106 CB        -7.7509  -26.4460  -54.9866 C.3       19 UNK        -0.1800 
    107 C         -7.5157  -24.2727  -56.2558 C.2       19 UNK         0.5000 
    108 O         -7.7845  -24.2643  -57.4575 O.2       19 UNK        -0.5000 
    109 N         -6.4889  -23.6019  -55.7158 N.am      20 UNK        -0.5000 
    110 CA        -5.5300  -22.7880  -56.4646 C.3       20 UNK         0.1400 
    111 CB        -4.3005  -22.5402  -55.5766 C.3       20 UNK        -0.1800 
    112 C         -6.1025  -21.4481  -56.9689 C.2       20 UNK         0.5000 
    113 O         -5.5219  -20.8600  -57.8819 O.2       20 UNK        -0.5000 
    114 N         -7.2022  -20.9840  -56.3552 N.am      21 UNK        -0.5000 
    115 CA        -7.8444  -19.6766  -56.5398 C.3       21 UNK         0.1400 
    116 CB        -8.4111  -19.5240  -57.9669 C.3       21 UNK        -0.1800 
    117 C         -6.9134  -18.5200  -56.1161 C.2       21 UNK         0.5000 
    118 O         -6.7955  -17.5154  -56.8206 O.2       21 UNK        -0.5000 
    119 N         -6.2445  -18.7118  -54.9733 N.am      22 UNK        -0.5000 
    120 CA        -5.3015  -17.7613  -54.3695 C.3       22 UNK         0.1400 
    121 C         -6.0265  -16.5448  -53.7287 C.2       22 UNK         0.5000 
    122 N         -5.4700  -15.3471  -53.8461 N.am      22 UNK        -0.7600 
    123 O         -7.0713  -16.6839  -53.0963 O.2       22 UNK        -0.5000 
    124 C124       -4.3898  -18.4894  -53.3514 C.3       23 UNK        -0.0398 
    125 S125       -2.7993  -17.6519  -53.0499 S.3       23 UNK        -0.2404 
    126 C126       -2.8423  -17.4469  -51.2412 C.3       23 UNK        -0.0205 
    127 H127        4.4370   -9.6944  -48.5563 H         1 UNK         0.0600 
    128 H128        5.5589  -10.1577  -47.2720 H         1 UNK         0.0600 
    129 H129        3.8227  -10.1102  -46.9538 H         1 UNK         0.0600 
    130 H130        2.9246  -12.1436  -46.8829 H         1 UNK         0.3000 
    131 H131        3.3352  -14.1339  -48.9069 H         1 UNK         0.0600 
    132 H132        1.8018  -15.5327  -47.4299 H         1 UNK         0.0800 
    133 H133        1.9006  -14.3190  -46.2041 H         1 UNK         0.0800 
    134 H134       -0.1231  -13.3156  -50.3052 H         1 UNK         0.0800 
    135 H135        1.5487  -13.7683  -50.2039 H         1 UNK         0.0800 
    136 H136       -1.8332  -14.9716  -50.6649 H         1 UNK         0.1150 
    137 H137       -0.8183  -19.1355  -50.5809 H         1 UNK         0.1150 
    138 H138        2.1211  -16.2008  -49.5600 H         1 UNK         0.1150 
    139 H139        1.2906  -19.8682  -49.7628 H         1 UNK         0.0800 
    140 H140        2.5633  -18.8579  -50.3954 H         1 UNK         0.0800 
    141 H141        1.2968  -18.0408  -46.0321 H         1 UNK         0.0800 
    142 H142        0.2259  -17.9416  -47.3767 H         1 UNK         0.0800 
    143 H143        1.2127  -20.7139  -46.5964 H         1 UNK         0.0600 
    144 H144       -0.1070  -19.1341  -44.6369 H         1 UNK         0.3000 
    145 H145       -1.7126  -21.7891  -42.8988 H         1 UNK         0.0600 
    146 H146       -0.4336  -20.6986  -41.0225 H         1 UNK         0.0600 
    147 H147        0.5419  -21.8285  -41.9477 H         1 UNK         0.0600 
    148 H148        0.7489  -20.1049  -42.1874 H         1 UNK         0.0600 
    149 H149       -1.4878  -18.9099  -42.6198 H         1 UNK         0.3000 
    150 H150       -4.3910  -18.1436  -44.5492 H         1 UNK         0.0600 
    151 H151       -5.4022  -18.9072  -42.3983 H         1 UNK         0.0600 
    152 H152       -5.2149  -17.1615  -42.4262 H         1 UNK         0.0600 
    153 H153       -4.0913  -18.1553  -41.4975 H         1 UNK         0.0600 
    154 H154       -2.7809  -16.5392  -42.8451 H         1 UNK         0.3000 
    155 H155       -0.0436  -15.9400  -44.9942 H         1 UNK         0.0600 
    156 H156       -0.6979  -13.5723  -44.7045 H         1 UNK         0.0600 
    157 H157       -2.3320  -14.0455  -44.2344 H         1 UNK         0.0600 
    158 H158       -1.7577  -14.3467  -45.8703 H         1 UNK         0.0600 
    159 H159       -0.8365  -14.8788  -42.4465 H         1 UNK         0.3000 
    160 H160        0.3202  -15.5750  -40.5392 H         1 UNK         0.0600 
    161 H161       -1.2159  -18.2504  -40.4095 H         1 UNK         0.0600 
    162 H162       -1.9956  -16.6905  -40.6450 H         1 UNK         0.0600 
    163 H163       -1.1620  -17.0223  -39.1492 H         1 UNK         0.0600 
    164 H164        1.9184  -17.7391  -41.1702 H         1 UNK         0.3000 
    165 H165        3.2757  -18.4805  -37.9097 H         1 UNK         0.0600 
    166 H166        2.8844  -19.6920  -40.7042 H         1 UNK         0.0600 
    167 H167        3.9509  -20.2939  -39.4415 H         1 UNK         0.0600 
    168 H168        2.2098  -20.3244  -39.2096 H         1 UNK         0.0600 
    169 H169        4.1950  -17.5712  -40.5922 H         1 UNK         0.3000 
    170 H170        5.8467  -14.7538  -39.2670 H         1 UNK         0.0600 
    171 H171        7.6488  -16.4586  -38.9478 H         1 UNK         0.0600 
    172 H172        7.1948  -17.2396  -40.4578 H         1 UNK         0.0600 
    173 H173        7.8493  -15.6010  -40.4673 H         1 UNK         0.0600 
    174 H174        5.7243  -15.8789  -41.8957 H         1 UNK         0.3000 
    175 H175        2.4708  -15.0572  -42.7691 H         1 UNK         0.0600 
    176 H176        4.8308  -13.3375  -43.6713 H         1 UNK         0.0600 
    177 H177        3.2544  -13.4686  -44.4528 H         1 UNK         0.0600 
    178 H178        3.3888  -12.7162  -42.8784 H         1 UNK         0.0600 
    179 H179        4.5722  -15.6726  -44.5137 H         1 UNK         0.3000 
    180 H180        5.5838  -18.5963  -43.9573 H         1 UNK         0.0600 
    181 H181        2.7252  -19.3050  -44.7505 H         1 UNK         0.0600 
    182 H182        3.7470  -20.1130  -43.5805 H         1 UNK         0.0600 
    183 H183        4.1341  -20.2175  -45.2906 H         1 UNK         0.0600 
    184 H184        4.0091  -17.5336  -46.2668 H         1 UNK         0.3000 
    185 H185        6.8953  -16.0730  -47.6708 H         1 UNK         0.0600 
    186 H186        6.2995  -17.3480  -49.7056 H         1 UNK         0.0600 
    187 H187        7.0904  -18.4012  -48.5450 H         1 UNK         0.0600 
    188 H188        5.3471  -18.4856  -48.7523 H         1 UNK         0.0600 
    189 H189        4.3617  -16.1489  -48.7860 H         1 UNK         0.3000 
    190 H190       -1.9960  -19.1085  -46.6097 H         1 UNK         0.3000 
    191 H191       -2.8881  -20.0078  -49.1138 H         1 UNK         0.0600 
    192 H192       -5.1588  -19.4229  -48.2093 H         1 UNK         0.0600 
    193 H193       -3.9709  -18.1867  -47.8258 H         1 UNK         0.0600 
    194 H194       -4.4921  -19.3324  -46.5925 H         1 UNK         0.0600 
    195 H195       -3.1958  -21.6047  -45.9132 H         1 UNK         0.3000 
    196 H196       -4.6711  -23.8659  -46.7905 H         1 UNK         0.0600 
    197 H197       -3.8864  -24.8814  -44.6500 H         1 UNK         0.0600 
    198 H198       -4.4591  -23.2383  -44.4058 H         1 UNK         0.0600 
    199 H199       -2.7297  -23.5734  -44.4374 H         1 UNK         0.0600 
    200 H200       -1.1185  -23.3469  -46.5015 H         1 UNK         0.3000 
    201 H201       -0.3284  -25.9319  -47.3859 H         1 UNK         0.0600 
    202 H202        1.1695  -24.4162  -46.1252 H         1 UNK         0.0600 
    203 H203        1.1766  -23.2624  -47.4563 H         1 UNK         0.0600 
    204 H204        1.9069  -24.8501  -47.6603 H         1 UNK         0.0600 
    205 H205       -0.8739  -22.8831  -49.1746 H         1 UNK         0.3000 
    206 H206       -0.1138  -23.8790  -51.7555 H         1 UNK         0.0600 
    207 H207       -0.0917  -21.4687  -51.1591 H         1 UNK         0.0600 
    208 H208       -1.1521  -21.7372  -52.5327 H         1 UNK         0.0600 
    209 H209       -1.8415  -21.4817  -50.9344 H         1 UNK         0.0600 
    210 H210       -2.9656  -24.3398  -49.8992 H         1 UNK         0.3000 
    211 H211       -4.9857  -25.1920  -50.1801 H         1 UNK         0.0600 
    212 H212       -4.0502  -26.3009  -52.8841 H         1 UNK         0.0600 
    213 H213       -5.4680  -26.8074  -51.9810 H         1 UNK         0.0600 
    214 H214       -3.8645  -27.1106  -51.3288 H         1 UNK         0.0600 
    215 H215       -4.9457  -22.6743  -50.3905 H         1 UNK         0.3000 
    216 H216       -5.3318  -21.2063  -52.5919 H         1 UNK         0.0600 
    217 H217       -6.5769  -19.5834  -51.0306 H         1 UNK         0.0600 
    218 H218       -5.0368  -20.1840  -50.4389 H         1 UNK         0.0600 
    219 H219       -6.5465  -20.8511  -49.8134 H         1 UNK         0.0600 
    220 H220       -7.9772  -23.0378  -51.0995 H         1 UNK         0.3000 
    221 H221      -10.1161  -21.8343  -52.5763 H         1 UNK         0.0600 
    222 H222       -9.9261  -24.5573  -51.1785 H         1 UNK         0.0600 
    223 H223      -10.4713  -23.0492  -50.4429 H         1 UNK         0.0600 
    224 H224      -11.4136  -23.7926  -51.7249 H         1 UNK         0.0600 
    225 H225       -7.8383  -24.4184  -53.3550 H         1 UNK         0.3000 
    226 H226       -9.3549  -25.2617  -55.7687 H         1 UNK         0.0600 
    227 H227       -8.3843  -27.0422  -54.3296 H         1 UNK         0.0600 
    228 H228       -7.6048  -27.0172  -55.9042 H         1 UNK         0.0600 
    229 H229       -6.7769  -26.3412  -54.5069 H         1 UNK         0.0600 
    230 H230       -6.3077  -23.7165  -54.7218 H         1 UNK         0.3000 
    231 H231       -5.2091  -23.3570  -57.3396 H         1 UNK         0.0600 
    232 H232       -3.5370  -21.9731  -56.1103 H         1 UNK         0.0600 
    233 H233       -3.8462  -23.4798  -55.2613 H         1 UNK         0.0600 
    234 H234       -4.5594  -21.9788  -54.6795 H         1 UNK         0.0600 
    235 H235       -7.5546  -21.5207  -55.5723 H         1 UNK         0.3000 
    236 H236       -8.6891  -19.6538  -55.8497 H         1 UNK         0.0600 
    237 H237       -9.0603  -20.3610  -58.2238 H         1 UNK         0.0600 
    238 H238       -9.0055  -18.6138  -58.0529 H         1 UNK         0.0600 
    239 H239       -7.6221  -19.4684  -58.7171 H         1 UNK         0.0600 
    240 H240       -6.4836  -19.5305  -54.4271 H         1 UNK         0.3000 
    241 H241       -4.6708  -17.3913  -55.1808 H         1 UNK         0.0600 
    242 H242       -4.6011  -15.2168  -54.3410 H         1 UNK         0.3800 
    243 H243       -5.9243  -14.5514  -53.4258 H         1 UNK         0.3800 
    244 H244       -4.9159  -18.6459  -52.4116 H         1 UNK         0.0800 
    245 H245       -4.1350  -19.4816  -53.7259 H         1 UNK         0.0800 
    246 H246       -3.1838  -18.3706  -50.7744 H         1 UNK         0.0800 
    247 H247       -3.5696  -16.6771  -50.9783 H         1 UNK         0.0800 
@<TRIPOS>BOND
     1    1    2 1    
     2    1  127 1    
     3    1  128 1    
     4    1  129 1    
     5    2    3 2    
     6    2    4 am   BACKBONE|DICT|INTERRES
     7    4    5 1    
     8    4  130 1    
     9    5    6 1    
    10    5   65 1    
    11    5  131 1    
    12    6    7 1    
    13    6  132 1    
    14    6  133 1    
    15    7    8 1    
    16    8    9 1    
    17    8  134 1    
    18    8  135 1    
    19    9   10 ar   
    20    9   14 ar   
    21   10   11 ar   
    22   10  136 1    
    23   11   12 ar   
    24   11  126 1    
    25   12   13 ar   
    26   12  137 1    
    27   13   14 ar   
    28   13   15 1    
    29   14  138 1    
    30   15   16 1    
    31   15  139 1    
    32   15  140 1    
    33   16   17 1    
    34   17   18 1    
    35   17  141 1    
    36   17  142 1    
    37   18   19 1    
    38   18   67 1    
    39   18  143 1    
    40   19   20 am   BACKBONE|DICT|INTERRES
    41   19  144 1    
    42   20   21 2    
    43   20   22 1    
    44   22   23 1    
    45   22   24 1    
    46   22  145 1    
    47   23  146 1    
    48   23  147 1    
    49   23  148 1    
    50   24   25 am   BACKBONE|DICT|INTERRES
    51   24  149 1    
    52   25   26 2    
    53   25   27 1    
    54   27   28 1    
    55   27   29 1    
    56   27  150 1    
    57   28  151 1    
    58   28  152 1    
    59   28  153 1    
    60   29   30 am   BACKBONE|DICT|INTERRES
    61   29  154 1    
    62   30   31 2    
    63   30   32 1    
    64   32   33 1    
    65   32   34 1    
    66   32  155 1    
    67   33  156 1    
    68   33  157 1    
    69   33  158 1    
    70   34   35 am   BACKBONE|DICT|INTERRES
    71   34  159 1    
    72   35   36 2    
    73   35   37 1    
    74   37   38 1    
    75   37   39 1    
    76   37  160 1    
    77   38  161 1    
    78   38  162 1    
    79   38  163 1    
    80   39   40 am   BACKBONE|DICT|INTERRES
    81   39  164 1    
    82   40   41 2    
    83   40   42 1    
    84   42   43 1    
    85   42   44 1    
    86   42  165 1    
    87   43  166 1    
    88   43  167 1    
    89   43  168 1    
    90   44   45 am   BACKBONE|DICT|INTERRES
    91   44  169 1    
    92   45   46 2    
    93   45   47 1    
    94   47   48 1    
    95   47   49 1    
    96   47  170 1    
    97   48  171 1    
    98   48  172 1    
    99   48  173 1    
   100   49   50 am   BACKBONE|DICT|INTERRES
   101   49  174 1    
   102   50   51 2    
   103   50   52 1    
   104   52   53 1    
   105   52   54 1    
   106   52  175 1    
   107   53  176 1    
   108   53  177 1    
   109   53  178 1    
   110   54   55 am   BACKBONE|DICT|INTERRES
   111   54  179 1    
   112   55   56 2    
   113   55   57 1    
   114   57   58 1    
   115   57   59 1    
   116   57  180 1    
   117   58  181 1    
   118   58  182 1    
   119   58  183 1    
   120   59   60 am   BACKBONE|DICT|INTERRES
   121   59  184 1    
   122   60   61 2    
   123   60   62 1    
   124   62   63 1    
   125   62   64 1    
   126   62  185 1    
   127   63  186 1    
   128   63  187 1    
   129   63  188 1    
   130   64   65 am   BACKBONE|DICT|INTERRES
   131   64  189 1    
   132   65   66 2    
   133   67   68 2    
   134   67   69 am   BACKBONE|DICT|INTERRES
   135   69   70 1    
   136   69  190 1    
   137   70   71 1    
   138   70   72 1    
   139   70  191 1    
   140   71  192 1    
   141   71  193 1    
   142   71  194 1    
   143   72   73 2    
   144   72   74 am   BACKBONE|DICT|INTERRES
   145   74   75 1    
   146   74  195 1    
   147   75   76 1    
   148   75   77 1    
   149   75  196 1    
   150   76  197 1    
   151   76  198 1    
   152   76  199 1    
   153   77   78 2    
   154   77   79 am   BACKBONE|DICT|INTERRES
   155   79   80 1    
   156   79  200 1    
   157   80   81 1    
   158   80   82 1    
   159   80  201 1    
   160   81  202 1    
   161   81  203 1    
   162   81  204 1    
   163   82   83 2    
   164   82   84 am   BACKBONE|DICT|INTERRES
   165   84   85 1    
   166   84  205 1    
   167   85   86 1    
   168   85   87 1    
   169   85  206 1    
   170   86  207 1    
   171   86  208 1    
   172   86  209 1    
   173   87   88 2    
   174   87   89 am   BACKBONE|DICT|INTERRES
   175   89   90 1    
   176   89  210 1    
   177   90   91 1    
   178   90   92 1    
   179   90  211 1    
   180   91  212 1    
   181   91  213 1    
   182   91  214 1    
   183   92   93 2    
   184   92   94 am   BACKBONE|DICT|INTERRES
   185   94   95 1    
   186   94  215 1    
   187   95   96 1    
   188   95   97 1    
   189   95  216 1    
   190   96  217 1    
   191   96  218 1    
   192   96  219 1    
   193   97   98 2    
   194   97   99 am   BACKBONE|DICT|INTERRES
   195   99  100 1    
   196   99  220 1    
   197  100  101 1    
   198  100  102 1    
   199  100  221 1    
   200  101  222 1    
   201  101  223 1    
   202  101  224 1    
   203  102  103 2    
   204  102  104 am   BACKBONE|DICT|INTERRES
   205  104  105 1    
   206  104  225 1    
   207  105  106 1    
   208  105  107 1    
   209  105  226 1    
   210  106  227 1    
   211  106  228 1    
   212  106  229 1    
   213  107  108 2    
   214  107  109 am   BACKBONE|DICT|INTERRES
   215  109  110 1    
   216  109  230 1    
   217  110  111 1    
   218  110  112 1    
   219  110  231 1    
   220  111  232 1    
   221  111  233 1    
   222  111  234 1    
   223  112  113 2    
   224  112  114 am   BACKBONE|DICT|INTERRES
   225  114  115 1    
   226  114  235 1    
   227  115  116 1    
   228  115  117 1    
   229  115  236 1    
   230  116  237 1    
   231  116  238 1    
   232  116  239 1    
   233  117  118 2    
   234  117  119 am   BACKBONE|DICT|INTERRES
   235  119  120 1    
   236  119  240 1    
   237  120  121 1    
   238  120  124 1    
   239  120  241 1    
   240  121  122 am   BACKBONE|DICT|INTERRES
   241  121  123 2    
   242  122  242 1    
   243  122  243 1    
   244  124  125 1    
   245  124  244 1    
   246  124  245 1    
   247  125  126 1    
   248  126  246 1    
   249  126  247 1    
@<TRIPOS>SUBSTRUCTURE
     1 UNK         1 GROUP             0       ****    0 ROOT    
