@<TRIPOS>MOLECULE
3R540
247   249    1
SMALL
USER_CHARGES


@<TRIPOS>ATOM
      1 CA          0.7163   -8.5251  -48.4185 C.3       0 UNK        -0.1800 
      2 C          -0.1349   -9.6530  -47.8525 C.2       0 UNK         0.5000 
      3 O          -1.1368   -9.3857  -47.1893 O.2       0 UNK        -0.5000 
      4 N           0.2668  -10.9056  -48.1117 N.am      1 UNK        -0.5000 
      5 CA         -0.3961  -12.1461  -47.6777 C.3       1 UNK         0.1400 
      6 C6         -1.7920  -12.3690  -48.3213 C.3       23 UNK        -0.0398 
      7 S7         -1.6862  -12.4706  -50.1410 S.3       23 UNK        -0.2404 
      8 C8         -1.7668  -14.2687  -50.4141 C.3       23 UNK        -0.0205 
      9 C9         -3.2022  -14.7671  -50.4638 C.ar      23 UNK        -0.0193 
     10 C10        -3.9206  -14.6841  -51.6592 C.ar      23 UNK        -0.1150 
     11 C11        -5.2280  -15.1712  -51.7413 C.ar      23 UNK        -0.0193 
     12 C12        -5.8280  -15.7122  -50.6008 C.ar      23 UNK        -0.1150 
     13 C13        -5.1282  -15.7801  -49.3915 C.ar      23 UNK        -0.0193 
     14 C14        -3.8095  -15.3193  -49.3317 C.ar      23 UNK        -0.1150 
     15 C15        -5.8143  -16.3260  -48.1486 C.3       23 UNK        -0.0205 
     16 S16        -5.7916  -18.1427  -48.1018 S.3       23 UNK        -0.2404 
     17 C17        -4.1979  -18.4654  -47.2741 C.3       23 UNK        -0.0398 
     18 CA         -3.8556  -19.9733  -47.2233 C.3       11 UNK         0.1400 
     19 N          -2.4409  -20.2123  -46.9156 N.am      11 UNK        -0.5000 
     20 C          -1.8439  -21.4144  -46.9169 C.2       10 UNK         0.5000 
     21 O          -2.4155  -22.4615  -47.2169 O.2       10 UNK        -0.5000 
     22 CA         -0.3813  -21.4713  -46.4471 C.3       10 UNK         0.1400 
     23 CB          0.5700  -20.9888  -47.5520 C.3       10 UNK        -0.1800 
     24 N          -0.1710  -20.6978  -45.2239 N.am      10 UNK        -0.5000 
     25 C          -0.7505  -20.9753  -44.0461 C.2       9 UNK         0.5000 
     26 O          -1.4492  -21.9682  -43.8458 O.2       9 UNK        -0.5000 
     27 CA         -0.5691  -19.9410  -42.9209 C.3       9 UNK         0.1400 
     28 CB          0.7787  -20.1248  -42.2067 C.3       9 UNK        -0.1800 
     29 N          -0.6886  -18.5668  -43.4105 N.am      9 UNK        -0.5000 
     30 C          -1.8212  -18.0230  -43.8815 C.2       8 UNK         0.5000 
     31 O          -2.8995  -18.6129  -43.9212 O.2       8 UNK        -0.5000 
     32 CA         -1.7193  -16.5942  -44.4465 C.3       8 UNK         0.1400 
     33 CB         -1.9098  -15.5623  -43.3268 C.3       8 UNK        -0.1800 
     34 N          -0.4478  -16.3690  -45.1402 N.am      8 UNK        -0.5000 
     35 C          -0.1232  -16.9770  -46.2911 C.2       7 UNK         0.5000 
     36 O          -0.8855  -17.7238  -46.9053 O.2       7 UNK        -0.5000 
     37 CA          1.3109  -16.7742  -46.8020 C.3       7 UNK         0.1400 
     38 CB          1.4543  -15.4569  -47.5707 C.3       7 UNK        -0.1800 
     39 N           2.2829  -16.7952  -45.7138 N.am      7 UNK        -0.5000 
     40 C           2.6781  -17.8976  -45.0660 C.2       6 UNK         0.5000 
     41 O           2.2044  -19.0106  -45.2927 O.2       6 UNK        -0.5000 
     42 CA          3.7402  -17.7325  -43.9580 C.3       6 UNK         0.1400 
     43 CB          4.8070  -18.8447  -44.0009 C.3       6 UNK        -0.1800 
     44 N           4.3551  -16.3993  -43.9143 N.am      6 UNK        -0.5000 
     45 C           5.1481  -15.8142  -44.8280 C.2       5 UNK         0.5000 
     46 O           5.5516  -16.3775  -45.8452 O.2       5 UNK        -0.5000 
     47 CA          5.5122  -14.3314  -44.6001 C.3       5 UNK         0.1400 
     48 CB          4.9201  -13.4571  -45.7193 C.3       5 UNK        -0.1800 
     49 N           5.0237  -13.8231  -43.3178 N.am      5 UNK        -0.5000 
     50 C           5.6711  -13.9203  -42.1489 C.2       4 UNK         0.5000 
     51 O           6.8068  -14.3797  -42.0293 O.2       4 UNK        -0.5000 
     52 CA          4.8983  -13.4537  -40.8982 C.3       4 UNK         0.1400 
     53 CB          5.2352  -11.9903  -40.5745 C.3       4 UNK        -0.1800 
     54 N           3.4439  -13.5891  -41.0355 N.am      4 UNK        -0.5000 
     55 C           2.7870  -14.7533  -41.1499 C.2       3 UNK         0.5000 
     56 O           3.3383  -15.8522  -41.1201 O.2       3 UNK        -0.5000 
     57 CA          1.2729  -14.6772  -41.4128 C.3       3 UNK         0.1400 
     58 CB          0.4892  -14.6878  -40.0925 C.3       3 UNK        -0.1800 
     59 N           0.9043  -13.4922  -42.1919 N.am      3 UNK        -0.5000 
     60 C           1.1665  -13.3333  -43.4953 C.2       2 UNK         0.5000 
     61 O           1.6530  -14.2178  -44.2067 O.2       2 UNK        -0.5000 
     62 CA          0.9116  -11.9248  -44.0600 C.3       2 UNK         0.1400 
     63 CB          2.1002  -11.0071  -43.7302 C.3       2 UNK        -0.1800 
     64 N           0.7182  -11.9199  -45.5078 N.am      2 UNK        -0.5000 
     65 C          -0.4038  -12.2932  -46.1372 C.2       1 UNK         0.5000 
     66 O          -1.4035  -12.7125  -45.5533 O.2       1 UNK        -0.5000 
     67 C          -4.7966  -20.7651  -46.2868 C.2       11 UNK         0.5000 
     68 O          -5.7026  -21.4416  -46.7760 O.2       11 UNK        -0.5000 
     69 N          -4.5176  -20.7346  -44.9749 N.am      12 UNK        -0.5000 
     70 CA         -5.2291  -21.4962  -43.9432 C.3       12 UNK         0.1400 
     71 CB         -4.7257  -21.0695  -42.5564 C.3       12 UNK        -0.1800 
     72 C          -5.1268  -23.0264  -44.1124 C.2       12 UNK         0.5000 
     73 O          -6.0525  -23.7390  -43.7248 O.2       12 UNK        -0.5000 
     74 N          -4.0421  -23.5025  -44.7377 N.am      13 UNK        -0.5000 
     75 CA         -3.8212  -24.8939  -45.1386 C.3       13 UNK         0.1400 
     76 CB         -2.3127  -25.1949  -45.0736 C.3       13 UNK        -0.1800 
     77 C          -4.4203  -25.2032  -46.5305 C.2       13 UNK         0.5000 
     78 O          -3.8628  -26.0151  -47.2714 O.2       13 UNK        -0.5000 
     79 N          -5.5345  -24.5393  -46.8742 N.am      14 UNK        -0.5000 
     80 CA         -6.2807  -24.6281  -48.1337 C.3       14 UNK         0.1400 
     81 CB         -6.9435  -26.0144  -48.2761 C.3       14 UNK        -0.1800 
     82 C          -5.4242  -24.2406  -49.3552 C.2       14 UNK         0.5000 
     83 O          -5.4569  -24.9275  -50.3764 O.2       14 UNK        -0.5000 
     84 N          -4.6397  -23.1638  -49.2048 N.am      15 UNK        -0.5000 
     85 CA         -3.6433  -22.6631  -50.1597 C.3       15 UNK         0.1400 
     86 CB         -4.3325  -22.0981  -51.4131 C.3       15 UNK        -0.1800 
     87 C          -2.5628  -23.7196  -50.4671 C.2       15 UNK         0.5000 
     88 O          -2.2662  -23.9917  -51.6314 O.2       15 UNK        -0.5000 
     89 N          -2.0393  -24.3256  -49.3913 N.am      16 UNK        -0.5000 
     90 CA         -1.1161  -25.4636  -49.3598 C.3       16 UNK         0.1400 
     91 CB          0.2807  -25.0355  -49.8537 C.3       16 UNK        -0.1800 
     92 C          -1.6777  -26.6809  -50.1240 C.2       16 UNK         0.5000 
     93 O          -0.9998  -27.2340  -50.9895 O.2       16 UNK        -0.5000 
     94 N          -2.9371  -27.0355  -49.8283 N.am      17 UNK        -0.5000 
     95 CA         -3.7542  -28.0380  -50.5260 C.3       17 UNK         0.1400 
     96 CB         -3.2472  -29.4608  -50.2145 C.3       17 UNK        -0.1800 
     97 C          -3.8693  -27.7505  -52.0415 C.2       17 UNK         0.5000 
     98 O          -3.6780  -28.6446  -52.8676 O.2       17 UNK        -0.5000 
     99 N          -4.1424  -26.4786  -52.3607 N.am      18 UNK        -0.5000 
    100 CA        -4.2430  -25.8567  -53.6842 C.3       18 UNK         0.1400 
    101 CB        -5.3877  -26.4876  -54.5026 C.3       18 UNK        -0.1800 
    102 C         -2.9252  -25.7849  -54.4884 C.2       18 UNK         0.5000 
    103 O         -2.9585  -25.3420  -55.6379 O.2       18 UNK        -0.5000 
    104 N         -1.7864  -26.1813  -53.9003 N.am      19 UNK        -0.5000 
    105 CA        -0.4731  -26.1352  -54.5502 C.3       19 UNK         0.1400 
    106 CB         0.4963  -27.0801  -53.8251 C.3       19 UNK        -0.1800 
    107 C          0.1203  -24.7151  -54.6203 C.2       19 UNK         0.5000 
    108 O          0.9704  -24.4631  -55.4753 O.2       19 UNK        -0.5000 
    109 N         -0.3295  -23.8186  -53.7346 N.am      20 UNK        -0.5000 
    110 CA         0.1024  -22.4277  -53.6367 C.3       20 UNK         0.1400 
    111 CB         0.9148  -22.2424  -52.3411 C.3       20 UNK        -0.1800 
    112 C         -1.1262  -21.5061  -53.7048 C.2       20 UNK         0.5000 
    113 O         -1.2663  -20.6113  -52.8690 O.2       20 UNK        -0.5000 
    114 N         -2.0013  -21.7601  -54.6910 N.am      21 UNK        -0.5000 
    115 CA        -3.2495  -21.0474  -54.9882 C.3       21 UNK         0.1400 
    116 CB        -3.8446  -21.6224  -56.2844 C.3       21 UNK        -0.1800 
    117 C         -3.0690  -19.5172  -55.0748 C.2       21 UNK         0.5000 
    118 O         -2.6414  -19.0087  -56.1131 O.2       21 UNK        -0.5000 
    119 N         -3.3580  -18.8310  -53.9606 N.am      22 UNK        -0.5000 
    120 CA        -3.1201  -17.3944  -53.7328 C.3       22 UNK         0.1400 
    121 C         -1.6171  -16.9739  -53.7790 C.2       22 UNK         0.5000 
    122 N         -0.6809  -17.8695  -53.4899 N.am      22 UNK        -0.7600 
    123 O         -1.2883  -15.8214  -54.0468 O.2       22 UNK        -0.5000 
    124 C124       -4.0509  -16.4832  -54.5836 C.3       23 UNK        -0.0398 
    125 S125       -5.7945  -16.6154  -54.0559 S.3       23 UNK        -0.2404 
    126 C126       -5.9947  -15.1021  -53.0558 C.3       23 UNK        -0.0205 
    127 H127        1.5679   -8.9032  -48.9845 H         1 UNK         0.0600 
    128 H128        1.0958   -7.8997  -47.6104 H         1 UNK         0.0600 
    129 H129        0.1179   -7.9008  -49.0821 H         1 UNK         0.0600 
    130 H130        1.0945  -11.0392  -48.6755 H         1 UNK         0.3000 
    131 H131        0.2445  -12.9486  -48.0389 H         1 UNK         0.0600 
    132 H132       -2.4749  -11.5611  -48.0561 H         1 UNK         0.0800 
    133 H133       -2.2517  -13.2826  -47.9438 H         1 UNK         0.0800 
    134 H134       -1.2711  -14.5013  -51.3582 H         1 UNK         0.0800 
    135 H135       -1.2040  -14.7938  -49.6421 H         1 UNK         0.0800 
    136 H136       -3.4506  -14.2505  -52.5305 H         1 UNK         0.1150 
    137 H137       -6.8435  -16.0797  -50.6528 H         1 UNK         0.1150 
    138 H138       -3.2610  -15.3842  -48.4027 H         1 UNK         0.1150 
    139 H139       -5.3579  -15.9217  -47.2437 H         1 UNK         0.0800 
    140 H140       -6.8526  -15.9911  -48.1362 H         1 UNK         0.0800 
    141 H141       -4.2130  -18.0306  -46.2738 H         1 UNK         0.0800 
    142 H142       -3.4261  -17.9323  -47.8306 H         1 UNK         0.0800 
    143 H143       -4.0136  -20.3634  -48.2286 H         1 UNK         0.0600 
    144 H144       -1.8811  -19.3927  -46.6986 H         1 UNK         0.3000 
    145 H145       -0.1429  -22.5143  -46.2284 H         1 UNK         0.0600 
    146 H146        1.6113  -21.0931  -47.2468 H         1 UNK         0.0600 
    147 H147        0.4373  -21.5731  -48.4636 H         1 UNK         0.0600 
    148 H148        0.4007  -19.9423  -47.8053 H         1 UNK         0.0600 
    149 H149        0.4598  -19.9051  -45.2893 H         1 UNK         0.3000 
    150 H150       -1.3626  -20.1048  -42.1886 H         1 UNK         0.0600 
    151 H151        0.8549  -21.1246  -41.7774 H         1 UNK         0.0600 
    152 H152        0.8944  -19.4118  -41.3902 H         1 UNK         0.0600 
    153 H153        1.6217  -19.9987  -42.8853 H         1 UNK         0.0600 
    154 H154        0.1570  -18.0203  -43.4456 H         1 UNK         0.3000 
    155 H155       -2.5260  -16.4577  -45.1697 H         1 UNK         0.0600 
    156 H156       -1.7920  -14.5442  -43.6946 H         1 UNK         0.0600 
    157 H157       -2.9110  -15.6380  -42.9011 H         1 UNK         0.0600 
    158 H158       -1.2037  -15.7127  -42.5130 H         1 UNK         0.0600 
    159 H159        0.2253  -15.7462  -44.7092 H         1 UNK         0.3000 
    160 H160        1.5373  -17.5931  -47.4884 H         1 UNK         0.0600 
    161 H161        1.3466  -14.6012  -46.9062 H         1 UNK         0.0600 
    162 H162        0.7044  -15.3765  -48.3573 H         1 UNK         0.0600 
    163 H163        2.4332  -15.3857  -48.0451 H         1 UNK         0.0600 
    164 H164        2.6487  -15.9018  -45.4132 H         1 UNK         0.3000 
    165 H165        3.2002  -17.8399  -43.0166 H         1 UNK         0.0600 
    166 H166        5.3375  -18.8644  -44.9530 H         1 UNK         0.0600 
    167 H167        5.5428  -18.7158  -43.2072 H         1 UNK         0.0600 
    168 H168        4.3523  -19.8266  -43.8636 H         1 UNK         0.0600 
    169 H169        4.1092  -15.8583  -43.0947 H         1 UNK         0.3000 
    170 H170        6.6003  -14.2478  -44.6367 H         1 UNK         0.0600 
    171 H171        5.2950  -13.7634  -46.6967 H         1 UNK         0.0600 
    172 H172        3.8320  -13.5225  -45.7518 H         1 UNK         0.0600 
    173 H173        5.1894  -12.4093  -45.5852 H         1 UNK         0.0600 
    174 H174        4.0892  -13.4433  -43.3161 H         1 UNK         0.3000 
    175 H175        5.2194  -14.0755  -40.0598 H         1 UNK         0.0600 
    176 H176        4.9168  -11.3174  -41.3718 H         1 UNK         0.0600 
    177 H177        4.7534  -11.6693  -39.6508 H         1 UNK         0.0600 
    178 H178        6.3097  -11.8570  -40.4419 H         1 UNK         0.0600 
    179 H179        2.9116  -12.7325  -41.0579 H         1 UNK         0.3000 
    180 H180        1.0030  -15.5693  -41.9807 H         1 UNK         0.0600 
    181 H181        0.7225  -13.8180  -39.4773 H         1 UNK         0.0600 
    182 H182        0.7245  -15.5774  -39.5066 H         1 UNK         0.0600 
    183 H183       -0.5861  -14.6931  -40.2711 H         1 UNK         0.0600 
    184 H184        0.4928  -12.7268  -41.6768 H         1 UNK         0.3000 
    185 H185        0.0138  -11.5187  -43.5889 H         1 UNK         0.0600 
    186 H186        2.2623  -10.9372  -42.6540 H         1 UNK         0.0600 
    187 H187        3.0266  -11.3670  -44.1798 H         1 UNK         0.0600 
    188 H188        1.9260   -9.9939  -44.0931 H         1 UNK         0.0600 
    189 H189        1.4963  -11.5987  -46.0639 H         1 UNK         0.3000 
    190 H190       -3.7769  -20.1200  -44.6460 H         1 UNK         0.3000 
    191 H191       -6.2862  -21.2328  -44.0148 H         1 UNK         0.0600 
    192 H192       -3.6649  -21.2853  -42.4298 H         1 UNK         0.0600 
    193 H193       -4.8715  -20.0012  -42.3951 H         1 UNK         0.0600 
    194 H194       -5.2641  -21.5939  -41.7660 H         1 UNK         0.0600 
    195 H195       -3.3287  -22.8437  -45.0242 H         1 UNK         0.3000 
    196 H196       -4.3197  -25.5541  -44.4265 H         1 UNK         0.0600 
    197 H197       -1.9078  -24.9652  -44.0878 H         1 UNK         0.0600 
    198 H198       -1.7522  -24.6146  -45.8064 H         1 UNK         0.0600 
    199 H199       -2.1129  -26.2493  -45.2675 H         1 UNK         0.0600 
    200 H200       -5.8869  -23.8586  -46.2151 H         1 UNK         0.3000 
    201 H201       -7.0768  -23.8847  -48.0731 H         1 UNK         0.0600 
    202 H202       -7.5861  -26.0521  -49.1564 H         1 UNK         0.0600 
    203 H203       -7.5661  -26.2431  -47.4113 H         1 UNK         0.0600 
    204 H204       -6.2053  -26.8102  -48.3765 H         1 UNK         0.0600 
    205 H205       -4.6669  -22.6954  -48.3072 H         1 UNK         0.3000 
    206 H206       -3.1214  -21.8347  -49.6841 H         1 UNK         0.0600 
    207 H207       -5.1142  -21.3860  -51.1486 H         1 UNK         0.0600 
    208 H208       -4.7799  -22.8796  -52.0270 H         1 UNK         0.0600 
    209 H209       -3.6059  -21.5673  -52.0223 H         1 UNK         0.0600 
    210 H210       -2.3480  -23.9873  -48.4850 H         1 UNK         0.3000 
    211 H211       -1.0265  -25.7629  -48.3145 H         1 UNK         0.0600 
    212 H212        0.6419  -24.1614  -49.3121 H         1 UNK         0.0600 
    213 H213        1.0072  -25.8349  -49.7049 H         1 UNK         0.0600 
    214 H214        0.2765  -24.7955  -50.9170 H         1 UNK         0.0600 
    215 H215       -3.3977  -26.5415  -49.0675 H         1 UNK         0.3000 
    216 H216       -4.7628  -27.9493  -50.1203 H         1 UNK         0.0600 
    217 H217       -3.9113  -30.2137  -50.6404 H         1 UNK         0.0600 
    218 H218       -2.2509  -29.6349  -50.6221 H         1 UNK         0.0600 
    219 H219       -3.2050  -29.6363  -49.1396 H         1 UNK         0.0600 
    220 H220       -4.3268  -25.8421  -51.5884 H         1 UNK         0.3000 
    221 H221       -4.5180  -24.8194  -53.4909 H         1 UNK         0.0600 
    222 H222       -5.1599  -27.5125  -54.7960 H         1 UNK         0.0600 
    223 H223       -6.3182  -26.4984  -53.9349 H         1 UNK         0.0600 
    224 H224       -5.5745  -25.9222  -55.4162 H         1 UNK         0.0600 
    225 H225       -1.8115  -26.5097  -52.9422 H         1 UNK         0.3000 
    226 H226       -0.5862  -26.4975  -55.5742 H         1 UNK         0.0600 
    227 H227        0.0711  -28.0775  -53.7113 H         1 UNK         0.0600 
    228 H228        1.4270  -27.1834  -54.3840 H         1 UNK         0.0600 
    229 H229        0.7550  -26.7073  -52.8337 H         1 UNK         0.0600 
    230 H230       -1.0561  -24.0920  -53.0748 H         1 UNK         0.3000 
    231 H231        0.7409  -22.1596  -54.4804 H         1 UNK         0.0600 
    232 H232        1.3157  -21.2305  -52.2723 H         1 UNK         0.0600 
    233 H233        1.7597  -22.9301  -52.3026 H         1 UNK         0.0600 
    234 H234        0.3018  -22.4131  -51.4554 H         1 UNK         0.0600 
    235 H235       -1.7852  -22.5292  -55.3085 H         1 UNK         0.3000 
    236 H236       -3.9615  -21.2625  -54.1924 H         1 UNK         0.0600 
    237 H237       -4.0763  -22.6823  -56.1755 H         1 UNK         0.0600 
    238 H238       -4.7725  -21.1132  -56.5478 H         1 UNK         0.0600 
    239 H239       -3.1596  -21.5146  -57.1264 H         1 UNK         0.0600 
    240 H240       -3.6520  -19.3483  -53.1455 H         1 UNK         0.3000 
    241 H241       -3.3851  -17.2357  -52.6878 H         1 UNK         0.0600 
    242 H242        0.2882  -17.5968  -53.5090 H         1 UNK         0.3800 
    243 H243       -0.9346  -18.8228  -53.2402 H         1 UNK         0.3800 
    244 H244       -3.9827  -16.7413  -55.6406 H         1 UNK         0.0800 
    245 H245       -3.7550  -15.4360  -54.5238 H         1 UNK         0.0800 
    246 H246       -7.0567  -14.9578  -52.8513 H         1 UNK         0.0800 
    247 H247       -5.6808  -14.2323  -53.6350 H         1 UNK         0.0800 
@<TRIPOS>BOND
     1    1    2 1    
     2    1  127 1    
     3    1  128 1    
     4    1  129 1    
     5    2    3 2    
     6    2    4 am   BACKBONE|DICT|INTERRES
     7    4    5 1    
     8    4  130 1    
     9    5    6 1    
    10    5   65 1    
    11    5  131 1    
    12    6    7 1    
    13    6  132 1    
    14    6  133 1    
    15    7    8 1    
    16    8    9 1    
    17    8  134 1    
    18    8  135 1    
    19    9   10 ar   
    20    9   14 ar   
    21   10   11 ar   
    22   10  136 1    
    23   11   12 ar   
    24   11  126 1    
    25   12   13 ar   
    26   12  137 1    
    27   13   14 ar   
    28   13   15 1    
    29   14  138 1    
    30   15   16 1    
    31   15  139 1    
    32   15  140 1    
    33   16   17 1    
    34   17   18 1    
    35   17  141 1    
    36   17  142 1    
    37   18   19 1    
    38   18   67 1    
    39   18  143 1    
    40   19   20 am   BACKBONE|DICT|INTERRES
    41   19  144 1    
    42   20   21 2    
    43   20   22 1    
    44   22   23 1    
    45   22   24 1    
    46   22  145 1    
    47   23  146 1    
    48   23  147 1    
    49   23  148 1    
    50   24   25 am   BACKBONE|DICT|INTERRES
    51   24  149 1    
    52   25   26 2    
    53   25   27 1    
    54   27   28 1    
    55   27   29 1    
    56   27  150 1    
    57   28  151 1    
    58   28  152 1    
    59   28  153 1    
    60   29   30 am   BACKBONE|DICT|INTERRES
    61   29  154 1    
    62   30   31 2    
    63   30   32 1    
    64   32   33 1    
    65   32   34 1    
    66   32  155 1    
    67   33  156 1    
    68   33  157 1    
    69   33  158 1    
    70   34   35 am   BACKBONE|DICT|INTERRES
    71   34  159 1    
    72   35   36 2    
    73   35   37 1    
    74   37   38 1    
    75   37   39 1    
    76   37  160 1    
    77   38  161 1    
    78   38  162 1    
    79   38  163 1    
    80   39   40 am   BACKBONE|DICT|INTERRES
    81   39  164 1    
    82   40   41 2    
    83   40   42 1    
    84   42   43 1    
    85   42   44 1    
    86   42  165 1    
    87   43  166 1    
    88   43  167 1    
    89   43  168 1    
    90   44   45 am   BACKBONE|DICT|INTERRES
    91   44  169 1    
    92   45   46 2    
    93   45   47 1    
    94   47   48 1    
    95   47   49 1    
    96   47  170 1    
    97   48  171 1    
    98   48  172 1    
    99   48  173 1    
   100   49   50 am   BACKBONE|DICT|INTERRES
   101   49  174 1    
   102   50   51 2    
   103   50   52 1    
   104   52   53 1    
   105   52   54 1    
   106   52  175 1    
   107   53  176 1    
   108   53  177 1    
   109   53  178 1    
   110   54   55 am   BACKBONE|DICT|INTERRES
   111   54  179 1    
   112   55   56 2    
   113   55   57 1    
   114   57   58 1    
   115   57   59 1    
   116   57  180 1    
   117   58  181 1    
   118   58  182 1    
   119   58  183 1    
   120   59   60 am   BACKBONE|DICT|INTERRES
   121   59  184 1    
   122   60   61 2    
   123   60   62 1    
   124   62   63 1    
   125   62   64 1    
   126   62  185 1    
   127   63  186 1    
   128   63  187 1    
   129   63  188 1    
   130   64   65 am   BACKBONE|DICT|INTERRES
   131   64  189 1    
   132   65   66 2    
   133   67   68 2    
   134   67   69 am   BACKBONE|DICT|INTERRES
   135   69   70 1    
   136   69  190 1    
   137   70   71 1    
   138   70   72 1    
   139   70  191 1    
   140   71  192 1    
   141   71  193 1    
   142   71  194 1    
   143   72   73 2    
   144   72   74 am   BACKBONE|DICT|INTERRES
   145   74   75 1    
   146   74  195 1    
   147   75   76 1    
   148   75   77 1    
   149   75  196 1    
   150   76  197 1    
   151   76  198 1    
   152   76  199 1    
   153   77   78 2    
   154   77   79 am   BACKBONE|DICT|INTERRES
   155   79   80 1    
   156   79  200 1    
   157   80   81 1    
   158   80   82 1    
   159   80  201 1    
   160   81  202 1    
   161   81  203 1    
   162   81  204 1    
   163   82   83 2    
   164   82   84 am   BACKBONE|DICT|INTERRES
   165   84   85 1    
   166   84  205 1    
   167   85   86 1    
   168   85   87 1    
   169   85  206 1    
   170   86  207 1    
   171   86  208 1    
   172   86  209 1    
   173   87   88 2    
   174   87   89 am   BACKBONE|DICT|INTERRES
   175   89   90 1    
   176   89  210 1    
   177   90   91 1    
   178   90   92 1    
   179   90  211 1    
   180   91  212 1    
   181   91  213 1    
   182   91  214 1    
   183   92   93 2    
   184   92   94 am   BACKBONE|DICT|INTERRES
   185   94   95 1    
   186   94  215 1    
   187   95   96 1    
   188   95   97 1    
   189   95  216 1    
   190   96  217 1    
   191   96  218 1    
   192   96  219 1    
   193   97   98 2    
   194   97   99 am   BACKBONE|DICT|INTERRES
   195   99  100 1    
   196   99  220 1    
   197  100  101 1    
   198  100  102 1    
   199  100  221 1    
   200  101  222 1    
   201  101  223 1    
   202  101  224 1    
   203  102  103 2    
   204  102  104 am   BACKBONE|DICT|INTERRES
   205  104  105 1    
   206  104  225 1    
   207  105  106 1    
   208  105  107 1    
   209  105  226 1    
   210  106  227 1    
   211  106  228 1    
   212  106  229 1    
   213  107  108 2    
   214  107  109 am   BACKBONE|DICT|INTERRES
   215  109  110 1    
   216  109  230 1    
   217  110  111 1    
   218  110  112 1    
   219  110  231 1    
   220  111  232 1    
   221  111  233 1    
   222  111  234 1    
   223  112  113 2    
   224  112  114 am   BACKBONE|DICT|INTERRES
   225  114  115 1    
   226  114  235 1    
   227  115  116 1    
   228  115  117 1    
   229  115  236 1    
   230  116  237 1    
   231  116  238 1    
   232  116  239 1    
   233  117  118 2    
   234  117  119 am   BACKBONE|DICT|INTERRES
   235  119  120 1    
   236  119  240 1    
   237  120  121 1    
   238  120  124 1    
   239  120  241 1    
   240  121  122 am   BACKBONE|DICT|INTERRES
   241  121  123 2    
   242  122  242 1    
   243  122  243 1    
   244  124  125 1    
   245  124  244 1    
   246  124  245 1    
   247  125  126 1    
   248  126  246 1    
   249  126  247 1    
@<TRIPOS>SUBSTRUCTURE
     1 UNK         1 GROUP             0       ****    0 ROOT    
