@<TRIPOS>MOLECULE
3R540
247   249    1
SMALL
USER_CHARGES


@<TRIPOS>ATOM
      1 CA          2.3936  -13.8423  -45.6892 C.3       0 UNK        -0.1800 
      2 C           1.7281  -15.0314  -46.3631 C.2       0 UNK         0.5000 
      3 O           1.0937  -15.8460  -45.6908 O.2       0 UNK        -0.5000 
      4 N           1.8754  -15.1300  -47.6898 N.am      1 UNK        -0.5000 
      5 CA          1.3413  -16.1917  -48.5552 C.3       1 UNK         0.1400 
      6 C6          2.2322  -16.4066  -49.8092 C.3       23 UNK        -0.0398 
      7 S7          3.7560  -17.3346  -49.4242 S.3       23 UNK        -0.2404 
      8 C8          4.0312  -18.2925  -50.9533 C.3       23 UNK        -0.0205 
      9 C9          3.0883  -19.4827  -51.0928 C.ar      23 UNK        -0.0193 
     10 C10         1.8927  -19.3512  -51.8043 C.ar      23 UNK        -0.1150 
     11 C11         1.0283  -20.4362  -51.9503 C.ar      23 UNK        -0.0193 
     12 C12         1.3813  -21.6707  -51.4008 C.ar      23 UNK        -0.1150 
     13 C13         2.5858  -21.8374  -50.7109 C.ar      23 UNK        -0.0193 
     14 C14         3.4311  -20.7280  -50.5521 C.ar      23 UNK        -0.1150 
     15 C15         2.9360  -23.2448  -50.2135 C.3       23 UNK        -0.0205 
     16 S16         4.3163  -23.3681  -49.0266 S.3       23 UNK        -0.2404 
     17 C17         3.5552  -22.6847  -47.5186 C.3       23 UNK        -0.0398 
     18 CA          3.5168  -23.6861  -46.3325 C.3       11 UNK         0.1400 
     19 N           3.5999  -22.9694  -45.0558 N.am      11 UNK        -0.5000 
     20 C           4.0081  -23.4808  -43.8877 C.2       10 UNK         0.5000 
     21 O           4.4109  -24.6355  -43.7473 O.2       10 UNK        -0.5000 
     22 CA          3.9125  -22.5467  -42.6658 C.3       10 UNK         0.1400 
     23 CB          5.1236  -21.6035  -42.6040 C.3       10 UNK        -0.1800 
     24 N           2.6799  -21.7536  -42.6566 N.am      10 UNK        -0.5000 
     25 C           1.4495  -22.2558  -42.4754 C.2       9 UNK         0.5000 
     26 O           1.2176  -23.4490  -42.2844 O.2       9 UNK        -0.5000 
     27 CA          0.2775  -21.2644  -42.5717 C.3       9 UNK         0.1400 
     28 CB          0.0740  -20.5151  -41.2463 C.3       9 UNK        -0.1800 
     29 N           0.4836  -20.3062  -43.6559 N.am      9 UNK        -0.5000 
     30 C           0.2953  -20.5998  -44.9499 C.2       8 UNK         0.5000 
     31 O          -0.1298  -21.6849  -45.3502 O.2       8 UNK        -0.5000 
     32 CA          0.6465  -19.5087  -45.9767 C.3       8 UNK         0.1400 
     33 CB         -0.5980  -18.6644  -46.2659 C.3       8 UNK        -0.1800 
     34 N           1.7551  -18.6385  -45.5739 N.am      8 UNK        -0.5000 
     35 C           3.0053  -19.0694  -45.3543 C.2       7 UNK         0.5000 
     36 O           3.3454  -20.2408  -45.4924 O.2       7 UNK        -0.5000 
     37 CA          4.0404  -18.0623  -44.8223 C.3       7 UNK         0.1400 
     38 CB          4.7977  -17.3883  -45.9729 C.3       7 UNK        -0.1800 
     39 N           3.4980  -17.0365  -43.9321 N.am      7 UNK        -0.5000 
     40 C           2.8114  -17.2617  -42.8050 C.2       6 UNK         0.5000 
     41 O           2.4598  -18.3795  -42.4254 O.2       6 UNK        -0.5000 
     42 CA          2.4350  -16.0262  -41.9818 C.3       6 UNK         0.1400 
     43 CB          3.4982  -14.9062  -42.0316 C.3       6 UNK        -0.1800 
     44 N           1.1398  -15.5430  -42.4440 N.am      6 UNK        -0.5000 
     45 C           0.3311  -14.7474  -41.7355 C.2       5 UNK         0.5000 
     46 O           0.6222  -14.2715  -40.6369 O.2       5 UNK        -0.5000 
     47 CA         -1.0517  -14.4529  -42.3411 C.3       5 UNK         0.1400 
     48 CB         -0.9699  -13.3032  -43.3562 C.3       5 UNK        -0.1800 
     49 N          -1.6817  -15.6184  -42.9664 N.am      5 UNK        -0.5000 
     50 C          -2.0621  -16.7263  -42.3082 C.2       4 UNK         0.5000 
     51 O          -1.8328  -16.9158  -41.1125 O.2       4 UNK        -0.5000 
     52 CA         -2.8453  -17.7921  -43.1101 C.3       4 UNK         0.1400 
     53 CB         -3.7419  -18.6771  -42.2201 C.3       4 UNK        -0.1800 
     54 N          -3.6253  -17.2419  -44.2234 N.am      4 UNK        -0.5000 
     55 C          -4.5717  -16.2930  -44.1761 C.2       3 UNK         0.5000 
     56 O          -4.9628  -15.7683  -43.1317 O.2       3 UNK        -0.5000 
     57 CA         -5.1646  -15.8446  -45.5327 C.3       3 UNK         0.1400 
     58 CB         -5.8209  -14.4512  -45.4531 C.3       3 UNK        -0.1800 
     59 N          -4.2279  -15.8726  -46.6672 N.am      3 UNK        -0.5000 
     60 C          -3.0188  -15.2977  -46.7350 C.2       2 UNK         0.5000 
     61 O          -2.4228  -14.8066  -45.7744 O.2       2 UNK        -0.5000 
     62 CA         -2.3783  -15.2245  -48.1238 C.3       2 UNK         0.1400 
     63 CB         -2.6638  -13.8634  -48.7798 C.3       2 UNK        -0.1800 
     64 N          -0.9397  -15.4172  -47.9888 N.am      2 UNK        -0.5000 
     65 C          -0.1497  -15.9657  -48.9170 C.2       1 UNK         0.5000 
     66 O          -0.5772  -16.3218  -50.0156 O.2       1 UNK        -0.5000 
     67 C           2.2907  -24.6314  -46.3993 C.2       11 UNK         0.5000 
     68 O           2.2112  -25.4536  -47.3121 O.2       11 UNK        -0.5000 
     69 N           1.3687  -24.5074  -45.4295 N.am      12 UNK        -0.5000 
     70 CA          0.1351  -25.2820  -45.2507 C.3       12 UNK         0.1400 
     71 CB          0.4547  -26.7577  -44.9345 C.3       12 UNK        -0.1800 
     72 C          -0.8618  -25.1109  -46.4163 C.2       12 UNK         0.5000 
     73 O          -1.5571  -26.0582  -46.7875 O.2       12 UNK        -0.5000 
     74 N          -0.9119  -23.8922  -46.9650 N.am      13 UNK        -0.5000 
     75 CA         -1.7899  -23.4938  -48.0639 C.3       13 UNK         0.1400 
     76 CB         -0.9812  -22.6245  -49.0341 C.3       13 UNK        -0.1800 
     77 C          -3.0538  -22.7630  -47.5730 C.2       13 UNK         0.5000 
     78 O          -3.9791  -22.5775  -48.3654 O.2       13 UNK        -0.5000 
     79 N          -3.0803  -22.3812  -46.2852 N.am      14 UNK        -0.5000 
     80 CA         -4.1847  -21.7436  -45.5624 C.3       14 UNK         0.1400 
     81 CB         -5.3581  -22.7305  -45.3794 C.3       14 UNK        -0.1800 
     82 C          -4.5936  -20.4065  -46.2064 C.2       14 UNK         0.5000 
     83 O          -3.9090  -19.4085  -45.9916 O.2       14 UNK        -0.5000 
     84 N          -5.6755  -20.3995  -46.9969 N.am      15 UNK        -0.5000 
     85 CA         -6.1235  -19.2394  -47.7688 C.3       15 UNK         0.1400 
     86 CB         -7.4587  -19.5599  -48.4504 C.3       15 UNK        -0.1800 
     87 C          -5.0809  -18.7682  -48.7994 C.2       15 UNK         0.5000 
     88 O          -4.9034  -17.5599  -48.9665 O.2       15 UNK        -0.5000 
     89 N          -4.3798  -19.7277  -49.4217 N.am      16 UNK        -0.5000 
     90 CA         -3.2514  -19.5399  -50.3342 C.3       16 UNK         0.1400 
     91 CB         -2.0070  -19.1420  -49.5181 C.3       16 UNK        -0.1800 
     92 C          -3.5915  -18.5828  -51.4967 C.2       16 UNK         0.5000 
     93 O          -4.5294  -18.8645  -52.2461 O.2       16 UNK        -0.5000 
     94 N          -2.8775  -17.4535  -51.6207 N.am      17 UNK        -0.5000 
     95 CA         -3.1144  -16.4453  -52.6573 C.3       17 UNK         0.1400 
     96 CB         -1.9452  -15.4516  -52.6965 C.3       17 UNK        -0.1800 
     97 C          -4.4620  -15.7022  -52.5335 C.2       17 UNK         0.5000 
     98 O          -4.8876  -15.0965  -53.5169 O.2       17 UNK        -0.5000 
     99 N          -5.1339  -15.7796  -51.3719 N.am      18 UNK        -0.5000 
    100 CA        -6.4925  -15.2559  -51.1899 C.3       18 UNK         0.1400 
    101 CB        -6.8142  -15.1122  -49.6932 C.3       18 UNK        -0.1800 
    102 C         -7.5475  -16.1331  -51.8937 C.2       18 UNK         0.5000 
    103 O         -8.5409  -15.6017  -52.3905 O.2       18 UNK        -0.5000 
    104 N         -7.2998  -17.4504  -51.9507 N.am      19 UNK        -0.5000 
    105 CA        -8.0850  -18.4070  -52.7368 C.3       19 UNK         0.1400 
    106 CB        -8.0390  -19.7822  -52.0528 C.3       19 UNK        -0.1800 
    107 C         -7.5795  -18.5197  -54.1876 C.2       19 UNK         0.5000 
    108 O         -8.3289  -18.9729  -55.0530 O.2       19 UNK        -0.5000 
    109 N         -6.3191  -18.1201  -54.4118 N.am      20 UNK        -0.5000 
    110 CA        -5.5411  -18.2329  -55.6469 C.3       20 UNK         0.1400 
    111 CB        -6.1765  -17.4181  -56.7930 C.3       20 UNK        -0.1800 
    112 C         -5.2583  -19.7041  -56.0115 C.2       20 UNK         0.5000 
    113 O         -5.3299  -20.0785  -57.1837 O.2       20 UNK        -0.5000 
    114 N         -4.9429  -20.5115  -54.9914 N.am      21 UNK        -0.5000 
    115 CA        -4.6130  -21.9263  -55.1113 C.3       21 UNK         0.1400 
    116 CB        -5.8480  -22.7710  -54.7579 C.3       21 UNK        -0.1800 
    117 C         -3.4434  -22.2312  -54.1692 C.2       21 UNK         0.5000 
    118 O         -3.4970  -21.8496  -52.9991 O.2       21 UNK        -0.5000 
    119 N         -2.4162  -22.9072  -54.6934 N.am      22 UNK        -0.5000 
    120 CA        -1.1780  -23.2556  -53.9730 C.3       22 UNK         0.1400 
    121 C         -0.8882  -24.7845  -53.9506 C.2       22 UNK         0.5000 
    122 N         -1.7912  -25.6422  -54.4113 N.am      22 UNK        -0.7600 
    123 O          0.1677  -25.2073  -53.4886 O.2       22 UNK        -0.5000 
    124 C124        0.0454  -22.4488  -54.4951 C.3       23 UNK        -0.0398 
    125 S125       -0.1660  -20.6319  -54.4652 S.3       23 UNK        -0.2404 
    126 C126       -0.2921  -20.2639  -52.6858 C.3       23 UNK        -0.0205 
    127 H127        2.3281  -12.9511  -46.3135 H         1 UNK         0.0600 
    128 H128        3.4456  -14.0568  -45.5035 H         1 UNK         0.0600 
    129 H129        1.9151  -13.6211  -44.7358 H         1 UNK         0.0600 
    130 H130        2.3982  -14.4119  -48.1706 H         1 UNK         0.3000 
    131 H131        1.3632  -17.1245  -47.9917 H         1 UNK         0.0600 
    132 H132        2.4962  -15.4533  -50.2689 H         1 UNK         0.0800 
    133 H133        1.7022  -16.9639  -50.5765 H         1 UNK         0.0800 
    134 H134        5.0628  -18.6474  -50.9569 H         1 UNK         0.0800 
    135 H135        3.9402  -17.6320  -51.8171 H         1 UNK         0.0800 
    136 H136        1.6304  -18.4038  -52.2526 H         1 UNK         0.1150 
    137 H137        0.7215  -22.5163  -51.5301 H         1 UNK         0.1150 
    138 H138        4.3708  -20.8256  -50.0291 H         1 UNK         0.1150 
    139 H139        2.0587  -23.7121  -49.7655 H         1 UNK         0.0800 
    140 H140        3.1900  -23.8516  -51.0835 H         1 UNK         0.0800 
    141 H141        4.1826  -21.8309  -47.2634 H         1 UNK         0.0800 
    142 H142        2.5673  -22.2693  -47.7271 H         1 UNK         0.0800 
    143 H143        4.4035  -24.3207  -46.3954 H         1 UNK         0.0600 
    144 H144        3.3569  -21.9803  -45.0918 H         1 UNK         0.3000 
    145 H145        3.9200  -23.1689  -41.7683 H         1 UNK         0.0600 
    146 H146        5.0838  -20.9666  -41.7201 H         1 UNK         0.0600 
    147 H147        5.1779  -20.9579  -43.4807 H         1 UNK         0.0600 
    148 H148        6.0549  -22.1690  -42.5561 H         1 UNK         0.0600 
    149 H149        2.7745  -20.7587  -42.8111 H         1 UNK         0.3000 
    150 H150       -0.6320  -21.8340  -42.7760 H         1 UNK         0.0600 
    151 H151       -0.1713  -21.2102  -40.4425 H         1 UNK         0.0600 
    152 H152       -0.7439  -19.7985  -41.3181 H         1 UNK         0.0600 
    153 H153        0.9683  -19.9705  -40.9433 H         1 UNK         0.0600 
    154 H154        0.9081  -19.4211  -43.4046 H         1 UNK         0.3000 
    155 H155        0.9356  -20.0175  -46.8989 H         1 UNK         0.0600 
    156 H156       -1.4686  -19.3007  -46.4092 H         1 UNK         0.0600 
    157 H157       -0.4823  -18.0970  -47.1813 H         1 UNK         0.0600 
    158 H158       -0.8183  -17.9641  -45.4609 H         1 UNK         0.0600 
    159 H159        1.5472  -17.6497  -45.4595 H         1 UNK         0.3000 
    160 H160        4.7650  -18.6341  -44.2396 H         1 UNK         0.0600 
    161 H161        4.1490  -16.7287  -46.5473 H         1 UNK         0.0600 
    162 H162        5.2063  -18.1296  -46.6612 H         1 UNK         0.0600 
    163 H163        5.6339  -16.7955  -45.6021 H         1 UNK         0.0600 
    164 H164        3.7227  -16.0817  -44.1649 H         1 UNK         0.3000 
    165 H165        2.3371  -16.3599  -40.9464 H         1 UNK         0.0600 
    166 H166        3.2851  -14.1293  -41.2975 H         1 UNK         0.0600 
    167 H167        4.4903  -15.2965  -41.8006 H         1 UNK         0.0600 
    168 H168        3.5478  -14.4260  -43.0081 H         1 UNK         0.0600 
    169 H169        0.8257  -15.8866  -43.3435 H         1 UNK         0.3000 
    170 H170       -1.7008  -14.1302  -41.5244 H         1 UNK         0.0600 
    171 H171       -0.4707  -12.4328  -42.9286 H         1 UNK         0.0600 
    172 H172       -0.4194  -13.5956  -44.2503 H         1 UNK         0.0600 
    173 H173       -1.9650  -12.9863  -43.6690 H         1 UNK         0.0600 
    174 H174       -1.9350  -15.5168  -43.9450 H         1 UNK         0.3000 
    175 H175       -2.0942  -18.4445  -43.5554 H         1 UNK         0.0600 
    176 H176       -4.4943  -18.0886  -41.6943 H         1 UNK         0.0600 
    177 H177       -4.2597  -19.4316  -42.8124 H         1 UNK         0.0600 
    178 H178       -3.1550  -19.2051  -41.4681 H         1 UNK         0.0600 
    179 H179       -3.4563  -17.6833  -45.1220 H         1 UNK         0.3000 
    180 H180       -5.9519  -16.5616  -45.7628 H         1 UNK         0.0600 
    181 H181       -6.2676  -14.1711  -46.4073 H         1 UNK         0.0600 
    182 H182       -5.0957  -13.6823  -45.1839 H         1 UNK         0.0600 
    183 H183       -6.6165  -14.4296  -44.7075 H         1 UNK         0.0600 
    184 H184       -4.5808  -16.3220  -47.5075 H         1 UNK         0.3000 
    185 H185       -2.8005  -16.0124  -48.7477 H         1 UNK         0.0600 
    186 H186       -2.2919  -13.0397  -48.1691 H         1 UNK         0.0600 
    187 H187       -2.1950  -13.7863  -49.7594 H         1 UNK         0.0600 
    188 H188       -3.7347  -13.7132  -48.9189 H         1 UNK         0.0600 
    189 H189       -0.5614  -15.2089  -47.0713 H         1 UNK         0.3000 
    190 H190        1.5322  -23.7992  -44.7276 H         1 UNK         0.3000 
    191 H191       -0.3573  -24.8603  -44.3733 H         1 UNK         0.0600 
    192 H192       -0.4482  -27.3030  -44.6577 H         1 UNK         0.0600 
    193 H193        1.1500  -26.8385  -44.0988 H         1 UNK         0.0600 
    194 H194        0.8963  -27.2699  -45.7897 H         1 UNK         0.0600 
    195 H195       -0.3548  -23.1554  -46.5409 H         1 UNK         0.3000 
    196 H196       -2.1285  -24.3755  -48.6118 H         1 UNK         0.0600 
    197 H197       -0.5125  -21.7792  -48.5301 H         1 UNK         0.0600 
    198 H198       -1.6042  -22.2393  -49.8417 H         1 UNK         0.0600 
    199 H199       -0.1916  -23.2163  -49.4920 H         1 UNK         0.0600 
    200 H200       -2.2325  -22.5144  -45.7499 H         1 UNK         0.3000 
    201 H201       -3.8039  -21.4989  -44.5696 H         1 UNK         0.0600 
    202 H202       -5.7536  -23.0911  -46.3292 H         1 UNK         0.0600 
    203 H203       -6.1795  -22.2657  -44.8323 H         1 UNK         0.0600 
    204 H204       -5.0434  -23.6020  -44.8053 H         1 UNK         0.0600 
    205 H205       -6.1624  -21.2701  -47.1522 H         1 UNK         0.3000 
    206 H206       -6.2909  -18.4193  -47.0706 H         1 UNK         0.0600 
    207 H207       -8.2297  -19.7940  -47.7162 H         1 UNK         0.0600 
    208 H208       -7.8135  -18.7079  -49.0321 H         1 UNK         0.0600 
    209 H209       -7.3683  -20.4121  -49.1247 H         1 UNK         0.0600 
    210 H210       -4.5846  -20.6924  -49.1859 H         1 UNK         0.3000 
    211 H211       -3.0569  -20.5121  -50.7851 H         1 UNK         0.0600 
    212 H212       -2.1571  -18.2024  -48.9915 H         1 UNK         0.0600 
    213 H213       -1.1190  -19.0481  -50.1428 H         1 UNK         0.0600 
    214 H214       -1.7914  -19.8920  -48.7606 H         1 UNK         0.0600 
    215 H215       -2.1275  -17.2511  -50.9662 H         1 UNK         0.3000 
    216 H216       -3.1276  -16.9672  -53.6159 H         1 UNK         0.0600 
    217 H217       -2.0478  -14.7604  -53.5339 H         1 UNK         0.0600 
    218 H218       -0.9914  -15.9661  -52.8153 H         1 UNK         0.0600 
    219 H219       -1.8951  -14.8548  -51.7872 H         1 UNK         0.0600 
    220 H220       -4.7492  -16.3214  -50.6058 H         1 UNK         0.3000 
    221 H221       -6.5343  -14.2589  -51.6340 H         1 UNK         0.0600 
    222 H222       -7.7340  -14.5436  -49.5530 H         1 UNK         0.0600 
    223 H223       -6.9619  -16.0780  -49.2110 H         1 UNK         0.0600 
    224 H224       -6.0230  -14.5848  -49.1611 H         1 UNK         0.0600 
    225 H225       -6.4460  -17.8020  -51.5384 H         1 UNK         0.3000 
    226 H226       -9.1277  -18.0851  -52.7775 H         1 UNK         0.0600 
    227 H227       -8.5699  -19.7596  -51.1026 H         1 UNK         0.0600 
    228 H228       -8.5212  -20.5444  -52.6665 H         1 UNK         0.0600 
    229 H229       -7.0155  -20.1110  -51.8669 H         1 UNK         0.0600 
    230 H230       -5.7839  -17.8555  -53.5956 H         1 UNK         0.3000 
    231 H231       -4.5699  -17.7853  -55.4338 H         1 UNK         0.0600 
    232 H232       -5.5147  -17.3848  -57.6590 H         1 UNK         0.0600 
    233 H233       -6.3616  -16.3884  -56.4868 H         1 UNK         0.0600 
    234 H234       -7.1228  -17.8462  -57.1242 H         1 UNK         0.0600 
    235 H235       -4.8561  -20.1264  -54.0559 H         1 UNK         0.3000 
    236 H236       -4.3073  -22.1583  -56.1338 H         1 UNK         0.0600 
    237 H237       -6.1955  -22.5692  -53.7437 H         1 UNK         0.0600 
    238 H238       -6.6730  -22.5650  -55.4401 H         1 UNK         0.0600 
    239 H239       -5.6258  -23.8365  -54.8256 H         1 UNK         0.0600 
    240 H240       -2.4472  -23.1817  -55.6649 H         1 UNK         0.3000 
    241 H241       -1.3016  -23.0165  -52.9169 H         1 UNK         0.0600 
    242 H242       -1.5915  -26.6301  -54.3840 H         1 UNK         0.3800 
    243 H243       -2.6815  -25.3234  -54.7583 H         1 UNK         0.3800 
    244 H244        0.2564  -22.7328  -55.5271 H         1 UNK         0.0800 
    245 H245        0.9478  -22.6968  -53.9358 H         1 UNK         0.0800 
    246 H246       -1.0645  -20.8773  -52.2242 H         1 UNK         0.0800 
    247 H247       -0.6335  -19.2332  -52.5813 H         1 UNK         0.0800 
@<TRIPOS>BOND
     1    1    2 1    
     2    1  127 1    
     3    1  128 1    
     4    1  129 1    
     5    2    3 2    
     6    2    4 am   BACKBONE|DICT|INTERRES
     7    4    5 1    
     8    4  130 1    
     9    5    6 1    
    10    5   65 1    
    11    5  131 1    
    12    6    7 1    
    13    6  132 1    
    14    6  133 1    
    15    7    8 1    
    16    8    9 1    
    17    8  134 1    
    18    8  135 1    
    19    9   10 ar   
    20    9   14 ar   
    21   10   11 ar   
    22   10  136 1    
    23   11   12 ar   
    24   11  126 1    
    25   12   13 ar   
    26   12  137 1    
    27   13   14 ar   
    28   13   15 1    
    29   14  138 1    
    30   15   16 1    
    31   15  139 1    
    32   15  140 1    
    33   16   17 1    
    34   17   18 1    
    35   17  141 1    
    36   17  142 1    
    37   18   19 1    
    38   18   67 1    
    39   18  143 1    
    40   19   20 am   BACKBONE|DICT|INTERRES
    41   19  144 1    
    42   20   21 2    
    43   20   22 1    
    44   22   23 1    
    45   22   24 1    
    46   22  145 1    
    47   23  146 1    
    48   23  147 1    
    49   23  148 1    
    50   24   25 am   BACKBONE|DICT|INTERRES
    51   24  149 1    
    52   25   26 2    
    53   25   27 1    
    54   27   28 1    
    55   27   29 1    
    56   27  150 1    
    57   28  151 1    
    58   28  152 1    
    59   28  153 1    
    60   29   30 am   BACKBONE|DICT|INTERRES
    61   29  154 1    
    62   30   31 2    
    63   30   32 1    
    64   32   33 1    
    65   32   34 1    
    66   32  155 1    
    67   33  156 1    
    68   33  157 1    
    69   33  158 1    
    70   34   35 am   BACKBONE|DICT|INTERRES
    71   34  159 1    
    72   35   36 2    
    73   35   37 1    
    74   37   38 1    
    75   37   39 1    
    76   37  160 1    
    77   38  161 1    
    78   38  162 1    
    79   38  163 1    
    80   39   40 am   BACKBONE|DICT|INTERRES
    81   39  164 1    
    82   40   41 2    
    83   40   42 1    
    84   42   43 1    
    85   42   44 1    
    86   42  165 1    
    87   43  166 1    
    88   43  167 1    
    89   43  168 1    
    90   44   45 am   BACKBONE|DICT|INTERRES
    91   44  169 1    
    92   45   46 2    
    93   45   47 1    
    94   47   48 1    
    95   47   49 1    
    96   47  170 1    
    97   48  171 1    
    98   48  172 1    
    99   48  173 1    
   100   49   50 am   BACKBONE|DICT|INTERRES
   101   49  174 1    
   102   50   51 2    
   103   50   52 1    
   104   52   53 1    
   105   52   54 1    
   106   52  175 1    
   107   53  176 1    
   108   53  177 1    
   109   53  178 1    
   110   54   55 am   BACKBONE|DICT|INTERRES
   111   54  179 1    
   112   55   56 2    
   113   55   57 1    
   114   57   58 1    
   115   57   59 1    
   116   57  180 1    
   117   58  181 1    
   118   58  182 1    
   119   58  183 1    
   120   59   60 am   BACKBONE|DICT|INTERRES
   121   59  184 1    
   122   60   61 2    
   123   60   62 1    
   124   62   63 1    
   125   62   64 1    
   126   62  185 1    
   127   63  186 1    
   128   63  187 1    
   129   63  188 1    
   130   64   65 am   BACKBONE|DICT|INTERRES
   131   64  189 1    
   132   65   66 2    
   133   67   68 2    
   134   67   69 am   BACKBONE|DICT|INTERRES
   135   69   70 1    
   136   69  190 1    
   137   70   71 1    
   138   70   72 1    
   139   70  191 1    
   140   71  192 1    
   141   71  193 1    
   142   71  194 1    
   143   72   73 2    
   144   72   74 am   BACKBONE|DICT|INTERRES
   145   74   75 1    
   146   74  195 1    
   147   75   76 1    
   148   75   77 1    
   149   75  196 1    
   150   76  197 1    
   151   76  198 1    
   152   76  199 1    
   153   77   78 2    
   154   77   79 am   BACKBONE|DICT|INTERRES
   155   79   80 1    
   156   79  200 1    
   157   80   81 1    
   158   80   82 1    
   159   80  201 1    
   160   81  202 1    
   161   81  203 1    
   162   81  204 1    
   163   82   83 2    
   164   82   84 am   BACKBONE|DICT|INTERRES
   165   84   85 1    
   166   84  205 1    
   167   85   86 1    
   168   85   87 1    
   169   85  206 1    
   170   86  207 1    
   171   86  208 1    
   172   86  209 1    
   173   87   88 2    
   174   87   89 am   BACKBONE|DICT|INTERRES
   175   89   90 1    
   176   89  210 1    
   177   90   91 1    
   178   90   92 1    
   179   90  211 1    
   180   91  212 1    
   181   91  213 1    
   182   91  214 1    
   183   92   93 2    
   184   92   94 am   BACKBONE|DICT|INTERRES
   185   94   95 1    
   186   94  215 1    
   187   95   96 1    
   188   95   97 1    
   189   95  216 1    
   190   96  217 1    
   191   96  218 1    
   192   96  219 1    
   193   97   98 2    
   194   97   99 am   BACKBONE|DICT|INTERRES
   195   99  100 1    
   196   99  220 1    
   197  100  101 1    
   198  100  102 1    
   199  100  221 1    
   200  101  222 1    
   201  101  223 1    
   202  101  224 1    
   203  102  103 2    
   204  102  104 am   BACKBONE|DICT|INTERRES
   205  104  105 1    
   206  104  225 1    
   207  105  106 1    
   208  105  107 1    
   209  105  226 1    
   210  106  227 1    
   211  106  228 1    
   212  106  229 1    
   213  107  108 2    
   214  107  109 am   BACKBONE|DICT|INTERRES
   215  109  110 1    
   216  109  230 1    
   217  110  111 1    
   218  110  112 1    
   219  110  231 1    
   220  111  232 1    
   221  111  233 1    
   222  111  234 1    
   223  112  113 2    
   224  112  114 am   BACKBONE|DICT|INTERRES
   225  114  115 1    
   226  114  235 1    
   227  115  116 1    
   228  115  117 1    
   229  115  236 1    
   230  116  237 1    
   231  116  238 1    
   232  116  239 1    
   233  117  118 2    
   234  117  119 am   BACKBONE|DICT|INTERRES
   235  119  120 1    
   236  119  240 1    
   237  120  121 1    
   238  120  124 1    
   239  120  241 1    
   240  121  122 am   BACKBONE|DICT|INTERRES
   241  121  123 2    
   242  122  242 1    
   243  122  243 1    
   244  124  125 1    
   245  124  244 1    
   246  124  245 1    
   247  125  126 1    
   248  126  246 1    
   249  126  247 1    
@<TRIPOS>SUBSTRUCTURE
     1 UNK         1 GROUP             0       ****    0 ROOT    
