@<TRIPOS>MOLECULE
3R540
247   249    1
SMALL
USER_CHARGES


@<TRIPOS>ATOM
      1 CA         -2.0786  -15.9362  -49.2088 C.3       0 UNK        -0.1800 
      2 C          -2.8854  -14.6465  -49.2026 C.2       0 UNK         0.5000 
      3 O          -2.6588  -13.7881  -50.0551 O.2       0 UNK        -0.5000 
      4 N          -3.7996  -14.5001  -48.2310 N.am      1 UNK        -0.5000 
      5 CA         -4.5826  -13.2857  -47.9488 C.3       1 UNK         0.1400 
      6 C6         -5.6516  -12.9599  -49.0328 C.3       23 UNK        -0.0398 
      7 S7         -7.1719  -13.9410  -48.8012 S.3       23 UNK        -0.2404 
      8 C8         -7.3012  -14.8608  -50.3685 C.3       23 UNK        -0.0205 
      9 C9         -6.3239  -16.0245  -50.4598 C.ar      23 UNK        -0.0193 
     10 C10        -5.4919  -16.1581  -51.5748 C.ar      23 UNK        -0.1150 
     11 C11        -4.6211  -17.2469  -51.6885 C.ar      23 UNK        -0.0193 
     12 C12        -4.5743  -18.1963  -50.6615 C.ar      23 UNK        -0.1150 
     13 C13        -5.3802  -18.0582  -49.5288 C.ar      23 UNK        -0.0193 
     14 C14        -6.2670  -16.9833  -49.4437 C.ar      23 UNK        -0.1150 
     15 C15        -5.2679  -19.0445  -48.3785 C.3       23 UNK        -0.0205 
     16 S16        -3.9553  -18.5250  -47.2306 S.3       23 UNK        -0.2404 
     17 C17        -4.1890  -19.6903  -45.8503 C.3       23 UNK        -0.0398 
     18 CA         -3.4887  -21.0460  -46.0943 C.3       11 UNK         0.1400 
     19 N          -2.0306  -20.9260  -46.2067 N.am      11 UNK        -0.5000 
     20 C          -1.2430  -21.8784  -46.7265 C.2       10 UNK         0.5000 
     21 O          -1.6612  -22.9442  -47.1721 O.2       10 UNK        -0.5000 
     22 CA          0.2731  -21.6261  -46.7055 C.3       10 UNK         0.1400 
     23 CB          0.6826  -20.6608  -47.8249 C.3       10 UNK        -0.1800 
     24 N           0.7461  -21.1310  -45.4141 N.am      10 UNK        -0.5000 
     25 C           0.6665  -21.8212  -44.2674 C.2       9 UNK         0.5000 
     26 O           0.2173  -22.9644  -44.1871 O.2       9 UNK        -0.5000 
     27 CA          1.1347  -21.1066  -42.9879 C.3       9 UNK         0.1400 
     28 CB          2.6604  -21.2057  -42.8428 C.3       9 UNK        -0.1800 
     29 N           0.7214  -19.7037  -42.9304 N.am      9 UNK        -0.5000 
     30 C          -0.5519  -19.2837  -42.8947 C.2       8 UNK         0.5000 
     31 O          -1.5222  -20.0402  -42.8875 O.2       8 UNK        -0.5000 
     32 CA         -0.7842  -17.7620  -42.9294 C.3       8 UNK         0.1400 
     33 CB         -0.4839  -17.1214  -41.5661 C.3       8 UNK        -0.1800 
     34 N           0.0037  -17.1001  -43.9677 N.am      8 UNK        -0.5000 
     35 C          -0.0978  -17.3605  -45.2788 C.2       7 UNK         0.5000 
     36 O          -0.8943  -18.1652  -45.7614 O.2       7 UNK        -0.5000 
     37 CA          0.9050  -16.6419  -46.1954 C.3       7 UNK         0.1400 
     38 CB          0.4776  -15.1879  -46.4515 C.3       7 UNK        -0.1800 
     39 N           2.2594  -16.6712  -45.6409 N.am      7 UNK        -0.5000 
     40 C           3.0005  -17.7819  -45.5136 C.2       6 UNK         0.5000 
     41 O           2.6348  -18.8959  -45.8853 O.2       6 UNK        -0.5000 
     42 CA          4.3643  -17.6283  -44.8167 C.3       6 UNK         0.1400 
     43 CB          5.4234  -17.1134  -45.8027 C.3       6 UNK        -0.1800 
     44 N           4.3066  -16.7384  -43.6568 N.am      6 UNK        -0.5000 
     45 C           3.6210  -16.9986  -42.5344 C.2       5 UNK         0.5000 
     46 O           2.9876  -18.0350  -42.3434 O.2       5 UNK        -0.5000 
     47 CA          3.6004  -15.8930  -41.4639 C.3       5 UNK         0.1400 
     48 CB          4.8103  -16.0251  -40.5272 C.3       5 UNK        -0.1800 
     49 N           3.5661  -14.5417  -42.0289 N.am      5 UNK        -0.5000 
     50 C           2.5778  -14.0647  -42.7966 C.2       4 UNK         0.5000 
     51 O           1.6019  -14.7309  -43.1508 O.2       4 UNK        -0.5000 
     52 CA          2.7431  -12.6188  -43.2977 C.3       4 UNK         0.1400 
     53 CB          3.3512  -12.6160  -44.7091 C.3       4 UNK        -0.1800 
     54 N           1.4764  -11.8902  -43.3303 N.am      4 UNK        -0.5000 
     55 C           0.7075  -11.6135  -42.2676 C.2       3 UNK         0.5000 
     56 O           1.0156  -11.9026  -41.1101 O.2       3 UNK        -0.5000 
     57 CA         -0.6146  -10.8603  -42.5275 C.3       3 UNK         0.1400 
     58 CB         -0.5620   -9.4504  -41.9159 C.3       3 UNK        -0.1800 
     59 N          -0.9589  -10.7382  -43.9478 N.am      3 UNK        -0.5000 
     60 C          -1.4787  -11.7192  -44.6943 C.2       2 UNK         0.5000 
     61 O          -1.7147  -12.8548  -44.2738 O.2       2 UNK        -0.5000 
     62 CA         -1.7652  -11.3704  -46.1609 C.3       2 UNK         0.1400 
     63 CB         -0.4779  -11.3960  -47.0035 C.3       2 UNK        -0.1800 
     64 N          -2.7151  -12.3398  -46.6904 N.am      2 UNK        -0.5000 
     65 C          -3.6550  -12.0937  -47.6092 C.2       1 UNK         0.5000 
     66 O          -3.7909  -11.0024  -48.1665 O.2       1 UNK        -0.5000 
     67 C          -3.9232  -22.0798  -45.0337 C.2       11 UNK         0.5000 
     68 O          -4.9792  -22.6919  -45.1977 O.2       11 UNK        -0.5000 
     69 N          -3.1239  -22.2586  -43.9713 N.am      12 UNK        -0.5000 
     70 CA         -3.3515  -23.2632  -42.9298 C.3       12 UNK         0.1400 
     71 CB         -2.4689  -22.9560  -41.7106 C.3       12 UNK        -0.1800 
     72 C          -3.1132  -24.7032  -43.4226 C.2       12 UNK         0.5000 
     73 O          -3.7910  -25.6201  -42.9553 O.2       12 UNK        -0.5000 
     74 N          -2.1671  -24.8800  -44.3547 N.am      13 UNK        -0.5000 
     75 CA         -1.9032  -26.1437  -45.0396 C.3       13 UNK         0.1400 
     76 CB         -0.5648  -26.0415  -45.7884 C.3       13 UNK        -0.1800 
     77 C          -3.0403  -26.5053  -46.0133 C.2       13 UNK         0.5000 
     78 O          -3.6725  -25.6155  -46.5857 O.2       13 UNK        -0.5000 
     79 N          -3.2497  -27.8122  -46.2224 N.am      14 UNK        -0.5000 
     80 CA         -4.2997  -28.3699  -47.0853 C.3       14 UNK         0.1400 
     81 CB         -4.3218  -29.8971  -46.9178 C.3       14 UNK        -0.1800 
     82 C          -4.1682  -27.9932  -48.5760 C.2       14 UNK         0.5000 
     83 O          -5.1644  -28.0225  -49.2994 O.2       14 UNK        -0.5000 
     84 N          -2.9488  -27.6373  -49.0018 N.am      15 UNK        -0.5000 
     85 CA         -2.6343  -27.1268  -50.3351 C.3       15 UNK         0.1400 
     86 CB         -1.1081  -27.1047  -50.4992 C.3       15 UNK        -0.1800 
     87 C          -3.2345  -25.7341  -50.6156 C.2       15 UNK         0.5000 
     88 O          -3.5474  -25.4429  -51.7707 O.2       15 UNK        -0.5000 
     89 N          -3.3925  -24.9111  -49.5661 N.am      16 UNK        -0.5000 
     90 CA         -3.9921  -23.5740  -49.5644 C.3       16 UNK         0.1400 
     91 CB         -5.5306  -23.6961  -49.6185 C.3       16 UNK        -0.1800 
     92 C          -3.3963  -22.6486  -50.6479 C.2       16 UNK         0.5000 
     93 O          -2.2264  -22.2690  -50.5594 O.2       16 UNK        -0.5000 
     94 N          -4.1954  -22.3380  -51.6770 N.am      17 UNK        -0.5000 
     95 CA         -3.8194  -21.5263  -52.8325 C.3       17 UNK         0.1400 
     96 CB         -5.0563  -21.2974  -53.7126 C.3       17 UNK        -0.1800 
     97 C          -2.6550  -22.0990  -53.6624 C.2       17 UNK         0.5000 
     98 O          -1.9426  -21.3202  -54.2915 O.2       17 UNK        -0.5000 
     99 N          -2.4500  -23.4245  -53.6366 N.am      18 UNK        -0.5000 
    100 CA        -1.3250  -24.0761  -54.3106 C.3       18 UNK         0.1400 
    101 CB        -1.6177  -25.5727  -54.4928 C.3       18 UNK        -0.1800 
    102 C          0.0109  -23.8594  -53.5742 C.2       18 UNK         0.5000 
    103 O          1.0502  -23.7887  -54.2301 O.2       18 UNK        -0.5000 
    104 N         -0.0331  -23.7271  -52.2394 N.am      19 UNK        -0.5000 
    105 CA         1.1317  -23.3953  -51.4144 C.3       19 UNK         0.1400 
    106 CB         0.8977  -23.8440  -49.9631 C.3       19 UNK        -0.1800 
    107 C          1.4564  -21.8942  -51.4742 C.2       19 UNK         0.5000 
    108 O          2.6286  -21.5234  -51.5337 O.2       19 UNK        -0.5000 
    109 N          0.4074  -21.0616  -51.4788 N.am      20 UNK        -0.5000 
    110 CA         0.4987  -19.6024  -51.5568 C.3       20 UNK         0.1400 
    111 CB        -0.8025  -19.0086  -50.9990 C.3       20 UNK        -0.1800 
    112 C          0.7775  -19.0690  -52.9788 C.2       20 UNK         0.5000 
    113 O          0.9857  -17.8654  -53.1368 O.2       20 UNK        -0.5000 
    114 N          0.7367  -19.9516  -53.9871 N.am      21 UNK        -0.5000 
    115 CA         0.8781  -19.7342  -55.4341 C.3       21 UNK         0.1400 
    116 CB         2.2251  -19.0768  -55.7894 C.3       21 UNK        -0.1800 
    117 C         -0.3069  -18.9819  -56.0724 C.2       21 UNK         0.5000 
    118 O         -0.7900  -19.4022  -57.1243 O.2       21 UNK        -0.5000 
    119 N         -0.7732  -17.9131  -55.4149 N.am      22 UNK        -0.5000 
    120 CA        -1.9929  -17.1507  -55.7318 C.3       22 UNK         0.1400 
    121 C         -1.9531  -16.3297  -57.0578 C.2       22 UNK         0.5000 
    122 N         -0.7914  -16.1053  -57.6595 N.am      22 UNK        -0.7600 
    123 O         -2.9817  -15.8583  -57.5351 O.2       22 UNK        -0.5000 
    124 C124       -3.2768  -18.0255  -55.5746 C.3       23 UNK        -0.0398 
    125 S125       -4.5428  -17.2881  -54.4875 S.3       23 UNK        -0.2404 
    126 C126       -3.6827  -17.3665  -52.8819 C.3       23 UNK        -0.0205 
    127 H127       -2.4195  -16.5854  -50.0111 H         1 UNK         0.0600 
    128 H128       -2.1677  -16.4751  -48.2665 H         1 UNK         0.0600 
    129 H129       -1.0227  -15.7210  -49.3716 H         1 UNK         0.0600 
    130 H130       -3.9525  -15.2679  -47.5923 H         1 UNK         0.3000 
    131 H131       -5.1118  -13.4847  -47.0154 H         1 UNK         0.0600 
    132 H132       -5.9720  -11.9185  -48.9791 H         1 UNK         0.0800 
    133 H133       -5.2527  -13.0959  -50.0384 H         1 UNK         0.0800 
    134 H134       -7.1723  -14.1698  -51.2030 H         1 UNK         0.0800 
    135 H135       -8.3134  -15.2578  -50.4545 H         1 UNK         0.0800 
    136 H136       -5.5219  -15.4163  -52.3604 H         1 UNK         0.1150 
    137 H137       -3.8838  -19.0247  -50.7168 H         1 UNK         0.1150 
    138 H138       -6.8987  -16.8786  -48.5728 H         1 UNK         0.1150 
    139 H139       -6.2191  -19.1114  -47.8483 H         1 UNK         0.0800 
    140 H140       -5.0496  -20.0431  -48.7598 H         1 UNK         0.0800 
    141 H141       -5.2608  -19.8232  -45.6911 H         1 UNK         0.0800 
    142 H142       -3.8014  -19.2244  -44.9424 H         1 UNK         0.0800 
    143 H143       -3.8537  -21.4249  -47.0498 H         1 UNK         0.0600 
    144 H144       -1.6174  -20.0502  -45.8987 H         1 UNK         0.3000 
    145 H145        0.7657  -22.5826  -46.8929 H         1 UNK         0.0600 
    146 H146        0.2988  -19.6550  -47.6565 H         1 UNK         0.0600 
    147 H147        1.7666  -20.5978  -47.9185 H         1 UNK         0.0600 
    148 H148        0.2917  -21.0037  -48.7808 H         1 UNK         0.0600 
    149 H149        1.1727  -20.2102  -45.4097 H         1 UNK         0.3000 
    150 H150        0.6809  -21.6194  -42.1377 H         1 UNK         0.0600 
    151 H151        2.9909  -22.2445  -42.8806 H         1 UNK         0.0600 
    152 H152        2.9927  -20.7938  -41.8899 H         1 UNK         0.0600 
    153 H153        3.1755  -20.6665  -43.6386 H         1 UNK         0.0600 
    154 H154        1.4691  -19.0154  -42.8957 H         1 UNK         0.3000 
    155 H155       -1.8382  -17.5924  -43.1591 H         1 UNK         0.0600 
    156 H156       -1.0974  -17.5677  -40.7826 H         1 UNK         0.0600 
    157 H157        0.5596  -17.2510  -41.2799 H         1 UNK         0.0600 
    158 H158       -0.6959  -16.0520  -41.5783 H         1 UNK         0.0600 
    159 H159        0.6656  -16.3928  -43.6614 H         1 UNK         0.3000 
    160 H160        0.9160  -17.1659  -47.1536 H         1 UNK         0.0600 
    161 H161        1.1394  -14.7038  -47.1696 H         1 UNK         0.0600 
    162 H162       -0.5327  -15.1426  -46.8578 H         1 UNK         0.0600 
    163 H163        0.4810  -14.5939  -45.5375 H         1 UNK         0.0600 
    164 H164        2.6092  -15.8085  -45.2528 H         1 UNK         0.3000 
    165 H165        4.6732  -18.6167  -44.4695 H         1 UNK         0.0600 
    166 H166        6.4096  -17.0789  -45.3393 H         1 UNK         0.0600 
    167 H167        5.4970  -17.7680  -46.6723 H         1 UNK         0.0600 
    168 H168        5.1868  -16.1120  -46.1645 H         1 UNK         0.0600 
    169 H169        4.8002  -15.8612  -43.7265 H         1 UNK         0.3000 
    170 H170        2.6941  -16.0269  -40.8699 H         1 UNK         0.0600 
    171 H171        4.8485  -17.0182  -40.0773 H         1 UNK         0.0600 
    172 H172        5.7506  -15.8685  -41.0574 H         1 UNK         0.0600 
    173 H173        4.7592  -15.3030  -39.7122 H         1 UNK         0.0600 
    174 H174        4.3388  -13.9364  -41.7911 H         1 UNK         0.3000 
    175 H175        3.4171  -12.0860  -42.6239 H         1 UNK         0.0600 
    176 H176        2.6983  -13.1093  -45.4305 H         1 UNK         0.0600 
    177 H177        3.5290  -11.5992  -45.0599 H         1 UNK         0.0600 
    178 H178        4.3104  -13.1351  -44.7252 H         1 UNK         0.0600 
    179 H179        1.1299  -11.6298  -44.2401 H         1 UNK         0.3000 
    180 H180       -1.4067  -11.4187  -42.0240 H         1 UNK         0.0600 
    181 H181        0.2155   -8.8405  -42.3775 H         1 UNK         0.0600 
    182 H182       -0.3531   -9.4936  -40.8462 H         1 UNK         0.0600 
    183 H183       -1.5132   -8.9317  -42.0371 H         1 UNK         0.0600 
    184 H184       -0.7898   -9.8364  -44.3706 H         1 UNK         0.3000 
    185 H185       -2.2029  -10.3702  -46.1917 H         1 UNK         0.0600 
    186 H186       -0.6859  -11.1533  -48.0458 H         1 UNK         0.0600 
    187 H187        0.2472  -10.6671  -46.6402 H         1 UNK         0.0600 
    188 H188       -0.0010  -12.3757  -46.9799 H         1 UNK         0.0600 
    189 H189       -2.6873  -13.2402  -46.2289 H         1 UNK         0.3000 
    190 H190       -2.3136  -21.6589  -43.8566 H         1 UNK         0.3000 
    191 H191       -4.3944  -23.1925  -42.6138 H         1 UNK         0.0600 
    192 H192       -1.4092  -22.9842  -41.9636 H         1 UNK         0.0600 
    193 H193       -2.6355  -23.6827  -40.9147 H         1 UNK         0.0600 
    194 H194       -2.6909  -21.9706  -41.3009 H         1 UNK         0.0600 
    195 H195       -1.6460  -24.0736  -44.6765 H         1 UNK         0.3000 
    196 H196       -1.8207  -26.9293  -44.2857 H         1 UNK         0.0600 
    197 H197       -0.3020  -26.9919  -46.2542 H         1 UNK         0.0600 
    198 H198        0.2470  -25.7765  -45.1106 H         1 UNK         0.0600 
    199 H199       -0.5985  -25.2894  -46.5769 H         1 UNK         0.0600 
    200 H200       -2.6783  -28.4829  -45.7285 H         1 UNK         0.3000 
    201 H201       -5.2563  -27.9744  -46.7377 H         1 UNK         0.0600 
    202 H202       -4.5097  -30.1786  -45.8814 H         1 UNK         0.0600 
    203 H203       -3.3775  -30.3488  -47.2241 H         1 UNK         0.0600 
    204 H204       -5.1115  -30.3459  -47.5221 H         1 UNK         0.0600 
    205 H205       -2.1921  -27.6612  -48.3352 H         1 UNK         0.3000 
    206 H206       -3.0495  -27.8151  -51.0743 H         1 UNK         0.0600 
    207 H207       -0.7000  -28.1155  -50.5015 H         1 UNK         0.0600 
    208 H208       -0.8087  -26.6321  -51.4347 H         1 UNK         0.0600 
    209 H209       -0.6340  -26.5578  -49.6851 H         1 UNK         0.0600 
    210 H210       -3.1223  -25.2455  -48.6484 H         1 UNK         0.3000 
    211 H211       -3.7416  -23.1240  -48.6066 H         1 UNK         0.0600 
    212 H212       -5.8732  -24.2099  -50.5175 H         1 UNK         0.0600 
    213 H213       -6.0081  -22.7159  -49.5844 H         1 UNK         0.0600 
    214 H214       -5.8997  -24.2594  -48.7609 H         1 UNK         0.0600 
    215 H215       -5.1260  -22.7292  -51.6889 H         1 UNK         0.3000 
    216 H216       -3.4931  -20.5588  -52.4552 H         1 UNK         0.0600 
    217 H217       -4.8130  -20.6829  -54.5801 H         1 UNK         0.0600 
    218 H218       -5.8407  -20.7781  -53.1614 H         1 UNK         0.0600 
    219 H219       -5.4670  -22.2381  -54.0813 H         1 UNK         0.0600 
    220 H220       -3.0502  -24.0160  -53.0687 H         1 UNK         0.3000 
    221 H221       -1.2240  -23.6388  -55.3065 H         1 UNK         0.0600 
    222 H222       -1.7007  -26.0913  -53.5392 H         1 UNK         0.0600 
    223 H223       -2.5472  -25.7287  -55.0405 H         1 UNK         0.0600 
    224 H224       -0.8215  -26.0578  -55.0586 H         1 UNK         0.0600 
    225 H225       -0.9322  -23.7319  -51.7767 H         1 UNK         0.3000 
    226 H226        2.0028  -23.9352  -51.7922 H         1 UNK         0.0600 
    227 H227        0.9049  -24.9294  -49.8888 H         1 UNK         0.0600 
    228 H228        1.6875  -23.4777  -49.3059 H         1 UNK         0.0600 
    229 H229       -0.0516  -23.4823  -49.5673 H         1 UNK         0.0600 
    230 H230       -0.5216  -21.4546  -51.3669 H         1 UNK         0.3000 
    231 H231        1.3220  -19.2660  -50.9231 H         1 UNK         0.0600 
    232 H232       -0.8249  -17.9251  -51.1151 H         1 UNK         0.0600 
    233 H233       -0.9186  -19.2232  -49.9369 H         1 UNK         0.0600 
    234 H234       -1.6685  -19.4184  -51.5135 H         1 UNK         0.0600 
    235 H235        0.4720  -20.8939  -53.7367 H         1 UNK         0.3000 
    236 H236        0.8804  -20.7338  -55.8718 H         1 UNK         0.0600 
    237 H237        2.3638  -19.0405  -56.8705 H         1 UNK         0.0600 
    238 H238        3.0599  -19.6409  -55.3733 H         1 UNK         0.0600 
    239 H239        2.2941  -18.0534  -55.4202 H         1 UNK         0.0600 
    240 H240       -0.2725  -17.6362  -54.5755 H         1 UNK         0.3000 
    241 H241       -2.0101  -16.3751  -54.9672 H         1 UNK         0.0600 
    242 H242        0.0624  -16.4797  -57.2777 H         1 UNK         0.3800 
    243 H243       -0.7677  -15.5653  -58.5104 H         1 UNK         0.3800 
    244 H244       -3.7323  -18.2472  -56.5411 H         1 UNK         0.0800 
    245 H245       -3.0358  -19.0029  -55.1560 H         1 UNK         0.0800 
    246 H246       -3.1249  -18.2995  -52.8349 H         1 UNK         0.0800 
    247 H247       -2.9465  -16.5642  -52.8226 H         1 UNK         0.0800 
@<TRIPOS>BOND
     1    1    2 1    
     2    1  127 1    
     3    1  128 1    
     4    1  129 1    
     5    2    3 2    
     6    2    4 am   BACKBONE|DICT|INTERRES
     7    4    5 1    
     8    4  130 1    
     9    5    6 1    
    10    5   65 1    
    11    5  131 1    
    12    6    7 1    
    13    6  132 1    
    14    6  133 1    
    15    7    8 1    
    16    8    9 1    
    17    8  134 1    
    18    8  135 1    
    19    9   10 ar   
    20    9   14 ar   
    21   10   11 ar   
    22   10  136 1    
    23   11   12 ar   
    24   11  126 1    
    25   12   13 ar   
    26   12  137 1    
    27   13   14 ar   
    28   13   15 1    
    29   14  138 1    
    30   15   16 1    
    31   15  139 1    
    32   15  140 1    
    33   16   17 1    
    34   17   18 1    
    35   17  141 1    
    36   17  142 1    
    37   18   19 1    
    38   18   67 1    
    39   18  143 1    
    40   19   20 am   BACKBONE|DICT|INTERRES
    41   19  144 1    
    42   20   21 2    
    43   20   22 1    
    44   22   23 1    
    45   22   24 1    
    46   22  145 1    
    47   23  146 1    
    48   23  147 1    
    49   23  148 1    
    50   24   25 am   BACKBONE|DICT|INTERRES
    51   24  149 1    
    52   25   26 2    
    53   25   27 1    
    54   27   28 1    
    55   27   29 1    
    56   27  150 1    
    57   28  151 1    
    58   28  152 1    
    59   28  153 1    
    60   29   30 am   BACKBONE|DICT|INTERRES
    61   29  154 1    
    62   30   31 2    
    63   30   32 1    
    64   32   33 1    
    65   32   34 1    
    66   32  155 1    
    67   33  156 1    
    68   33  157 1    
    69   33  158 1    
    70   34   35 am   BACKBONE|DICT|INTERRES
    71   34  159 1    
    72   35   36 2    
    73   35   37 1    
    74   37   38 1    
    75   37   39 1    
    76   37  160 1    
    77   38  161 1    
    78   38  162 1    
    79   38  163 1    
    80   39   40 am   BACKBONE|DICT|INTERRES
    81   39  164 1    
    82   40   41 2    
    83   40   42 1    
    84   42   43 1    
    85   42   44 1    
    86   42  165 1    
    87   43  166 1    
    88   43  167 1    
    89   43  168 1    
    90   44   45 am   BACKBONE|DICT|INTERRES
    91   44  169 1    
    92   45   46 2    
    93   45   47 1    
    94   47   48 1    
    95   47   49 1    
    96   47  170 1    
    97   48  171 1    
    98   48  172 1    
    99   48  173 1    
   100   49   50 am   BACKBONE|DICT|INTERRES
   101   49  174 1    
   102   50   51 2    
   103   50   52 1    
   104   52   53 1    
   105   52   54 1    
   106   52  175 1    
   107   53  176 1    
   108   53  177 1    
   109   53  178 1    
   110   54   55 am   BACKBONE|DICT|INTERRES
   111   54  179 1    
   112   55   56 2    
   113   55   57 1    
   114   57   58 1    
   115   57   59 1    
   116   57  180 1    
   117   58  181 1    
   118   58  182 1    
   119   58  183 1    
   120   59   60 am   BACKBONE|DICT|INTERRES
   121   59  184 1    
   122   60   61 2    
   123   60   62 1    
   124   62   63 1    
   125   62   64 1    
   126   62  185 1    
   127   63  186 1    
   128   63  187 1    
   129   63  188 1    
   130   64   65 am   BACKBONE|DICT|INTERRES
   131   64  189 1    
   132   65   66 2    
   133   67   68 2    
   134   67   69 am   BACKBONE|DICT|INTERRES
   135   69   70 1    
   136   69  190 1    
   137   70   71 1    
   138   70   72 1    
   139   70  191 1    
   140   71  192 1    
   141   71  193 1    
   142   71  194 1    
   143   72   73 2    
   144   72   74 am   BACKBONE|DICT|INTERRES
   145   74   75 1    
   146   74  195 1    
   147   75   76 1    
   148   75   77 1    
   149   75  196 1    
   150   76  197 1    
   151   76  198 1    
   152   76  199 1    
   153   77   78 2    
   154   77   79 am   BACKBONE|DICT|INTERRES
   155   79   80 1    
   156   79  200 1    
   157   80   81 1    
   158   80   82 1    
   159   80  201 1    
   160   81  202 1    
   161   81  203 1    
   162   81  204 1    
   163   82   83 2    
   164   82   84 am   BACKBONE|DICT|INTERRES
   165   84   85 1    
   166   84  205 1    
   167   85   86 1    
   168   85   87 1    
   169   85  206 1    
   170   86  207 1    
   171   86  208 1    
   172   86  209 1    
   173   87   88 2    
   174   87   89 am   BACKBONE|DICT|INTERRES
   175   89   90 1    
   176   89  210 1    
   177   90   91 1    
   178   90   92 1    
   179   90  211 1    
   180   91  212 1    
   181   91  213 1    
   182   91  214 1    
   183   92   93 2    
   184   92   94 am   BACKBONE|DICT|INTERRES
   185   94   95 1    
   186   94  215 1    
   187   95   96 1    
   188   95   97 1    
   189   95  216 1    
   190   96  217 1    
   191   96  218 1    
   192   96  219 1    
   193   97   98 2    
   194   97   99 am   BACKBONE|DICT|INTERRES
   195   99  100 1    
   196   99  220 1    
   197  100  101 1    
   198  100  102 1    
   199  100  221 1    
   200  101  222 1    
   201  101  223 1    
   202  101  224 1    
   203  102  103 2    
   204  102  104 am   BACKBONE|DICT|INTERRES
   205  104  105 1    
   206  104  225 1    
   207  105  106 1    
   208  105  107 1    
   209  105  226 1    
   210  106  227 1    
   211  106  228 1    
   212  106  229 1    
   213  107  108 2    
   214  107  109 am   BACKBONE|DICT|INTERRES
   215  109  110 1    
   216  109  230 1    
   217  110  111 1    
   218  110  112 1    
   219  110  231 1    
   220  111  232 1    
   221  111  233 1    
   222  111  234 1    
   223  112  113 2    
   224  112  114 am   BACKBONE|DICT|INTERRES
   225  114  115 1    
   226  114  235 1    
   227  115  116 1    
   228  115  117 1    
   229  115  236 1    
   230  116  237 1    
   231  116  238 1    
   232  116  239 1    
   233  117  118 2    
   234  117  119 am   BACKBONE|DICT|INTERRES
   235  119  120 1    
   236  119  240 1    
   237  120  121 1    
   238  120  124 1    
   239  120  241 1    
   240  121  122 am   BACKBONE|DICT|INTERRES
   241  121  123 2    
   242  122  242 1    
   243  122  243 1    
   244  124  125 1    
   245  124  244 1    
   246  124  245 1    
   247  125  126 1    
   248  126  246 1    
   249  126  247 1    
@<TRIPOS>SUBSTRUCTURE
     1 UNK         1 GROUP             0       ****    0 ROOT    
