@<TRIPOS>MOLECULE
3R540
247   249    1
SMALL
USER_CHARGES


@<TRIPOS>ATOM
      1 CA          1.2061  -11.6511  -47.5814 C.3       0 UNK        -0.1800 
      2 C           0.4693  -11.8569  -46.2661 C.2       0 UNK         0.5000 
      3 O           1.0060  -12.4851  -45.3508 O.2       0 UNK        -0.5000 
      4 N          -0.7678  -11.3509  -46.1818 N.am      1 UNK        -0.5000 
      5 CA         -1.6334  -11.4228  -45.0016 C.3       1 UNK         0.1400 
      6 C6         -3.1017  -11.0250  -45.3131 C.3       23 UNK        -0.0398 
      7 S7         -4.1043  -12.1355  -46.3782 S.3       23 UNK        -0.2404 
      8 C8         -2.9614  -13.3646  -47.0820 C.3       23 UNK        -0.0205 
      9 C9         -3.7120  -14.5281  -47.7061 C.ar      23 UNK        -0.0193 
     10 C10        -4.1743  -14.4619  -49.0227 C.ar      23 UNK        -0.1150 
     11 C11        -4.8574  -15.5437  -49.5883 C.ar      23 UNK        -0.0193 
     12 C12        -5.0659  -16.6983  -48.8263 C.ar      23 UNK        -0.1150 
     13 C13        -4.5922  -16.7859  -47.5106 C.ar      23 UNK        -0.0193 
     14 C14        -3.9272  -15.6879  -46.9610 C.ar      23 UNK        -0.1150 
     15 C15        -4.7408  -18.0333  -46.6400 C.3       23 UNK        -0.0205 
     16 S16        -5.7263  -19.3977  -47.3375 S.3       23 UNK        -0.2404 
     17 C17        -5.5510  -20.6333  -46.0083 C.3       23 UNK        -0.0398 
     18 CA         -4.6187  -21.7960  -46.4159 C.3       11 UNK         0.1400 
     19 N          -3.2342  -21.3695  -46.6618 N.am      11 UNK        -0.5000 
     20 C          -2.2951  -22.1378  -47.2319 C.2       10 UNK         0.5000 
     21 O          -2.4936  -23.2938  -47.5998 O.2       10 UNK        -0.5000 
     22 CA         -0.8864  -21.5431  -47.3650 C.3       10 UNK         0.1400 
     23 CB         -0.8130  -20.5848  -48.5631 C.3       10 UNK        -0.1800 
     24 N          -0.4715  -20.8687  -46.1346 N.am      10 UNK        -0.5000 
     25 C          -0.2106  -21.5188  -44.9880 C.2       9 UNK         0.5000 
     26 O          -0.2485  -22.7446  -44.8850 O.2       9 UNK        -0.5000 
     27 CA          0.1248  -20.6818  -43.7378 C.3       9 UNK         0.1400 
     28 CB          1.6431  -20.6459  -43.5107 C.3       9 UNK        -0.1800 
     29 N          -0.3856  -19.3126  -43.7872 N.am      9 UNK        -0.5000 
     30 C          -1.6845  -18.9758  -43.8011 C.2       8 UNK         0.5000 
     31 O          -2.6038  -19.7955  -43.7507 O.2       8 UNK        -0.5000 
     32 CA         -2.0104  -17.4752  -43.9604 C.3       8 UNK         0.1400 
     33 CB         -2.1617  -16.8089  -42.5859 C.3       8 UNK        -0.1800 
     34 N          -1.0163  -16.7317  -44.7426 N.am      8 UNK        -0.5000 
     35 C          -0.6000  -17.0422  -45.9799 C.2       7 UNK         0.5000 
     36 O          -1.1005  -17.9406  -46.6546 O.2       7 UNK        -0.5000 
     37 CA          0.6263  -16.2851  -46.5297 C.3       7 UNK         0.1400 
     38 CB          0.2211  -15.2996  -47.6333 C.3       7 UNK        -0.1800 
     39 N           1.4355  -15.5928  -45.5169 N.am      7 UNK        -0.5000 
     40 C           2.0916  -16.2042  -44.5186 C.2       6 UNK         0.5000 
     41 O           1.9813  -17.4075  -44.2732 O.2       6 UNK        -0.5000 
     42 CA          3.0224  -15.3177  -43.6655 C.3       6 UNK         0.1400 
     43 CB          3.8155  -16.1205  -42.6146 C.3       6 UNK        -0.1800 
     44 N           3.9400  -14.4995  -44.4651 N.am      6 UNK        -0.5000 
     45 C           4.7927  -14.9114  -45.4195 C.2       5 UNK         0.5000 
     46 O           4.8937  -16.0764  -45.8052 O.2       5 UNK        -0.5000 
     47 CA          5.7047  -13.8381  -46.0494 C.3       5 UNK         0.1400 
     48 CB          5.0504  -13.2614  -47.3145 C.3       5 UNK        -0.1800 
     49 N           6.0189  -12.7372  -45.1380 N.am      5 UNK        -0.5000 
     50 C           6.7433  -12.8410  -44.0136 C.2       4 UNK         0.5000 
     51 O           7.3420  -13.8634  -43.6780 O.2       4 UNK        -0.5000 
     52 CA          6.7827  -11.6005  -43.0939 C.3       4 UNK         0.1400 
     53 CB          8.1010  -10.8338  -43.2810 C.3       4 UNK        -0.1800 
     54 N           5.6601  -10.6740  -43.2919 N.am      4 UNK        -0.5000 
     55 C           4.3694  -10.9770  -43.0983 C.2       3 UNK         0.5000 
     56 O           3.9806  -12.0796  -42.7038 O.2       3 UNK        -0.5000 
     57 CA          3.3527   -9.8919  -43.4879 C.3       3 UNK         0.1400 
     58 CB          3.3455   -9.6947  -45.0129 C.3       3 UNK        -0.1800 
     59 N           2.0117  -10.2903  -43.0708 N.am      3 UNK        -0.5000 
     60 C           1.4195   -9.9281  -41.9264 C.2       2 UNK         0.5000 
     61 O           1.9273   -9.1479  -41.1186 O.2       2 UNK        -0.5000 
     62 CA          0.0402  -10.5569  -41.6190 C.3       2 UNK         0.1400 
     63 CB         -0.9055   -9.5806  -40.8878 C.3       2 UNK        -0.1800 
     64 N          -0.6224  -11.1564  -42.7866 N.am      2 UNK        -0.5000 
     65 C          -1.0510  -10.5269  -43.8909 C.2       1 UNK         0.5000 
     66 O          -0.9774   -9.3099  -44.0722 O.2       1 UNK        -0.5000 
     67 C          -4.6883  -22.9362  -45.3821 C.2       11 UNK         0.5000 
     68 O          -5.4729  -23.8677  -45.5635 O.2       11 UNK        -0.5000 
     69 N          -3.8175  -22.8852  -44.3628 N.am      12 UNK        -0.5000 
     70 CA         -3.6343  -23.9501  -43.3708 C.3       12 UNK         0.1400 
     71 CB         -2.6993  -23.4476  -42.2606 C.3       12 UNK        -0.1800 
     72 C          -3.1027  -25.2673  -43.9778 C.2       12 UNK         0.5000 
     73 O          -3.3605  -26.3371  -43.4262 O.2       12 UNK        -0.5000 
     74 N          -2.4061  -25.1655  -45.1167 N.am      13 UNK        -0.5000 
     75 CA         -1.8971  -26.2737  -45.9216 C.3       13 UNK         0.1400 
     76 CB         -0.4744  -25.9174  -46.3889 C.3       13 UNK        -0.1800 
     77 C          -2.8235  -26.6044  -47.1128 C.2       13 UNK         0.5000 
     78 O          -2.3660  -27.2295  -48.0695 O.2       13 UNK        -0.5000 
     79 N          -4.0959  -26.1771  -47.0560 N.am      14 UNK        -0.5000 
     80 CA         -5.1451  -26.3816  -48.0638 C.3       14 UNK         0.1400 
     81 CB         -5.5074  -27.8770  -48.1845 C.3       14 UNK        -0.1800 
     82 C          -4.7907  -25.7352  -49.4185 C.2       14 UNK         0.5000 
     83 O          -4.7939  -26.4039  -50.4537 O.2       14 UNK        -0.5000 
     84 N          -4.4413  -24.4428  -49.3630 N.am      15 UNK        -0.5000 
     85 CA         -3.9307  -23.6108  -50.4586 C.3       15 UNK         0.1400 
     86 CB         -5.0108  -23.3765  -51.5340 C.3       15 UNK        -0.1800 
     87 C          -2.6068  -24.1643  -51.0211 C.2       15 UNK         0.5000 
     88 O          -2.4304  -24.2361  -52.2373 O.2       15 UNK        -0.5000 
     89 N          -1.7172  -24.5798  -50.1068 N.am      16 UNK        -0.5000 
     90 CA         -0.4373  -25.2514  -50.3561 C.3       16 UNK         0.1400 
     91 CB          0.5741  -24.2579  -50.9650 C.3       16 UNK        -0.1800 
     92 C          -0.6134  -26.5314  -51.2012 C.2       16 UNK         0.5000 
     93 O           0.0415  -26.6879  -52.2309 O.2       16 UNK        -0.5000 
     94 N          -1.5476  -27.3941  -50.7753 N.am      17 UNK        -0.5000 
     95 CA         -2.0378  -28.5858  -51.4785 C.3       17 UNK         0.1400 
     96 CB         -0.9528  -29.6817  -51.5176 C.3       17 UNK        -0.1800 
     97 C          -2.6154  -28.2478  -52.8718 C.2       17 UNK         0.5000 
     98 O          -2.3162  -28.9274  -53.8554 O.2       17 UNK        -0.5000 
     99 N          -3.4168  -27.1742  -52.9165 N.am      18 UNK        -0.5000 
    100 CA        -4.0594  -26.5667  -54.0866 C.3       18 UNK         0.1400 
    101 CB        -5.1018  -27.5287  -54.6933 C.3       18 UNK        -0.1800 
    102 C         -3.0873  -25.9981  -55.1469 C.2       18 UNK         0.5000 
    103 O         -3.5058  -25.7701  -56.2838 O.2       18 UNK        -0.5000 
    104 N         -1.8204  -25.7635  -54.7777 N.am      19 UNK        -0.5000 
    105 CA        -0.8042  -25.1840  -55.6571 C.3       19 UNK         0.1400 
    106 CB         0.5863  -25.6746  -55.2280 C.3       19 UNK        -0.1800 
    107 C         -0.8378  -23.6450  -55.6774 C.2       19 UNK         0.5000 
    108 O         -0.4087  -23.0543  -56.6702 O.2       19 UNK        -0.5000 
    109 N         -1.3149  -23.0149  -54.5943 N.am      20 UNK        -0.5000 
    110 CA        -1.4067  -21.5606  -54.4712 C.3       20 UNK         0.1400 
    111 CB        -1.5611  -21.1771  -52.9902 C.3       20 UNK        -0.1800 
    112 C         -2.5814  -20.9999  -55.2898 C.2       20 UNK         0.5000 
    113 O         -3.6330  -21.6392  -55.3808 O.2       20 UNK        -0.5000 
    114 N         -2.4056  -19.7781  -55.8120 N.am      21 UNK        -0.5000 
    115 CA        -3.4109  -19.0342  -56.5824 C.3       21 UNK         0.1400 
    116 CB        -2.7698  -17.7503  -57.1314 C.3       21 UNK        -0.1800 
    117 C         -4.6892  -18.7007  -55.7851 C.2       21 UNK         0.5000 
    118 O         -5.7489  -18.5141  -56.3844 O.2       21 UNK        -0.5000 
    119 N         -4.5673  -18.6605  -54.4529 N.am      22 UNK        -0.5000 
    120 CA        -5.6788  -18.5468  -53.4978 C.3       22 UNK         0.1400 
    121 C         -6.5501  -19.8341  -53.3698 C.2       22 UNK         0.5000 
    122 N         -6.1699  -20.9717  -53.9416 N.am      22 UNK        -0.7600 
    123 O         -7.6055  -19.7954  -52.7438 O.2       22 UNK        -0.5000 
    124 C124       -5.1806  -18.0783  -52.1064 C.3       23 UNK        -0.0398 
    125 S125       -4.3627  -16.4433  -52.1701 S.3       23 UNK        -0.2404 
    126 C126       -5.3754  -15.4586  -51.0183 C.3       23 UNK        -0.0205 
    127 H127        1.7828  -12.5396  -47.8358 H         1 UNK         0.0600 
    128 H128        1.8910  -10.8075  -47.5062 H         1 UNK         0.0600 
    129 H129        0.5128  -11.4562  -48.3998 H         1 UNK         0.0600 
    130 H130       -1.1345  -10.8154  -46.9553 H         1 UNK         0.3000 
    131 H131       -1.6317  -12.4496  -44.6320 H         1 UNK         0.0600 
    132 H132       -3.1282  -10.0308  -45.7628 H         1 UNK         0.0800 
    133 H133       -3.6598  -10.9323  -44.3794 H         1 UNK         0.0800 
    134 H134       -2.3078  -13.7519  -46.3023 H         1 UNK         0.0800 
    135 H135       -2.3255  -12.8921  -47.8315 H         1 UNK         0.0800 
    136 H136       -4.0061  -13.5654  -49.6029 H         1 UNK         0.1150 
    137 H137       -5.5898  -17.5287  -49.2711 H         1 UNK         0.1150 
    138 H138       -3.5633  -15.7362  -45.9454 H         1 UNK         0.1150 
    139 H139       -3.7424  -18.4160  -46.4310 H         1 UNK         0.0800 
    140 H140       -5.1799  -17.7442  -45.6839 H         1 UNK         0.0800 
    141 H141       -6.5526  -21.0078  -45.7885 H         1 UNK         0.0800 
    142 H142       -5.1989  -20.1573  -45.0912 H         1 UNK         0.0800 
    143 H143       -4.9998  -22.2043  -47.3544 H         1 UNK         0.0600 
    144 H144       -2.9811  -20.4423  -46.3538 H         1 UNK         0.3000 
    145 H145       -0.1916  -22.3649  -47.5520 H         1 UNK         0.0600 
    146 H146       -1.5412  -19.7768  -48.4850 H         1 UNK         0.0600 
    147 H147        0.1769  -20.1372  -48.6521 H         1 UNK         0.0600 
    148 H148       -1.0156  -21.1150  -49.4949 H         1 UNK         0.0600 
    149 H149       -0.4645  -19.8550  -46.1499 H         1 UNK         0.3000 
    150 H150       -0.3356  -21.1757  -42.8800 H         1 UNK         0.0600 
    151 H151        2.0466  -21.6537  -43.4048 H         1 UNK         0.0600 
    152 H152        1.8948  -20.0974  -42.6028 H         1 UNK         0.0600 
    153 H153        2.1620  -20.1703  -44.3439 H         1 UNK         0.0600 
    154 H154        0.3120  -18.5800  -43.8709 H         1 UNK         0.3000 
    155 H155       -2.9675  -17.4031  -44.4740 H         1 UNK         0.0600 
    156 H156       -2.9092  -17.3251  -41.9817 H         1 UNK         0.0600 
    157 H157       -2.4846  -15.7721  -42.6830 H         1 UNK         0.0600 
    158 H158       -1.2243  -16.8193  -42.0283 H         1 UNK         0.0600 
    159 H159       -0.5301  -15.9901  -44.2617 H         1 UNK         0.3000 
    160 H160        1.2677  -17.0415  -46.9869 H         1 UNK         0.0600 
    161 H161        1.0971  -14.9064  -48.1488 H         1 UNK         0.0600 
    162 H162       -0.3377  -14.4589  -47.2311 H         1 UNK         0.0600 
    163 H163       -0.4068  -15.7821  -48.3839 H         1 UNK         0.0600 
    164 H164        1.5398  -14.5897  -45.6191 H         1 UNK         0.3000 
    165 H165        2.3763  -14.6202  -43.1304 H         1 UNK         0.0600 
    166 H166        4.4754  -16.8533  -43.0805 H         1 UNK         0.0600 
    167 H167        4.4285  -15.4618  -41.9991 H         1 UNK         0.0600 
    168 H168        3.1453  -16.6603  -41.9445 H         1 UNK         0.0600 
    169 H169        3.9657  -13.5226  -44.1962 H         1 UNK         0.3000 
    170 H170        6.6414  -14.3221  -46.3338 H         1 UNK         0.0600 
    171 H171        4.1261  -12.7318  -47.0816 H         1 UNK         0.0600 
    172 H172        5.7180  -12.5651  -47.8223 H         1 UNK         0.0600 
    173 H173        4.8059  -14.0525  -48.0247 H         1 UNK         0.0600 
    174 H174        5.5897  -11.8476  -45.3410 H         1 UNK         0.3000 
    175 H175        6.7384  -11.9605  -42.0639 H         1 UNK         0.0600 
    176 H176        8.1907  -10.4282  -44.2895 H         1 UNK         0.0600 
    177 H177        8.1801  -10.0058  -42.5763 H         1 UNK         0.0600 
    178 H178        8.9597  -11.4850  -43.1116 H         1 UNK         0.0600 
    179 H179        5.8997   -9.7509  -43.6249 H         1 UNK         0.3000 
    180 H180        3.6365   -8.9522  -43.0097 H         1 UNK         0.0600 
    181 H181        3.2172  -10.6419  -45.5368 H         1 UNK         0.0600 
    182 H182        4.2808   -9.2539  -45.3593 H         1 UNK         0.0600 
    183 H183        2.5409   -9.0272  -45.3228 H         1 UNK         0.0600 
    184 H184        1.5584  -10.9887  -43.6458 H         1 UNK         0.3000 
    185 H185        0.2424  -11.3836  -40.9365 H         1 UNK         0.0600 
    186 H186       -0.4822   -9.2663  -39.9331 H         1 UNK         0.0600 
    187 H187       -1.0912   -8.6794  -41.4725 H         1 UNK         0.0600 
    188 H188       -1.8672  -10.0474  -40.6749 H         1 UNK         0.0600 
    189 H189       -0.7014  -12.1634  -42.7562 H         1 UNK         0.3000 
    190 H190       -3.2151  -22.0766  -44.2794 H         1 UNK         0.3000 
    191 H191       -4.6088  -24.1626  -42.9264 H         1 UNK         0.0600 
    192 H192       -1.6956  -23.2527  -42.6378 H         1 UNK         0.0600 
    193 H193       -3.0746  -22.5277  -41.8115 H         1 UNK         0.0600 
    194 H194       -2.6101  -24.1866  -41.4634 H         1 UNK         0.0600 
    195 H195       -2.2419  -24.2428  -45.4978 H         1 UNK         0.3000 
    196 H196       -1.8326  -27.1766  -45.3117 H         1 UNK         0.0600 
    197 H197        0.1771  -25.7161  -45.5384 H         1 UNK         0.0600 
    198 H198       -0.4696  -25.0314  -47.0238 H         1 UNK         0.0600 
    199 H199       -0.0236  -26.7343  -46.9535 H         1 UNK         0.0600 
    200 H200       -4.3739  -25.6257  -46.2533 H         1 UNK         0.3000 
    201 H201       -6.0300  -25.8593  -47.6970 H         1 UNK         0.0600 
    202 H202       -6.3598  -28.0174  -48.8502 H         1 UNK         0.0600 
    203 H203       -5.7800  -28.2954  -47.2157 H         1 UNK         0.0600 
    204 H204       -4.6826  -28.4673  -48.5846 H         1 UNK         0.0600 
    205 H205       -4.3496  -24.0316  -48.4436 H         1 UNK         0.3000 
    206 H206       -3.6891  -22.6381  -50.0284 H         1 UNK         0.0600 
    207 H207       -5.8849  -22.8832  -51.1092 H         1 UNK         0.0600 
    208 H208       -5.3437  -24.3068  -51.9914 H         1 UNK         0.0600 
    209 H209       -4.6357  -22.7367  -52.3329 H         1 UNK         0.0600 
    210 H210       -1.9694  -24.4511  -49.1322 H         1 UNK         0.3000 
    211 H211       -0.0515  -25.5698  -49.3874 H         1 UNK         0.0600 
    212 H212        0.6839  -23.3735  -50.3374 H         1 UNK         0.0600 
    213 H213        1.5598  -24.7146  -51.0598 H         1 UNK         0.0600 
    214 H214        0.2711  -23.9275  -51.9591 H         1 UNK         0.0600 
    215 H215       -2.0013  -27.2020  -49.8839 H         1 UNK         0.3000 
    216 H216       -2.8713  -28.9662  -50.8861 H         1 UNK         0.0600 
    217 H217       -1.3503  -30.6091  -51.9314 H         1 UNK         0.0600 
    218 H218       -0.1009  -29.3886  -52.1318 H         1 UNK         0.0600 
    219 H219       -0.5838  -29.9053  -50.5166 H         1 UNK         0.0600 
    220 H220       -3.6299  -26.7178  -52.0341 H         1 UNK         0.3000 
    221 H221       -4.6024  -25.7029  -53.7042 H         1 UNK         0.0600 
    222 H222       -4.6304  -28.3921  -55.1634 H         1 UNK         0.0600 
    223 H223       -5.7902  -27.8944  -53.9313 H         1 UNK         0.0600 
    224 H224       -5.7015  -27.0294  -55.4551 H         1 UNK         0.0600 
    225 H225       -1.5489  -25.9460  -53.8193 H         1 UNK         0.3000 
    226 H226       -0.9761  -25.5343  -56.6771 H         1 UNK         0.0600 
    227 H227        0.6206  -26.7621  -55.1580 H         1 UNK         0.0600 
    228 H228        1.3450  -25.3692  -55.9495 H         1 UNK         0.0600 
    229 H229        0.8761  -25.2644  -54.2602 H         1 UNK         0.0600 
    230 H230       -1.7018  -23.5614  -53.8280 H         1 UNK         0.3000 
    231 H231       -0.4756  -21.1255  -54.8408 H         1 UNK         0.0600 
    232 H232       -1.5130  -20.0955  -52.8597 H         1 UNK         0.0600 
    233 H233       -0.7682  -21.6125  -52.3818 H         1 UNK         0.0600 
    234 H234       -2.5168  -21.5100  -52.5854 H         1 UNK         0.0600 
    235 H235       -1.5177  -19.3153  -55.6800 H         1 UNK         0.3000 
    236 H236       -3.7091  -19.6577  -57.4277 H         1 UNK         0.0600 
    237 H237       -2.4296  -17.0956  -56.3280 H         1 UNK         0.0600 
    238 H238       -1.9139  -17.9764  -57.7676 H         1 UNK         0.0600 
    239 H239       -3.4812  -17.1856  -57.7355 H         1 UNK         0.0600 
    240 H240       -3.6524  -18.8037  -54.0543 H         1 UNK         0.3000 
    241 H241       -6.3531  -17.7768  -53.8776 H         1 UNK         0.0600 
    242 H242       -5.3058  -21.0436  -54.4684 H         1 UNK         0.3800 
    243 H243       -6.7609  -21.7819  -53.8524 H         1 UNK         0.3800 
    244 H244       -6.0190  -18.0338  -51.4110 H         1 UNK         0.0800 
    245 H245       -4.4784  -18.8007  -51.6867 H         1 UNK         0.0800 
    246 H246       -6.4194  -15.7721  -51.0593 H         1 UNK         0.0800 
    247 H247       -5.3643  -14.4215  -51.3572 H         1 UNK         0.0800 
@<TRIPOS>BOND
     1    1    2 1    
     2    1  127 1    
     3    1  128 1    
     4    1  129 1    
     5    2    3 2    
     6    2    4 am   BACKBONE|DICT|INTERRES
     7    4    5 1    
     8    4  130 1    
     9    5    6 1    
    10    5   65 1    
    11    5  131 1    
    12    6    7 1    
    13    6  132 1    
    14    6  133 1    
    15    7    8 1    
    16    8    9 1    
    17    8  134 1    
    18    8  135 1    
    19    9   10 ar   
    20    9   14 ar   
    21   10   11 ar   
    22   10  136 1    
    23   11   12 ar   
    24   11  126 1    
    25   12   13 ar   
    26   12  137 1    
    27   13   14 ar   
    28   13   15 1    
    29   14  138 1    
    30   15   16 1    
    31   15  139 1    
    32   15  140 1    
    33   16   17 1    
    34   17   18 1    
    35   17  141 1    
    36   17  142 1    
    37   18   19 1    
    38   18   67 1    
    39   18  143 1    
    40   19   20 am   BACKBONE|DICT|INTERRES
    41   19  144 1    
    42   20   21 2    
    43   20   22 1    
    44   22   23 1    
    45   22   24 1    
    46   22  145 1    
    47   23  146 1    
    48   23  147 1    
    49   23  148 1    
    50   24   25 am   BACKBONE|DICT|INTERRES
    51   24  149 1    
    52   25   26 2    
    53   25   27 1    
    54   27   28 1    
    55   27   29 1    
    56   27  150 1    
    57   28  151 1    
    58   28  152 1    
    59   28  153 1    
    60   29   30 am   BACKBONE|DICT|INTERRES
    61   29  154 1    
    62   30   31 2    
    63   30   32 1    
    64   32   33 1    
    65   32   34 1    
    66   32  155 1    
    67   33  156 1    
    68   33  157 1    
    69   33  158 1    
    70   34   35 am   BACKBONE|DICT|INTERRES
    71   34  159 1    
    72   35   36 2    
    73   35   37 1    
    74   37   38 1    
    75   37   39 1    
    76   37  160 1    
    77   38  161 1    
    78   38  162 1    
    79   38  163 1    
    80   39   40 am   BACKBONE|DICT|INTERRES
    81   39  164 1    
    82   40   41 2    
    83   40   42 1    
    84   42   43 1    
    85   42   44 1    
    86   42  165 1    
    87   43  166 1    
    88   43  167 1    
    89   43  168 1    
    90   44   45 am   BACKBONE|DICT|INTERRES
    91   44  169 1    
    92   45   46 2    
    93   45   47 1    
    94   47   48 1    
    95   47   49 1    
    96   47  170 1    
    97   48  171 1    
    98   48  172 1    
    99   48  173 1    
   100   49   50 am   BACKBONE|DICT|INTERRES
   101   49  174 1    
   102   50   51 2    
   103   50   52 1    
   104   52   53 1    
   105   52   54 1    
   106   52  175 1    
   107   53  176 1    
   108   53  177 1    
   109   53  178 1    
   110   54   55 am   BACKBONE|DICT|INTERRES
   111   54  179 1    
   112   55   56 2    
   113   55   57 1    
   114   57   58 1    
   115   57   59 1    
   116   57  180 1    
   117   58  181 1    
   118   58  182 1    
   119   58  183 1    
   120   59   60 am   BACKBONE|DICT|INTERRES
   121   59  184 1    
   122   60   61 2    
   123   60   62 1    
   124   62   63 1    
   125   62   64 1    
   126   62  185 1    
   127   63  186 1    
   128   63  187 1    
   129   63  188 1    
   130   64   65 am   BACKBONE|DICT|INTERRES
   131   64  189 1    
   132   65   66 2    
   133   67   68 2    
   134   67   69 am   BACKBONE|DICT|INTERRES
   135   69   70 1    
   136   69  190 1    
   137   70   71 1    
   138   70   72 1    
   139   70  191 1    
   140   71  192 1    
   141   71  193 1    
   142   71  194 1    
   143   72   73 2    
   144   72   74 am   BACKBONE|DICT|INTERRES
   145   74   75 1    
   146   74  195 1    
   147   75   76 1    
   148   75   77 1    
   149   75  196 1    
   150   76  197 1    
   151   76  198 1    
   152   76  199 1    
   153   77   78 2    
   154   77   79 am   BACKBONE|DICT|INTERRES
   155   79   80 1    
   156   79  200 1    
   157   80   81 1    
   158   80   82 1    
   159   80  201 1    
   160   81  202 1    
   161   81  203 1    
   162   81  204 1    
   163   82   83 2    
   164   82   84 am   BACKBONE|DICT|INTERRES
   165   84   85 1    
   166   84  205 1    
   167   85   86 1    
   168   85   87 1    
   169   85  206 1    
   170   86  207 1    
   171   86  208 1    
   172   86  209 1    
   173   87   88 2    
   174   87   89 am   BACKBONE|DICT|INTERRES
   175   89   90 1    
   176   89  210 1    
   177   90   91 1    
   178   90   92 1    
   179   90  211 1    
   180   91  212 1    
   181   91  213 1    
   182   91  214 1    
   183   92   93 2    
   184   92   94 am   BACKBONE|DICT|INTERRES
   185   94   95 1    
   186   94  215 1    
   187   95   96 1    
   188   95   97 1    
   189   95  216 1    
   190   96  217 1    
   191   96  218 1    
   192   96  219 1    
   193   97   98 2    
   194   97   99 am   BACKBONE|DICT|INTERRES
   195   99  100 1    
   196   99  220 1    
   197  100  101 1    
   198  100  102 1    
   199  100  221 1    
   200  101  222 1    
   201  101  223 1    
   202  101  224 1    
   203  102  103 2    
   204  102  104 am   BACKBONE|DICT|INTERRES
   205  104  105 1    
   206  104  225 1    
   207  105  106 1    
   208  105  107 1    
   209  105  226 1    
   210  106  227 1    
   211  106  228 1    
   212  106  229 1    
   213  107  108 2    
   214  107  109 am   BACKBONE|DICT|INTERRES
   215  109  110 1    
   216  109  230 1    
   217  110  111 1    
   218  110  112 1    
   219  110  231 1    
   220  111  232 1    
   221  111  233 1    
   222  111  234 1    
   223  112  113 2    
   224  112  114 am   BACKBONE|DICT|INTERRES
   225  114  115 1    
   226  114  235 1    
   227  115  116 1    
   228  115  117 1    
   229  115  236 1    
   230  116  237 1    
   231  116  238 1    
   232  116  239 1    
   233  117  118 2    
   234  117  119 am   BACKBONE|DICT|INTERRES
   235  119  120 1    
   236  119  240 1    
   237  120  121 1    
   238  120  124 1    
   239  120  241 1    
   240  121  122 am   BACKBONE|DICT|INTERRES
   241  121  123 2    
   242  122  242 1    
   243  122  243 1    
   244  124  125 1    
   245  124  244 1    
   246  124  245 1    
   247  125  126 1    
   248  126  246 1    
   249  126  247 1    
@<TRIPOS>SUBSTRUCTURE
     1 UNK         1 GROUP             0       ****    0 ROOT    
