@<TRIPOS>MOLECULE
3R540
247   249    1
SMALL
USER_CHARGES


@<TRIPOS>ATOM
      1 CA          3.9846  -11.6712  -48.5725 C.3       0 UNK        -0.1800 
      2 C           2.5004  -11.9868  -48.6931 C.2       0 UNK         0.5000 
      3 O           1.7436  -11.1694  -49.2165 O.2       0 UNK        -0.5000 
      4 N           2.0872  -13.1630  -48.2003 N.am      1 UNK        -0.5000 
      5 CA          0.7127  -13.6916  -48.2236 C.3       1 UNK         0.1400 
      6 C6          0.1594  -13.9376  -49.6549 C.3       23 UNK        -0.0398 
      7 S7          1.1147  -15.2107  -50.5479 S.3       23 UNK        -0.2404 
      8 C8         -0.0155  -16.6269  -50.3886 C.3       23 UNK        -0.0205 
      9 C9          0.5327  -17.8667  -51.0755 C.ar      23 UNK        -0.0193 
     10 C10         0.4273  -17.9993  -52.4618 C.ar      23 UNK        -0.1150 
     11 C11         0.8923  -19.1502  -53.1009 C.ar      23 UNK        -0.0193 
     12 C12         1.4622  -20.1734  -52.3381 C.ar      23 UNK        -0.1150 
     13 C13         1.5771  -20.0626  -50.9483 C.ar      23 UNK        -0.0193 
     14 C14         1.1198  -18.8910  -50.3264 C.ar      23 UNK        -0.1150 
     15 C15         2.1916  -21.2420  -50.1852 C.3       23 UNK        -0.0205 
     16 S16         2.2085  -21.1218  -48.3601 S.3       23 UNK        -0.2404 
     17 C17         0.4312  -21.2011  -47.9616 C.3       23 UNK        -0.0398 
     18 CA          0.0632  -22.3885  -47.0418 C.3       11 UNK         0.1400 
     19 N           0.6036  -22.2571  -45.6835 N.am      11 UNK        -0.5000 
     20 C           0.5036  -23.2003  -44.7340 C.2       10 UNK         0.5000 
     21 O          -0.0061  -24.3049  -44.9205 O.2       10 UNK        -0.5000 
     22 CA          0.9989  -22.8358  -43.3235 C.3       10 UNK         0.1400 
     23 CB          2.5290  -22.9317  -43.2325 C.3       10 UNK        -0.1800 
     24 N           0.5496  -21.5108  -42.8945 N.am      10 UNK        -0.5000 
     25 C          -0.7336  -21.1677  -42.7088 C.2       9 UNK         0.5000 
     26 O          -1.6739  -21.9512  -42.8358 O.2       9 UNK        -0.5000 
     27 CA         -1.0250  -19.6921  -42.3766 C.3       9 UNK         0.1400 
     28 CB         -0.7895  -19.4028  -40.8871 C.3       9 UNK        -0.1800 
     29 N          -0.2365  -18.7663  -43.1886 N.am      9 UNK        -0.5000 
     30 C          -0.3096  -18.6758  -44.5246 C.2       8 UNK         0.5000 
     31 O          -1.0901  -19.3271  -45.2184 O.2       8 UNK        -0.5000 
     32 CA          0.7044  -17.7417  -45.2040 C.3       8 UNK         0.1400 
     33 CB          0.2379  -16.2828  -45.1218 C.3       8 UNK        -0.1800 
     34 N           2.0399  -17.8680  -44.6188 N.am      8 UNK        -0.5000 
     35 C           2.7896  -18.9775  -44.6913 C.2       7 UNK         0.5000 
     36 O           2.4357  -20.0034  -45.2688 O.2       7 UNK        -0.5000 
     37 CA          4.1349  -18.9529  -43.9457 C.3       7 UNK         0.1400 
     38 CB          5.1902  -18.1779  -44.7489 C.3       7 UNK        -0.1800 
     39 N           4.0154  -18.3735  -42.6079 N.am      7 UNK        -0.5000 
     40 C           3.3082  -18.9169  -41.6065 C.2       6 UNK         0.5000 
     41 O           2.7190  -19.9931  -41.6909 O.2       6 UNK        -0.5000 
     42 CA          3.2055  -18.0979  -40.3070 C.3       6 UNK         0.1400 
     43 CB          4.3717  -18.4310  -39.3649 C.3       6 UNK        -0.1800 
     44 N           3.1671  -16.6523  -40.5421 N.am      6 UNK        -0.5000 
     45 C           2.1882  -16.0164  -41.1986 C.2       5 UNK         0.5000 
     46 O           1.2128  -16.5860  -41.6950 O.2       5 UNK        -0.5000 
     47 CA          2.3694  -14.5013  -41.3825 C.3       5 UNK         0.1400 
     48 CB          2.9083  -14.1948  -42.7890 C.3       5 UNK        -0.1800 
     49 N           1.1121  -13.7865  -41.1720 N.am      5 UNK        -0.5000 
     50 C           0.5793  -13.5488  -39.9636 C.2       4 UNK         0.5000 
     51 O           1.1152  -13.8971  -38.9101 O.2       4 UNK        -0.5000 
     52 CA         -0.7523  -12.7714  -39.8955 C.3       4 UNK         0.1400 
     53 CB         -0.4988  -11.3124  -39.4839 C.3       4 UNK        -0.1800 
     54 N          -1.4999  -12.7772  -41.1512 N.am      4 UNK        -0.5000 
     55 C          -2.1844  -13.8229  -41.6311 C.2       3 UNK         0.5000 
     56 O          -2.3319  -14.8806  -41.0182 O.2       3 UNK        -0.5000 
     57 CA         -2.8061  -13.6674  -43.0356 C.3       3 UNK         0.1400 
     58 CB         -4.3162  -13.4049  -42.9264 C.3       3 UNK        -0.1800 
     59 N          -2.2049  -12.6250  -43.8802 N.am      3 UNK        -0.5000 
     60 C          -0.9234  -12.5921  -44.2664 C.2       2 UNK         0.5000 
     61 O          -0.0626  -13.3611  -43.8395 O.2       2 UNK        -0.5000 
     62 CA         -0.5177  -11.5166  -45.2857 C.3       2 UNK         0.1400 
     63 CB          0.3319  -10.4269  -44.6141 C.3       2 UNK        -0.1800 
     64 N           0.2571  -12.1393  -46.3569 N.am      2 UNK        -0.5000 
     65 C          -0.2704  -12.8991  -47.3270 C.2       1 UNK         0.5000 
     66 O          -1.4854  -13.0186  -47.4955 O.2       1 UNK        -0.5000 
     67 C          -1.4650  -22.5879  -47.0317 C.2       11 UNK         0.5000 
     68 O          -1.9616  -23.4497  -47.7561 O.2       11 UNK        -0.5000 
     69 N          -2.1826  -21.8085  -46.2108 N.am      12 UNK        -0.5000 
     70 CA         -3.6321  -21.9072  -46.0403 C.3       12 UNK         0.1400 
     71 CB         -4.1386  -20.7285  -45.1964 C.3       12 UNK        -0.1800 
     72 C          -4.0669  -23.2533  -45.4335 C.2       12 UNK         0.5000 
     73 O          -5.0042  -23.8677  -45.9427 O.2       12 UNK        -0.5000 
     74 N          -3.3530  -23.7099  -44.3945 N.am      13 UNK        -0.5000 
     75 CA         -3.5675  -25.0002  -43.7341 C.3       13 UNK         0.1400 
     76 CB         -2.6990  -25.0791  -42.4696 C.3       13 UNK        -0.1800 
     77 C          -3.2945  -26.2040  -44.6559 C.2       13 UNK         0.5000 
     78 O          -4.0325  -27.1886  -44.6055 O.2       13 UNK        -0.5000 
     79 N          -2.2606  -26.0916  -45.5001 N.am      14 UNK        -0.5000 
     80 CA         -1.8980  -27.0808  -46.5170 C.3       14 UNK         0.1400 
     81 CB         -0.4455  -26.8262  -46.9518 C.3       14 UNK        -0.1800 
     82 C          -2.8260  -27.0719  -47.7493 C.2       14 UNK         0.5000 
     83 O          -2.7541  -28.0018  -48.5537 O.2       14 UNK        -0.5000 
     84 N          -3.6438  -26.0170  -47.8952 N.am      15 UNK        -0.5000 
     85 CA         -4.4725  -25.6823  -49.0601 C.3       15 UNK         0.1400 
     86 CB         -5.5862  -26.7281  -49.2744 C.3       15 UNK        -0.1800 
     87 C          -3.6255  -25.4202  -50.3262 C.2       15 UNK         0.5000 
     88 O          -4.0492  -25.7329  -51.4400 O.2       15 UNK        -0.5000 
     89 N          -2.4335  -24.8505  -50.1154 N.am      16 UNK        -0.5000 
     90 CA         -1.4384  -24.5218  -51.1328 C.3       16 UNK         0.1400 
     91 CB         -0.0574  -24.9409  -50.6011 C.3       16 UNK        -0.1800 
     92 C          -1.4395  -23.0228  -51.4846 C.2       16 UNK         0.5000 
     93 O          -0.7660  -22.6387  -52.4388 O.2       16 UNK        -0.5000 
     94 N          -2.1636  -22.2059  -50.7054 N.am      17 UNK        -0.5000 
     95 CA         -2.3146  -20.7635  -50.8974 C.3       17 UNK         0.1400 
     96 CB         -2.9895  -20.1671  -49.6500 C.3       17 UNK        -0.1800 
     97 C          -3.1152  -20.4032  -52.1629 C.2       17 UNK         0.5000 
     98 O          -3.8480  -21.2370  -52.7015 O.2       17 UNK        -0.5000 
     99 N          -3.0040  -19.1352  -52.5785 N.am      18 UNK        -0.5000 
    100 CA        -3.6428  -18.5337  -53.7531 C.3       18 UNK         0.1400 
    101 CB        -2.8971  -17.2325  -54.1001 C.3       18 UNK        -0.1800 
    102 C         -5.1696  -18.3235  -53.6159 C.2       18 UNK         0.5000 
    103 O         -5.6904  -17.2714  -53.9906 O.2       18 UNK        -0.5000 
    104 N         -5.8814  -19.3416  -53.1210 N.am      19 UNK        -0.5000 
    105 CA        -7.3391  -19.4046  -53.0068 C.3       19 UNK         0.1400 
    106 CB        -7.6993  -20.4015  -51.8909 C.3       19 UNK        -0.1800 
    107 C         -7.9622  -19.7766  -54.3678 C.2       19 UNK         0.5000 
    108 O         -8.5201  -20.8639  -54.5209 O.2       19 UNK        -0.5000 
    109 N         -7.7763  -18.8829  -55.3510 N.am      20 UNK        -0.5000 
    110 CA        -8.0952  -19.0262  -56.7799 C.3       20 UNK         0.1400 
    111 CB        -9.6080  -19.2363  -57.0005 C.3       20 UNK        -0.1800 
    112 C         -7.2345  -20.0856  -57.5092 C.2       20 UNK         0.5000 
    113 O         -7.5630  -20.4707  -58.6324 O.2       20 UNK        -0.5000 
    114 N         -6.1440  -20.5227  -56.8658 N.am      21 UNK        -0.5000 
    115 CA        -5.1673  -21.4781  -57.3772 C.3       21 UNK         0.1400 
    116 CB        -4.7411  -22.4078  -56.2221 C.3       21 UNK        -0.1800 
    117 C         -3.9971  -20.7082  -58.0178 C.2       21 UNK         0.5000 
    118 O         -4.1310  -20.2271  -59.1430 O.2       21 UNK        -0.5000 
    119 N         -2.8823  -20.5851  -57.2886 N.am      22 UNK        -0.5000 
    120 CA        -1.6430  -19.8951  -57.6886 C.3       22 UNK         0.1400 
    121 C         -1.7032  -18.3356  -57.7105 C.2       22 UNK         0.5000 
    122 N         -2.8575  -17.7068  -57.5317 N.am      22 UNK        -0.7600 
    123 O         -0.6848  -17.6801  -57.9134 O.2       22 UNK        -0.5000 
    124 C124       -0.4264  -20.4391  -56.8922 C.3       23 UNK        -0.0398 
    125 S125       -0.6255  -20.3383  -55.0784 S.3       23 UNK        -0.2404 
    126 C126        0.7857  -19.2917  -54.6122 C.3       23 UNK        -0.0205 
    127 H127        4.4162  -11.5172  -49.5615 H         1 UNK         0.0600 
    128 H128        4.5331  -12.4771  -48.0843 H         1 UNK         0.0600 
    129 H129        4.1287  -10.7607  -47.9908 H         1 UNK         0.0600 
    130 H130        2.7725  -13.7816  -47.7895 H         1 UNK         0.3000 
    131 H131        0.7766  -14.6688  -47.7441 H         1 UNK         0.0600 
    132 H132        0.1694  -13.0180  -50.2405 H         1 UNK         0.0800 
    133 H133       -0.8846  -14.2531  -49.6263 H         1 UNK         0.0800 
    134 H134       -0.9819  -16.3708  -50.8257 H         1 UNK         0.0800 
    135 H135       -0.1975  -16.8267  -49.3313 H         1 UNK         0.0800 
    136 H136       -0.0122  -17.2003  -53.0411 H         1 UNK         0.1150 
    137 H137        1.8054  -21.0716  -52.8326 H         1 UNK         0.1150 
    138 H138        1.2035  -18.7665  -49.2575 H         1 UNK         0.1150 
    139 H139        3.2224  -21.3632  -50.5204 H         1 UNK         0.0800 
    140 H140        1.6690  -22.1577  -50.4664 H         1 UNK         0.0800 
    141 H141        0.1382  -20.2556  -47.5032 H         1 UNK         0.0800 
    142 H142       -0.1194  -21.2651  -48.9006 H         1 UNK         0.0800 
    143 H143        0.4954  -23.2943  -47.4718 H         1 UNK         0.0600 
    144 H144        1.0910  -21.3909  -45.4693 H         1 UNK         0.3000 
    145 H145        0.5776  -23.5657  -42.6292 H         1 UNK         0.0600 
    146 H146        2.8759  -23.9216  -43.5313 H         1 UNK         0.0600 
    147 H147        2.8736  -22.7609  -42.2126 H         1 UNK         0.0600 
    148 H148        3.0206  -22.2036  -43.8772 H         1 UNK         0.0600 
    149 H149        1.2743  -20.8220  -42.7165 H         1 UNK         0.3000 
    150 H150       -2.0783  -19.5048  -42.5945 H         1 UNK         0.0600 
    151 H151        0.2473  -19.5769  -40.6010 H         1 UNK         0.0600 
    152 H152       -1.4139  -20.0431  -40.2630 H         1 UNK         0.0600 
    153 H153       -1.0346  -18.3687  -40.6428 H         1 UNK         0.0600 
    154 H154        0.4077  -18.1569  -42.6941 H         1 UNK         0.3000 
    155 H155        0.7713  -18.0212  -46.2577 H         1 UNK         0.0600 
    156 H156        0.9701  -15.6043  -45.5579 H         1 UNK         0.0600 
    157 H157        0.0737  -15.9749  -44.0889 H         1 UNK         0.0600 
    158 H158       -0.7018  -16.1408  -45.6568 H         1 UNK         0.0600 
    159 H159        2.3738  -17.0883  -44.0735 H         1 UNK         0.3000 
    160 H160        4.4765  -19.9848  -43.8392 H         1 UNK         0.0600 
    161 H161        6.1662  -18.2258  -44.2658 H         1 UNK         0.0600 
    162 H162        4.9226  -17.1266  -44.8622 H         1 UNK         0.0600 
    163 H163        5.3031  -18.5978  -45.7495 H         1 UNK         0.0600 
    164 H164        4.4728  -17.4884  -42.4485 H         1 UNK         0.3000 
    165 H165        2.2750  -18.3806  -39.8107 H         1 UNK         0.0600 
    166 H166        4.2650  -17.9190  -38.4085 H         1 UNK         0.0600 
    167 H167        4.4107  -19.5011  -39.1563 H         1 UNK         0.0600 
    168 H168        5.3326  -18.1452  -39.7946 H         1 UNK         0.0600 
    169 H169        3.9370  -16.1160  -40.1684 H         1 UNK         0.3000 
    170 H170        3.0982  -14.1363  -40.6555 H         1 UNK         0.0600 
    171 H171        3.0074  -13.1211  -42.9493 H         1 UNK         0.0600 
    172 H172        2.2553  -14.5888  -43.5676 H         1 UNK         0.0600 
    173 H173        3.8938  -14.6384  -42.9349 H         1 UNK         0.0600 
    174 H174        0.5917  -13.5413  -42.0092 H         1 UNK         0.3000 
    175 H175       -1.3664  -13.2409  -39.1240 H         1 UNK         0.0600 
    176 H176        0.0295  -11.2605  -38.5310 H         1 UNK         0.0600 
    177 H177        0.1056  -10.7853  -40.2234 H         1 UNK         0.0600 
    178 H178       -1.4353  -10.7674  -39.3641 H         1 UNK         0.0600 
    179 H179       -1.4320  -11.9501  -41.7251 H         1 UNK         0.3000 
    180 H180       -2.6632  -14.6205  -43.5492 H         1 UNK         0.0600 
    181 H181       -4.5231  -12.4451  -42.4515 H         1 UNK         0.0600 
    182 H182       -4.8070  -14.1774  -42.3326 H         1 UNK         0.0600 
    183 H183       -4.7898  -13.4044  -43.9084 H         1 UNK         0.0600 
    184 H184       -2.8445  -11.9447  -44.2650 H         1 UNK         0.3000 
    185 H185       -1.4117  -11.0535  -45.7090 H         1 UNK         0.0600 
    186 H186       -0.2271   -9.9307  -43.8198 H         1 UNK         0.0600 
    187 H187        1.2394  -10.8380  -44.1694 H         1 UNK         0.0600 
    188 H188        0.6276   -9.6607  -45.3310 H         1 UNK         0.0600 
    189 H189        1.2609  -12.1221  -46.2568 H         1 UNK         0.3000 
    190 H190       -1.7113  -21.0800  -45.6805 H         1 UNK         0.3000 
    191 H191       -4.0872  -21.8300  -47.0299 H         1 UNK         0.0600 
    192 H192       -3.8993  -19.7757  -45.6692 H         1 UNK         0.0600 
    193 H193       -5.2219  -20.7702  -45.0773 H         1 UNK         0.0600 
    194 H194       -3.6979  -20.7259  -44.1996 H         1 UNK         0.0600 
    195 H195       -2.6212  -23.1195  -44.0064 H         1 UNK         0.3000 
    196 H196       -4.6151  -25.0478  -43.4301 H         1 UNK         0.0600 
    197 H197       -2.8495  -26.0256  -41.9490 H         1 UNK         0.0600 
    198 H198       -2.9477  -24.2802  -41.7708 H         1 UNK         0.0600 
    199 H199       -1.6374  -24.9977  -42.7055 H         1 UNK         0.0600 
    200 H200       -1.6571  -25.2774  -45.4272 H         1 UNK         0.3000 
    201 H201       -1.9529  -28.0758  -46.0709 H         1 UNK         0.0600 
    202 H202       -0.1199  -27.5601  -47.6900 H         1 UNK         0.0600 
    203 H203        0.2373  -26.8936  -46.1047 H         1 UNK         0.0600 
    204 H204       -0.3286  -25.8378  -47.3979 H         1 UNK         0.0600 
    205 H205       -3.6160  -25.3089  -47.1728 H         1 UNK         0.3000 
    206 H206       -4.9559  -24.7343  -48.8201 H         1 UNK         0.0600 
    207 H207       -6.1559  -26.8888  -48.3591 H         1 UNK         0.0600 
    208 H208       -6.2892  -26.3970  -50.0395 H         1 UNK         0.0600 
    209 H209       -5.1862  -27.6902  -49.5950 H         1 UNK         0.0600 
    210 H210       -2.2015  -24.5735  -49.1634 H         1 UNK         0.3000 
    211 H211       -1.6396  -25.0780  -52.0505 H         1 UNK         0.0600 
    212 H212        0.2084  -24.3932  -49.6964 H         1 UNK         0.0600 
    213 H213        0.7220  -24.7522  -51.3405 H         1 UNK         0.0600 
    214 H214       -0.0323  -26.0054  -50.3668 H         1 UNK         0.0600 
    215 H215       -2.6935  -22.6221  -49.9543 H         1 UNK         0.3000 
    216 H216       -1.3185  -20.3319  -50.9999 H         1 UNK         0.0600 
    217 H217       -3.1208  -19.0887  -49.7463 H         1 UNK         0.0600 
    218 H218       -2.3920  -20.3315  -48.7550 H         1 UNK         0.0600 
    219 H219       -3.9752  -20.6023  -49.4801 H         1 UNK         0.0600 
    220 H220       -2.4023  -18.5181  -52.0545 H         1 UNK         0.3000 
    221 H221       -3.5088  -19.2177  -54.5930 H         1 UNK         0.0600 
    222 H222       -2.8851  -16.5369  -53.2604 H         1 UNK         0.0600 
    223 H223       -1.8671  -17.4399  -54.3870 H         1 UNK         0.0600 
    224 H224       -3.3563  -16.7180  -54.9443 H         1 UNK         0.0600 
    225 H225       -5.3692  -20.1869  -52.8791 H         1 UNK         0.3000 
    226 H226       -7.7244  -18.4240  -52.7193 H         1 UNK         0.0600 
    227 H227       -7.2835  -20.0865  -50.9337 H         1 UNK         0.0600 
    228 H228       -7.3210  -21.4020  -52.1056 H         1 UNK         0.0600 
    229 H229       -8.7804  -20.4762  -51.7667 H         1 UNK         0.0600 
    230 H230       -7.2676  -18.0396  -55.1036 H         1 UNK         0.3000 
    231 H231       -7.8322  -18.0709  -57.2363 H         1 UNK         0.0600 
    232 H232       -9.9377  -20.2172  -56.6578 H         1 UNK         0.0600 
    233 H233       -9.8623  -19.1612  -58.0583 H         1 UNK         0.0600 
    234 H234      -10.1924  -18.4817  -56.4742 H         1 UNK         0.0600 
    235 H235       -5.9671  -20.1474  -55.9475 H         1 UNK         0.3000 
    236 H236       -5.6165  -22.0972  -58.1565 H         1 UNK         0.0600 
    237 H237       -4.3479  -21.8566  -55.3670 H         1 UNK         0.0600 
    238 H238       -5.5888  -22.9943  -55.8668 H         1 UNK         0.0600 
    239 H239       -3.9765  -23.1151  -56.5462 H         1 UNK         0.0600 
    240 H240       -2.8566  -21.0024  -56.3694 H         1 UNK         0.3000 
    241 H241       -1.4661  -20.1645  -58.7314 H         1 UNK         0.0600 
    242 H242       -3.7129  -18.2282  -57.4437 H         1 UNK         0.3800 
    243 H243       -2.8799  -16.7001  -57.5658 H         1 UNK         0.3800 
    244 H244        0.4955  -19.9426  -57.1995 H         1 UNK         0.0800 
    245 H245       -0.2794  -21.4906  -57.1418 H         1 UNK         0.0800 
    246 H246        1.7068  -19.7278  -55.0016 H         1 UNK         0.0800 
    247 H247        0.6800  -18.3131  -55.0836 H         1 UNK         0.0800 
@<TRIPOS>BOND
     1    1    2 1    
     2    1  127 1    
     3    1  128 1    
     4    1  129 1    
     5    2    3 2    
     6    2    4 am   BACKBONE|DICT|INTERRES
     7    4    5 1    
     8    4  130 1    
     9    5    6 1    
    10    5   65 1    
    11    5  131 1    
    12    6    7 1    
    13    6  132 1    
    14    6  133 1    
    15    7    8 1    
    16    8    9 1    
    17    8  134 1    
    18    8  135 1    
    19    9   10 ar   
    20    9   14 ar   
    21   10   11 ar   
    22   10  136 1    
    23   11   12 ar   
    24   11  126 1    
    25   12   13 ar   
    26   12  137 1    
    27   13   14 ar   
    28   13   15 1    
    29   14  138 1    
    30   15   16 1    
    31   15  139 1    
    32   15  140 1    
    33   16   17 1    
    34   17   18 1    
    35   17  141 1    
    36   17  142 1    
    37   18   19 1    
    38   18   67 1    
    39   18  143 1    
    40   19   20 am   BACKBONE|DICT|INTERRES
    41   19  144 1    
    42   20   21 2    
    43   20   22 1    
    44   22   23 1    
    45   22   24 1    
    46   22  145 1    
    47   23  146 1    
    48   23  147 1    
    49   23  148 1    
    50   24   25 am   BACKBONE|DICT|INTERRES
    51   24  149 1    
    52   25   26 2    
    53   25   27 1    
    54   27   28 1    
    55   27   29 1    
    56   27  150 1    
    57   28  151 1    
    58   28  152 1    
    59   28  153 1    
    60   29   30 am   BACKBONE|DICT|INTERRES
    61   29  154 1    
    62   30   31 2    
    63   30   32 1    
    64   32   33 1    
    65   32   34 1    
    66   32  155 1    
    67   33  156 1    
    68   33  157 1    
    69   33  158 1    
    70   34   35 am   BACKBONE|DICT|INTERRES
    71   34  159 1    
    72   35   36 2    
    73   35   37 1    
    74   37   38 1    
    75   37   39 1    
    76   37  160 1    
    77   38  161 1    
    78   38  162 1    
    79   38  163 1    
    80   39   40 am   BACKBONE|DICT|INTERRES
    81   39  164 1    
    82   40   41 2    
    83   40   42 1    
    84   42   43 1    
    85   42   44 1    
    86   42  165 1    
    87   43  166 1    
    88   43  167 1    
    89   43  168 1    
    90   44   45 am   BACKBONE|DICT|INTERRES
    91   44  169 1    
    92   45   46 2    
    93   45   47 1    
    94   47   48 1    
    95   47   49 1    
    96   47  170 1    
    97   48  171 1    
    98   48  172 1    
    99   48  173 1    
   100   49   50 am   BACKBONE|DICT|INTERRES
   101   49  174 1    
   102   50   51 2    
   103   50   52 1    
   104   52   53 1    
   105   52   54 1    
   106   52  175 1    
   107   53  176 1    
   108   53  177 1    
   109   53  178 1    
   110   54   55 am   BACKBONE|DICT|INTERRES
   111   54  179 1    
   112   55   56 2    
   113   55   57 1    
   114   57   58 1    
   115   57   59 1    
   116   57  180 1    
   117   58  181 1    
   118   58  182 1    
   119   58  183 1    
   120   59   60 am   BACKBONE|DICT|INTERRES
   121   59  184 1    
   122   60   61 2    
   123   60   62 1    
   124   62   63 1    
   125   62   64 1    
   126   62  185 1    
   127   63  186 1    
   128   63  187 1    
   129   63  188 1    
   130   64   65 am   BACKBONE|DICT|INTERRES
   131   64  189 1    
   132   65   66 2    
   133   67   68 2    
   134   67   69 am   BACKBONE|DICT|INTERRES
   135   69   70 1    
   136   69  190 1    
   137   70   71 1    
   138   70   72 1    
   139   70  191 1    
   140   71  192 1    
   141   71  193 1    
   142   71  194 1    
   143   72   73 2    
   144   72   74 am   BACKBONE|DICT|INTERRES
   145   74   75 1    
   146   74  195 1    
   147   75   76 1    
   148   75   77 1    
   149   75  196 1    
   150   76  197 1    
   151   76  198 1    
   152   76  199 1    
   153   77   78 2    
   154   77   79 am   BACKBONE|DICT|INTERRES
   155   79   80 1    
   156   79  200 1    
   157   80   81 1    
   158   80   82 1    
   159   80  201 1    
   160   81  202 1    
   161   81  203 1    
   162   81  204 1    
   163   82   83 2    
   164   82   84 am   BACKBONE|DICT|INTERRES
   165   84   85 1    
   166   84  205 1    
   167   85   86 1    
   168   85   87 1    
   169   85  206 1    
   170   86  207 1    
   171   86  208 1    
   172   86  209 1    
   173   87   88 2    
   174   87   89 am   BACKBONE|DICT|INTERRES
   175   89   90 1    
   176   89  210 1    
   177   90   91 1    
   178   90   92 1    
   179   90  211 1    
   180   91  212 1    
   181   91  213 1    
   182   91  214 1    
   183   92   93 2    
   184   92   94 am   BACKBONE|DICT|INTERRES
   185   94   95 1    
   186   94  215 1    
   187   95   96 1    
   188   95   97 1    
   189   95  216 1    
   190   96  217 1    
   191   96  218 1    
   192   96  219 1    
   193   97   98 2    
   194   97   99 am   BACKBONE|DICT|INTERRES
   195   99  100 1    
   196   99  220 1    
   197  100  101 1    
   198  100  102 1    
   199  100  221 1    
   200  101  222 1    
   201  101  223 1    
   202  101  224 1    
   203  102  103 2    
   204  102  104 am   BACKBONE|DICT|INTERRES
   205  104  105 1    
   206  104  225 1    
   207  105  106 1    
   208  105  107 1    
   209  105  226 1    
   210  106  227 1    
   211  106  228 1    
   212  106  229 1    
   213  107  108 2    
   214  107  109 am   BACKBONE|DICT|INTERRES
   215  109  110 1    
   216  109  230 1    
   217  110  111 1    
   218  110  112 1    
   219  110  231 1    
   220  111  232 1    
   221  111  233 1    
   222  111  234 1    
   223  112  113 2    
   224  112  114 am   BACKBONE|DICT|INTERRES
   225  114  115 1    
   226  114  235 1    
   227  115  116 1    
   228  115  117 1    
   229  115  236 1    
   230  116  237 1    
   231  116  238 1    
   232  116  239 1    
   233  117  118 2    
   234  117  119 am   BACKBONE|DICT|INTERRES
   235  119  120 1    
   236  119  240 1    
   237  120  121 1    
   238  120  124 1    
   239  120  241 1    
   240  121  122 am   BACKBONE|DICT|INTERRES
   241  121  123 2    
   242  122  242 1    
   243  122  243 1    
   244  124  125 1    
   245  124  244 1    
   246  124  245 1    
   247  125  126 1    
   248  126  246 1    
   249  126  247 1    
@<TRIPOS>SUBSTRUCTURE
     1 UNK         1 GROUP             0       ****    0 ROOT    
