@<TRIPOS>MOLECULE
3R540
247   249    1
SMALL
USER_CHARGES


@<TRIPOS>ATOM
      1 CA         -1.7510  -15.7486  -50.9498 C.3       0 UNK        -0.1800 
      2 C          -0.5328  -14.9830  -50.4564 C.2       0 UNK         0.5000 
      3 O          -0.6073  -13.7656  -50.2867 O.2       0 UNK        -0.5000 
      4 N           0.5801  -15.6917  -50.2307 N.am      1 UNK        -0.5000 
      5 CA          1.8171  -15.1591  -49.6496 C.3       1 UNK         0.1400 
      6 C6          3.0824  -15.8163  -50.2669 C.3       23 UNK        -0.0398 
      7 S7          3.1629  -15.6104  -52.0798 S.3       23 UNK        -0.2404 
      8 C8          4.1099  -17.0828  -52.5916 C.3       23 UNK        -0.0205 
      9 C9          3.4170  -18.3896  -52.2276 C.ar      23 UNK        -0.0193 
     10 C10         2.1900  -18.7247  -52.8089 C.ar      23 UNK        -0.1150 
     11 C11         1.5475  -19.9187  -52.4701 C.ar      23 UNK        -0.0193 
     12 C12         2.1445  -20.7802  -51.5458 C.ar      23 UNK        -0.1150 
     13 C13         3.3819  -20.4715  -50.9752 C.ar      23 UNK        -0.0193 
     14 C14         4.0127  -19.2724  -51.3199 C.ar      23 UNK        -0.1150 
     15 C15         4.0544  -21.4688  -50.0385 C.3       23 UNK        -0.0205 
     16 S16         4.4940  -20.7865  -48.4053 S.3       23 UNK        -0.2404 
     17 C17         2.9036  -20.1872  -47.7476 C.3       23 UNK        -0.0398 
     18 CA          1.9920  -21.3077  -47.1729 C.3       11 UNK         0.1400 
     19 N           1.3805  -20.9276  -45.8913 N.am      11 UNK        -0.5000 
     20 C           0.7068  -21.7689  -45.0940 C.2       10 UNK         0.5000 
     21 O           0.5269  -22.9577  -45.3524 O.2       10 UNK        -0.5000 
     22 CA          0.1031  -21.1832  -43.8039 C.3       10 UNK         0.1400 
     23 CB          1.1747  -21.0728  -42.7091 C.3       10 UNK        -0.1800 
     24 N          -0.5672  -19.8875  -43.9480 N.am      10 UNK        -0.5000 
     25 C          -1.5203  -19.5760  -44.8398 C.2       9 UNK         0.5000 
     26 O          -1.8287  -20.2880  -45.7955 O.2       9 UNK        -0.5000 
     27 CA         -2.2654  -18.2503  -44.5814 C.3       9 UNK         0.1400 
     28 CB         -3.4990  -18.0558  -45.4868 C.3       9 UNK        -0.1800 
     29 N          -2.6113  -18.0985  -43.1645 N.am      9 UNK        -0.5000 
     30 C          -3.4117  -18.8855  -42.4274 C.2       8 UNK         0.5000 
     31 O          -4.0679  -19.8253  -42.8764 O.2       8 UNK        -0.5000 
     32 CA         -3.4711  -18.5825  -40.9202 C.3       8 UNK         0.1400 
     33 CB         -2.4038  -19.4001  -40.1747 C.3       8 UNK        -0.1800 
     34 N          -3.2633  -17.1613  -40.6413 N.am      8 UNK        -0.5000 
     35 C          -4.2432  -16.2501  -40.5686 C.2       7 UNK         0.5000 
     36 O          -5.4399  -16.5216  -40.6730 O.2       7 UNK        -0.5000 
     37 CA         -3.8184  -14.7853  -40.3419 C.3       7 UNK         0.1400 
     38 CB         -3.7852  -14.4611  -38.8405 C.3       7 UNK        -0.1800 
     39 N          -2.5137  -14.4719  -40.9270 N.am      7 UNK        -0.5000 
     40 C          -2.2735  -14.3771  -42.2420 C.2       6 UNK         0.5000 
     41 O          -3.1452  -14.4783  -43.1052 O.2       6 UNK        -0.5000 
     42 CA         -0.8091  -14.1604  -42.6687 C.3       6 UNK         0.1400 
     43 CB         -0.5283  -12.6691  -42.9048 C.3       6 UNK        -0.1800 
     44 N           0.1861  -14.6883  -41.7297 N.am      6 UNK        -0.5000 
     45 C           0.3254  -15.9790  -41.3961 C.2       5 UNK         0.5000 
     46 O          -0.4727  -16.8582  -41.7286 O.2       5 UNK        -0.5000 
     47 CA          1.5850  -16.3352  -40.5913 C.3       5 UNK         0.1400 
     48 CB          1.8050  -17.8547  -40.4602 C.3       5 UNK        -0.1800 
     49 N           2.7523  -15.7205  -41.2217 N.am      5 UNK        -0.5000 
     50 C           3.8469  -15.2959  -40.5772 C.2       4 UNK         0.5000 
     51 O           3.9715  -15.3458  -39.3526 O.2       4 UNK        -0.5000 
     52 CA          5.0124  -14.7362  -41.4223 C.3       4 UNK         0.1400 
     53 CB          6.1615  -15.7548  -41.4855 C.3       4 UNK        -0.1800 
     54 N           4.6395  -14.3719  -42.7905 N.am      4 UNK        -0.5000 
     55 C           3.9231  -13.2928  -43.1317 C.2       3 UNK         0.5000 
     56 O           3.5278  -12.4537  -42.3218 O.2       3 UNK        -0.5000 
     57 CA          3.5630  -13.1348  -44.6255 C.3       3 UNK         0.1400 
     58 CB          4.5722  -12.2108  -45.3238 C.3       3 UNK        -0.1800 
     59 N           3.4560  -14.3857  -45.3907 N.am      3 UNK        -0.5000 
     60 C           2.6634  -15.4216  -45.0812 C.2       2 UNK         0.5000 
     61 O           2.0351  -15.4982  -44.0280 O.2       2 UNK        -0.5000 
     62 CA          2.5593  -16.5676  -46.1074 C.3       2 UNK         0.1400 
     63 CB          1.3076  -17.4379  -45.8617 C.3       2 UNK        -0.1800 
     64 N           2.5943  -16.1265  -47.5078 N.am      2 UNK        -0.5000 
     65 C           1.7168  -15.3082  -48.1134 C.2       1 UNK         0.5000 
     66 O           0.8259  -14.7073  -47.5101 O.2       1 UNK        -0.5000 
     67 C           0.9245  -21.7340  -48.2015 C.2       11 UNK         0.5000 
     68 O           1.0572  -22.7832  -48.8317 O.2       11 UNK        -0.5000 
     69 N          -0.1352  -20.9220  -48.3206 N.am      12 UNK        -0.5000 
     70 CA         -1.2624  -21.1590  -49.2194 C.3       12 UNK         0.1400 
     71 CB         -2.1399  -19.9005  -49.2750 C.3       12 UNK        -0.1800 
     72 C          -2.0888  -22.3828  -48.7954 C.2       12 UNK         0.5000 
     73 O          -2.5211  -23.1509  -49.6545 O.2       12 UNK        -0.5000 
     74 N          -2.2704  -22.5539  -47.4795 N.am      13 UNK        -0.5000 
     75 CA         -2.9357  -23.7010  -46.8676 C.3       13 UNK         0.1400 
     76 CB         -3.1430  -23.4353  -45.3692 C.3       13 UNK        -0.1800 
     77 C          -2.1669  -25.0141  -47.0994 C.2       13 UNK         0.5000 
     78 O          -2.7812  -26.0095  -47.4824 O.2       13 UNK        -0.5000 
     79 N          -0.8381  -24.9842  -46.9159 N.am      14 UNK        -0.5000 
     80 CA          0.0658  -26.1099  -47.1707 C.3       14 UNK         0.1400 
     81 CB          1.4709  -25.7728  -46.6496 C.3       14 UNK        -0.1800 
     82 C           0.1223  -26.5107  -48.6564 C.2       14 UNK         0.5000 
     83 O           0.1766  -27.7019  -48.9639 O.2       14 UNK        -0.5000 
     84 N           0.0726  -25.5127  -49.5486 N.am      15 UNK        -0.5000 
     85 CA         -0.0095  -25.6919  -50.9993 C.3       15 UNK         0.1400 
     86 CB          0.3807  -24.3696  -51.6790 C.3       15 UNK        -0.1800 
     87 C          -1.3975  -26.1563  -51.4894 C.2       15 UNK         0.5000 
     88 O          -1.5130  -26.5652  -52.6453 O.2       15 UNK        -0.5000 
     89 N          -2.4197  -26.0589  -50.6236 N.am      16 UNK        -0.5000 
     90 CA         -3.8465  -26.2814  -50.8898 C.3       16 UNK         0.1400 
     91 CB         -4.1255  -27.7626  -51.2171 C.3       16 UNK        -0.1800 
     92 C          -4.4036  -25.3053  -51.9499 C.2       16 UNK         0.5000 
     93 O          -5.2654  -25.6734  -52.7500 O.2       16 UNK        -0.5000 
     94 N          -3.8784  -24.0752  -51.9342 N.am      17 UNK        -0.5000 
     95 CA         -4.1315  -23.0162  -52.9081 C.3       17 UNK         0.1400 
     96 CB         -2.7789  -22.5752  -53.4815 C.3       17 UNK        -0.1800 
     97 C          -4.8641  -21.8147  -52.2866 C.2       17 UNK         0.5000 
     98 O          -5.1954  -20.8763  -53.0128 O.2       17 UNK        -0.5000 
     99 N          -5.1187  -21.8535  -50.9692 N.am      18 UNK        -0.5000 
    100 CA        -5.7969  -20.8058  -50.1984 C.3       18 UNK         0.1400 
    101 CB        -5.8005  -21.1885  -48.7104 C.3       18 UNK        -0.1800 
    102 C         -7.2270  -20.5029  -50.6818 C.2       18 UNK         0.5000 
    103 O         -7.6519  -19.3497  -50.6233 O.2       18 UNK        -0.5000 
    104 N         -7.9180  -21.5237  -51.2085 N.am      19 UNK        -0.5000 
    105 CA        -9.2462  -21.4139  -51.8196 C.3       19 UNK         0.1400 
    106 CB        -9.7840  -22.8261  -52.0954 C.3       19 UNK        -0.1800 
    107 C         -9.2641  -20.5693  -53.1114 C.2       19 UNK         0.5000 
    108 O        -10.3012  -19.9946  -53.4433 O.2       19 UNK        -0.5000 
    109 N         -8.1182  -20.4978  -53.8010 N.am      20 UNK        -0.5000 
    110 CA        -7.8915  -19.6794  -54.9928 C.3       20 UNK         0.1400 
    111 CB        -7.1712  -20.5476  -56.0390 C.3       20 UNK        -0.1800 
    112 C         -7.0600  -18.4201  -54.6740 C.2       20 UNK         0.5000 
    113 O         -6.7221  -17.6761  -55.5963 O.2       20 UNK        -0.5000 
    114 N         -6.6977  -18.2272  -53.3945 N.am      21 UNK        -0.5000 
    115 CA        -5.8040  -17.1935  -52.8586 C.3       21 UNK         0.1400 
    116 CB        -6.5135  -15.8245  -52.8622 C.3       21 UNK        -0.1800 
    117 C         -4.4255  -17.1584  -53.5572 C.2       21 UNK         0.5000 
    118 O         -3.8641  -16.0797  -53.7542 O.2       21 UNK        -0.5000 
    119 N         -3.9314  -18.3395  -53.9574 N.am      22 UNK        -0.5000 
    120 CA        -2.7245  -18.5428  -54.7808 C.3       22 UNK         0.1400 
    121 C         -2.8010  -17.9377  -56.2194 C.2       22 UNK         0.5000 
    122 N         -3.9706  -17.5753  -56.7350 N.am      22 UNK        -0.7600 
    123 O         -1.7874  -17.8289  -56.9043 O.2       22 UNK        -0.5000 
    124 C124       -1.4092  -18.1744  -54.0344 C.3       23 UNK        -0.0398 
    125 S125       -1.1430  -19.2407  -52.5756 S.3       23 UNK        -0.2404 
    126 C126        0.2297  -20.3044  -53.1241 C.3       23 UNK        -0.0205 
    127 H127       -1.5880  -16.8255  -50.9345 H         1 UNK         0.0600 
    128 H128       -1.9855  -15.4497  -51.9705 H         1 UNK         0.0600 
    129 H129       -2.6151  -15.5299  -50.3226 H         1 UNK         0.0600 
    130 H130        0.5737  -16.6860  -50.4057 H         1 UNK         0.3000 
    131 H131        1.8816  -14.0879  -49.8521 H         1 UNK         0.0600 
    132 H132        3.1094  -16.8799  -50.0302 H         1 UNK         0.0800 
    133 H133        3.9880  -15.3759  -49.8462 H         1 UNK         0.0800 
    134 H134        4.2551  -17.0493  -53.6722 H         1 UNK         0.0800 
    135 H135        5.1058  -17.0338  -52.1483 H         1 UNK         0.0800 
    136 H136        1.7334  -18.0523  -53.5214 H         1 UNK         0.1150 
    137 H137        1.6555  -21.7084  -51.2888 H         1 UNK         0.1150 
    138 H138        4.9722  -19.0322  -50.8835 H         1 UNK         0.1150 
    139 H139        3.4325  -22.3531  -49.8968 H         1 UNK         0.0800 
    140 H140        4.9676  -21.8240  -50.5173 H         1 UNK         0.0800 
    141 H141        2.4006  -19.5690  -48.4941 H         1 UNK         0.0800 
    142 H142        3.1828  -19.4971  -46.9519 H         1 UNK         0.0800 
    143 H143        2.6067  -22.1870  -46.9671 H         1 UNK         0.0600 
    144 H144        1.4730  -19.9678  -45.5987 H         1 UNK         0.3000 
    145 H145       -0.6551  -21.8885  -43.4584 H         1 UNK         0.0600 
    146 H146        0.7369  -20.7753  -41.7559 H         1 UNK         0.0600 
    147 H147        1.6729  -22.0303  -42.5507 H         1 UNK         0.0600 
    148 H148        1.9418  -20.3425  -42.9689 H         1 UNK         0.0600 
    149 H149       -0.3976  -19.2223  -43.2067 H         1 UNK         0.3000 
    150 H150       -1.5649  -17.4469  -44.8064 H         1 UNK         0.0600 
    151 H151       -3.2079  -18.0218  -46.5370 H         1 UNK         0.0600 
    152 H152       -4.0083  -17.1189  -45.2606 H         1 UNK         0.0600 
    153 H153       -4.2197  -18.8664  -45.3752 H         1 UNK         0.0600 
    154 H154       -2.0602  -17.4092  -42.6625 H         1 UNK         0.3000 
    155 H155       -4.4516  -18.8922  -40.5523 H         1 UNK         0.0600 
    156 H156       -1.3960  -19.1528  -40.5097 H         1 UNK         0.0600 
    157 H157       -2.5484  -20.4691  -40.3365 H         1 UNK         0.0600 
    158 H158       -2.4523  -19.2246  -39.1000 H         1 UNK         0.0600 
    159 H159       -2.3020  -16.8489  -40.5964 H         1 UNK         0.3000 
    160 H160       -4.5683  -14.1457  -40.8123 H         1 UNK         0.0600 
    161 H161       -3.0398  -15.0595  -38.3151 H         1 UNK         0.0600 
    162 H162       -4.7522  -14.6604  -38.3769 H         1 UNK         0.0600 
    163 H163       -3.5546  -13.4096  -38.6688 H         1 UNK         0.0600 
    164 H164       -1.7380  -14.3653  -40.2899 H         1 UNK         0.3000 
    165 H165       -0.6700  -14.6852  -43.6165 H         1 UNK         0.0600 
    166 H166        0.4760  -12.5160  -43.2999 H         1 UNK         0.0600 
    167 H167       -1.2283  -12.2484  -43.6279 H         1 UNK         0.0600 
    168 H168       -0.6191  -12.0923  -41.9837 H         1 UNK         0.0600 
    169 H169        0.8990  -14.0413  -41.4254 H         1 UNK         0.3000 
    170 H170        1.4417  -15.9173  -39.5929 H         1 UNK         0.0600 
    171 H171        0.9541  -18.3361  -39.9771 H         1 UNK         0.0600 
    172 H172        1.9408  -18.3216  -41.4359 H         1 UNK         0.0600 
    173 H173        2.6858  -18.0765  -39.8577 H         1 UNK         0.0600 
    174 H174        2.6873  -15.6098  -42.2315 H         1 UNK         0.3000 
    175 H175        5.3795  -13.8408  -40.9164 H         1 UNK         0.0600 
    176 H176        5.8574  -16.6729  -41.9899 H         1 UNK         0.0600 
    177 H177        7.0219  -15.3475  -42.0168 H         1 UNK         0.0600 
    178 H178        6.4996  -16.0271  -40.4847 H         1 UNK         0.0600 
    179 H179        4.9142  -15.0113  -43.5213 H         1 UNK         0.3000 
    180 H180        2.5834  -12.6550  -44.6652 H         1 UNK         0.0600 
    181 H181        5.5668  -12.6569  -45.3593 H         1 UNK         0.0600 
    182 H182        4.6584  -11.2574  -44.8004 H         1 UNK         0.0600 
    183 H183        4.2649  -11.9903  -46.3462 H         1 UNK         0.0600 
    184 H184        3.9449  -14.4120  -46.2731 H         1 UNK         0.3000 
    185 H185        3.4396  -17.1936  -45.9567 H         1 UNK         0.0600 
    186 H186        1.3744  -17.9550  -44.9041 H         1 UNK         0.0600 
    187 H187        0.4051  -16.8273  -45.8405 H         1 UNK         0.0600 
    188 H188        1.1723  -18.1829  -46.6430 H         1 UNK         0.0600 
    189 H189        3.3188  -16.5497  -48.0692 H         1 UNK         0.3000 
    190 H190       -0.2202  -20.1340  -47.6963 H         1 UNK         0.3000 
    191 H191       -0.8652  -21.3468  -50.2189 H         1 UNK         0.0600 
    192 H192       -1.5493  -19.0158  -49.5121 H         1 UNK         0.0600 
    193 H193       -2.8974  -19.9981  -50.0517 H         1 UNK         0.0600 
    194 H194       -2.6537  -19.7169  -48.3312 H         1 UNK         0.0600 
    195 H195       -1.9352  -21.8298  -46.8483 H         1 UNK         0.3000 
    196 H196       -3.9184  -23.8022  -47.3330 H         1 UNK         0.0600 
    197 H197       -3.6767  -24.2604  -44.8964 H         1 UNK         0.0600 
    198 H198       -3.7298  -22.5306  -45.2070 H         1 UNK         0.0600 
    199 H199       -2.1946  -23.3140  -44.8461 H         1 UNK         0.0600 
    200 H200       -0.4087  -24.1360  -46.5560 H         1 UNK         0.3000 
    201 H201       -0.3068  -26.9700  -46.6106 H         1 UNK         0.0600 
    202 H202        1.4577  -25.5851  -45.5759 H         1 UNK         0.0600 
    203 H203        1.8798  -24.8879  -47.1388 H         1 UNK         0.0600 
    204 H204        2.1631  -26.5968  -46.8266 H         1 UNK         0.0600 
    205 H205        0.1056  -24.5559  -49.2111 H         1 UNK         0.3000 
    206 H206        0.7134  -26.4544  -51.2962 H         1 UNK         0.0600 
    207 H207        1.3968  -24.0795  -51.4123 H         1 UNK         0.0600 
    208 H208        0.3429  -24.4565  -52.7656 H         1 UNK         0.0600 
    209 H209       -0.2882  -23.5582  -51.3910 H         1 UNK         0.0600 
    210 H210       -2.2095  -25.7064  -49.6988 H         1 UNK         0.3000 
    211 H211       -4.3665  -26.0465  -49.9601 H         1 UNK         0.0600 
    212 H212       -3.6934  -28.0567  -52.1739 H         1 UNK         0.0600 
    213 H213       -5.1976  -27.9550  -51.2708 H         1 UNK         0.0600 
    214 H214       -3.7171  -28.4184  -50.4481 H         1 UNK         0.0600 
    215 H215       -3.2102  -23.8518  -51.1985 H         1 UNK         0.3000 
    216 H216       -4.7516  -23.3855  -53.7270 H         1 UNK         0.0600 
    217 H217       -2.9051  -21.8197  -54.2562 H         1 UNK         0.0600 
    218 H218       -2.2459  -23.4144  -53.9291 H         1 UNK         0.0600 
    219 H219       -2.1462  -22.1541  -52.7012 H         1 UNK         0.0600 
    220 H220       -4.7899  -22.6555  -50.4512 H         1 UNK         0.3000 
    221 H221       -5.2226  -19.8850  -50.3142 H         1 UNK         0.0600 
    222 H222       -6.3032  -22.1412  -48.5402 H         1 UNK         0.0600 
    223 H223       -4.7881  -21.2684  -48.3178 H         1 UNK         0.0600 
    224 H224       -6.3147  -20.4342  -48.1133 H         1 UNK         0.0600 
    225 H225       -7.4876  -22.4367  -51.2203 H         1 UNK         0.3000 
    226 H226       -9.9089  -20.9279  -51.1005 H         1 UNK         0.0600 
    227 H227       -9.8521  -23.4092  -51.1768 H         1 UNK         0.0600 
    228 H228      -10.7847  -22.7859  -52.5277 H         1 UNK         0.0600 
    229 H229       -9.1465  -23.3704  -52.7934 H         1 UNK         0.0600 
    230 H230       -7.3008  -20.9743  -53.4401 H         1 UNK         0.3000 
    231 H231       -8.8404  -19.3455  -55.4168 H         1 UNK         0.0600 
    232 H232       -7.7526  -21.4379  -56.2792 H         1 UNK         0.0600 
    233 H233       -6.1911  -20.8721  -55.6865 H         1 UNK         0.0600 
    234 H234       -7.0203  -19.9998  -56.9700 H         1 UNK         0.0600 
    235 H235       -7.0378  -18.8905  -52.7111 H         1 UNK         0.3000 
    236 H236       -5.6096  -17.4647  -51.8200 H         1 UNK         0.0600 
    237 H237       -5.9120  -15.0689  -52.3555 H         1 UNK         0.0600 
    238 H238       -6.7003  -15.4701  -53.8764 H         1 UNK         0.0600 
    239 H239       -7.4706  -15.8765  -52.3432 H         1 UNK         0.0600 
    240 H240       -4.4559  -19.1796  -53.7324 H         1 UNK         0.3000 
    241 H241       -2.6902  -19.6155  -54.9667 H         1 UNK         0.0600 
    242 H242       -4.8314  -17.6437  -56.2017 H         1 UNK         0.3800 
    243 H243       -3.9985  -17.1997  -57.6694 H         1 UNK         0.3800 
    244 H244       -1.4272  -17.1343  -53.7100 H         1 UNK         0.0800 
    245 H245       -0.5446  -18.2563  -54.6935 H         1 UNK         0.0800 
    246 H246        0.3364  -20.2816  -54.2091 H         1 UNK         0.0800 
    247 H247       -0.0155  -21.3371  -52.8770 H         1 UNK         0.0800 
@<TRIPOS>BOND
     1    1    2 1    
     2    1  127 1    
     3    1  128 1    
     4    1  129 1    
     5    2    3 2    
     6    2    4 am   BACKBONE|DICT|INTERRES
     7    4    5 1    
     8    4  130 1    
     9    5    6 1    
    10    5   65 1    
    11    5  131 1    
    12    6    7 1    
    13    6  132 1    
    14    6  133 1    
    15    7    8 1    
    16    8    9 1    
    17    8  134 1    
    18    8  135 1    
    19    9   10 ar   
    20    9   14 ar   
    21   10   11 ar   
    22   10  136 1    
    23   11   12 ar   
    24   11  126 1    
    25   12   13 ar   
    26   12  137 1    
    27   13   14 ar   
    28   13   15 1    
    29   14  138 1    
    30   15   16 1    
    31   15  139 1    
    32   15  140 1    
    33   16   17 1    
    34   17   18 1    
    35   17  141 1    
    36   17  142 1    
    37   18   19 1    
    38   18   67 1    
    39   18  143 1    
    40   19   20 am   BACKBONE|DICT|INTERRES
    41   19  144 1    
    42   20   21 2    
    43   20   22 1    
    44   22   23 1    
    45   22   24 1    
    46   22  145 1    
    47   23  146 1    
    48   23  147 1    
    49   23  148 1    
    50   24   25 am   BACKBONE|DICT|INTERRES
    51   24  149 1    
    52   25   26 2    
    53   25   27 1    
    54   27   28 1    
    55   27   29 1    
    56   27  150 1    
    57   28  151 1    
    58   28  152 1    
    59   28  153 1    
    60   29   30 am   BACKBONE|DICT|INTERRES
    61   29  154 1    
    62   30   31 2    
    63   30   32 1    
    64   32   33 1    
    65   32   34 1    
    66   32  155 1    
    67   33  156 1    
    68   33  157 1    
    69   33  158 1    
    70   34   35 am   BACKBONE|DICT|INTERRES
    71   34  159 1    
    72   35   36 2    
    73   35   37 1    
    74   37   38 1    
    75   37   39 1    
    76   37  160 1    
    77   38  161 1    
    78   38  162 1    
    79   38  163 1    
    80   39   40 am   BACKBONE|DICT|INTERRES
    81   39  164 1    
    82   40   41 2    
    83   40   42 1    
    84   42   43 1    
    85   42   44 1    
    86   42  165 1    
    87   43  166 1    
    88   43  167 1    
    89   43  168 1    
    90   44   45 am   BACKBONE|DICT|INTERRES
    91   44  169 1    
    92   45   46 2    
    93   45   47 1    
    94   47   48 1    
    95   47   49 1    
    96   47  170 1    
    97   48  171 1    
    98   48  172 1    
    99   48  173 1    
   100   49   50 am   BACKBONE|DICT|INTERRES
   101   49  174 1    
   102   50   51 2    
   103   50   52 1    
   104   52   53 1    
   105   52   54 1    
   106   52  175 1    
   107   53  176 1    
   108   53  177 1    
   109   53  178 1    
   110   54   55 am   BACKBONE|DICT|INTERRES
   111   54  179 1    
   112   55   56 2    
   113   55   57 1    
   114   57   58 1    
   115   57   59 1    
   116   57  180 1    
   117   58  181 1    
   118   58  182 1    
   119   58  183 1    
   120   59   60 am   BACKBONE|DICT|INTERRES
   121   59  184 1    
   122   60   61 2    
   123   60   62 1    
   124   62   63 1    
   125   62   64 1    
   126   62  185 1    
   127   63  186 1    
   128   63  187 1    
   129   63  188 1    
   130   64   65 am   BACKBONE|DICT|INTERRES
   131   64  189 1    
   132   65   66 2    
   133   67   68 2    
   134   67   69 am   BACKBONE|DICT|INTERRES
   135   69   70 1    
   136   69  190 1    
   137   70   71 1    
   138   70   72 1    
   139   70  191 1    
   140   71  192 1    
   141   71  193 1    
   142   71  194 1    
   143   72   73 2    
   144   72   74 am   BACKBONE|DICT|INTERRES
   145   74   75 1    
   146   74  195 1    
   147   75   76 1    
   148   75   77 1    
   149   75  196 1    
   150   76  197 1    
   151   76  198 1    
   152   76  199 1    
   153   77   78 2    
   154   77   79 am   BACKBONE|DICT|INTERRES
   155   79   80 1    
   156   79  200 1    
   157   80   81 1    
   158   80   82 1    
   159   80  201 1    
   160   81  202 1    
   161   81  203 1    
   162   81  204 1    
   163   82   83 2    
   164   82   84 am   BACKBONE|DICT|INTERRES
   165   84   85 1    
   166   84  205 1    
   167   85   86 1    
   168   85   87 1    
   169   85  206 1    
   170   86  207 1    
   171   86  208 1    
   172   86  209 1    
   173   87   88 2    
   174   87   89 am   BACKBONE|DICT|INTERRES
   175   89   90 1    
   176   89  210 1    
   177   90   91 1    
   178   90   92 1    
   179   90  211 1    
   180   91  212 1    
   181   91  213 1    
   182   91  214 1    
   183   92   93 2    
   184   92   94 am   BACKBONE|DICT|INTERRES
   185   94   95 1    
   186   94  215 1    
   187   95   96 1    
   188   95   97 1    
   189   95  216 1    
   190   96  217 1    
   191   96  218 1    
   192   96  219 1    
   193   97   98 2    
   194   97   99 am   BACKBONE|DICT|INTERRES
   195   99  100 1    
   196   99  220 1    
   197  100  101 1    
   198  100  102 1    
   199  100  221 1    
   200  101  222 1    
   201  101  223 1    
   202  101  224 1    
   203  102  103 2    
   204  102  104 am   BACKBONE|DICT|INTERRES
   205  104  105 1    
   206  104  225 1    
   207  105  106 1    
   208  105  107 1    
   209  105  226 1    
   210  106  227 1    
   211  106  228 1    
   212  106  229 1    
   213  107  108 2    
   214  107  109 am   BACKBONE|DICT|INTERRES
   215  109  110 1    
   216  109  230 1    
   217  110  111 1    
   218  110  112 1    
   219  110  231 1    
   220  111  232 1    
   221  111  233 1    
   222  111  234 1    
   223  112  113 2    
   224  112  114 am   BACKBONE|DICT|INTERRES
   225  114  115 1    
   226  114  235 1    
   227  115  116 1    
   228  115  117 1    
   229  115  236 1    
   230  116  237 1    
   231  116  238 1    
   232  116  239 1    
   233  117  118 2    
   234  117  119 am   BACKBONE|DICT|INTERRES
   235  119  120 1    
   236  119  240 1    
   237  120  121 1    
   238  120  124 1    
   239  120  241 1    
   240  121  122 am   BACKBONE|DICT|INTERRES
   241  121  123 2    
   242  122  242 1    
   243  122  243 1    
   244  124  125 1    
   245  124  244 1    
   246  124  245 1    
   247  125  126 1    
   248  126  246 1    
   249  126  247 1    
@<TRIPOS>SUBSTRUCTURE
     1 UNK         1 GROUP             0       ****    0 ROOT    
