@<TRIPOS>MOLECULE
3R540
247   249    1
SMALL
USER_CHARGES


@<TRIPOS>ATOM
      1 CA          4.8808   -9.7918  -48.2403 C.3       0 UNK        -0.1800 
      2 C           4.8763  -11.1445  -48.9390 C.2       0 UNK         0.5000 
      3 O           5.9433  -11.6974  -49.2086 O.2       0 UNK        -0.5000 
      4 N           3.6818  -11.6719  -49.2352 N.am      1 UNK        -0.5000 
      5 CA          3.4707  -13.0010  -49.8186 C.3       1 UNK         0.1400 
      6 C6          2.1453  -13.0547  -50.6259 C.3       23 UNK        -0.0398 
      7 S7          2.2352  -14.2352  -52.0163 S.3       23 UNK        -0.2404 
      8 C8          0.4895  -14.3487  -52.5194 C.3       23 UNK        -0.0205 
      9 C9         -0.3709  -15.0568  -51.4828 C.ar      23 UNK        -0.0193 
     10 C10        -1.3964  -14.3711  -50.8275 C.ar      23 UNK        -0.1150 
     11 C11        -2.2041  -15.0223  -49.8905 C.ar      23 UNK        -0.0193 
     12 C12        -1.9856  -16.3790  -49.6247 C.ar      23 UNK        -0.1150 
     13 C13        -0.9471  -17.0726  -50.2562 C.ar      23 UNK        -0.0193 
     14 C14        -0.1495  -16.4039  -51.1882 C.ar      23 UNK        -0.1150 
     15 C15        -0.6809  -18.5426  -49.9541 C.3       23 UNK        -0.0205 
     16 S16        -0.5063  -18.8799  -48.1662 S.3       23 UNK        -0.2404 
     17 C17        -2.0271  -19.8223  -47.8166 C.3       23 UNK        -0.0398 
     18 CA         -1.7101  -21.2498  -47.3053 C.3       11 UNK         0.1400 
     19 N          -1.3375  -21.2775  -45.8847 N.am      11 UNK        -0.5000 
     20 C          -0.9598  -22.3778  -45.2136 C.2       10 UNK         0.5000 
     21 O          -0.7948  -23.4790  -45.7359 O.2       10 UNK        -0.5000 
     22 CA         -0.8209  -22.2497  -43.6882 C.3       10 UNK         0.1400 
     23 CB          0.5432  -21.6613  -43.2965 C.3       10 UNK        -0.1800 
     24 N          -1.9076  -21.4492  -43.1227 N.am      10 UNK        -0.5000 
     25 C          -3.1793  -21.8702  -43.0388 C.2       9 UNK         0.5000 
     26 O          -3.5461  -22.9946  -43.3780 O.2       9 UNK        -0.5000 
     27 CA         -4.2241  -20.8595  -42.5276 C.3       9 UNK         0.1400 
     28 CB         -4.3218  -20.9164  -40.9961 C.3       9 UNK        -0.1800 
     29 N          -3.9354  -19.4864  -42.9405 N.am      9 UNK        -0.5000 
     30 C          -3.9511  -19.0497  -44.2083 C.2       8 UNK         0.5000 
     31 O          -4.2900  -19.7465  -45.1639 O.2       8 UNK        -0.5000 
     32 CA         -3.4239  -17.6194  -44.4491 C.3       8 UNK         0.1400 
     33 CB         -4.5649  -16.5951  -44.3895 C.3       8 UNK        -0.1800 
     34 N          -2.3716  -17.2398  -43.4985 N.am      8 UNK        -0.5000 
     35 C          -1.1828  -17.8513  -43.4247 C.2       7 UNK         0.5000 
     36 O          -0.8354  -18.7511  -44.1942 O.2       7 UNK        -0.5000 
     37 CA         -0.2632  -17.4486  -42.2661 C.3       7 UNK         0.1400 
     38 CB         -0.6812  -18.1755  -40.9741 C.3       7 UNK        -0.1800 
     39 N           1.1067  -17.8085  -42.6142 N.am      7 UNK        -0.5000 
     40 C           2.2141  -17.2933  -42.0694 C.2       6 UNK         0.5000 
     41 O           2.2022  -16.4358  -41.1850 O.2       6 UNK        -0.5000 
     42 CA          3.5666  -17.8187  -42.5822 C.3       6 UNK         0.1400 
     43 CB          3.4706  -19.1458  -43.3630 C.3       6 UNK        -0.1800 
     44 N           4.1611  -16.8012  -43.4411 N.am      6 UNK        -0.5000 
     45 C           5.2128  -16.0338  -43.1310 C.2       5 UNK         0.5000 
     46 O           5.8598  -16.1367  -42.0877 O.2       5 UNK        -0.5000 
     47 CA          5.6019  -14.9564  -44.1614 C.3       5 UNK         0.1400 
     48 CB          6.3269  -15.5795  -45.3646 C.3       5 UNK        -0.1800 
     49 N           4.4465  -14.1947  -44.6343 N.am      5 UNK        -0.5000 
     50 C           3.7438  -13.3283  -43.8896 C.2       4 UNK         0.5000 
     51 O           4.0315  -13.0274  -42.7308 O.2       4 UNK        -0.5000 
     52 CA          2.5031  -12.7013  -44.5485 C.3       4 UNK         0.1400 
     53 CB          2.8819  -11.4486  -45.3546 C.3       4 UNK        -0.1800 
     54 N           1.8330  -13.6686  -45.4184 N.am      4 UNK        -0.5000 
     55 C           0.9397  -14.5657  -44.9792 C.2       3 UNK         0.5000 
     56 O           0.5005  -14.5760  -43.8303 O.2       3 UNK        -0.5000 
     57 CA          0.4418  -15.6330  -45.9722 C.3       3 UNK         0.1400 
     58 CB         -0.9645  -15.2830  -46.4696 C.3       3 UNK        -0.1800 
     59 N           1.3326  -15.8516  -47.1134 N.am      3 UNK        -0.5000 
     60 C           2.5069  -16.4906  -47.0228 C.2       2 UNK         0.5000 
     61 O           2.9404  -16.9619  -45.9731 O.2       2 UNK        -0.5000 
     62 CA          3.3815  -16.5545  -48.2904 C.3       2 UNK         0.1400 
     63 CB          3.0361  -17.7904  -49.1310 C.3       2 UNK        -0.1800 
     64 N           3.3120  -15.3599  -49.1374 N.am      2 UNK        -0.5000 
     65 C           3.5584  -14.1059  -48.7371 C.2       1 UNK         0.5000 
     66 O           3.8218  -13.8194  -47.5659 O.2       1 UNK        -0.5000 
     67 C          -2.8789  -22.2065  -47.6088 C.2       11 UNK         0.5000 
     68 O          -2.7842  -22.9823  -48.5615 O.2       11 UNK        -0.5000 
     69 N          -3.9247  -22.1637  -46.7704 N.am      12 UNK        -0.5000 
     70 CA         -5.0944  -23.0348  -46.8595 C.3       12 UNK         0.1400 
     71 CB         -6.1609  -22.5813  -45.8518 C.3       12 UNK        -0.1800 
     72 C          -4.7557  -24.5236  -46.6697 C.2       12 UNK         0.5000 
     73 O          -5.2348  -25.3545  -47.4415 O.2       12 UNK        -0.5000 
     74 N          -3.9299  -24.8280  -45.6593 N.am      13 UNK        -0.5000 
     75 CA         -3.4887  -26.1823  -45.3284 C.3       13 UNK         0.1400 
     76 CB         -2.8072  -26.1761  -43.9514 C.3       13 UNK        -0.1800 
     77 C          -2.5572  -26.7920  -46.3908 C.2       13 UNK         0.5000 
     78 O          -2.7395  -27.9524  -46.7618 O.2       13 UNK        -0.5000 
     79 N          -1.5741  -26.0089  -46.8541 N.am      14 UNK        -0.5000 
     80 CA         -0.5704  -26.4447  -47.8261 C.3       14 UNK         0.1400 
     81 CB          0.6605  -25.5306  -47.7169 C.3       14 UNK        -0.1800 
     82 C          -1.0828  -26.4560  -49.2770 C.2       14 UNK         0.5000 
     83 O          -0.5036  -27.1606  -50.1045 O.2       14 UNK        -0.5000 
     84 N          -2.1177  -25.6509  -49.5639 N.am      15 UNK        -0.5000 
     85 CA         -2.5983  -25.2757  -50.8983 C.3       15 UNK         0.1400 
     86 CB         -3.2017  -26.4794  -51.6509 C.3       15 UNK        -0.1800 
     87 C          -1.4979  -24.5339  -51.6841 C.2       15 UNK         0.5000 
     88 O          -1.1586  -24.9098  -52.8081 O.2       15 UNK        -0.5000 
     89 N          -0.9218  -23.5170  -51.0311 N.am      16 UNK        -0.5000 
     90 CA          0.1175  -22.6585  -51.5901 C.3       16 UNK         0.1400 
     91 CB          0.9069  -22.0143  -50.4410 C.3       16 UNK        -0.1800 
     92 C          -0.5031  -21.5787  -52.4897 C.2       16 UNK         0.5000 
     93 O          -1.5918  -21.0882  -52.1876 O.2       16 UNK        -0.5000 
     94 N           0.2139  -21.2173  -53.5623 N.am      17 UNK        -0.5000 
     95 CA         -0.0901  -20.1939  -54.5761 C.3       17 UNK         0.1400 
     96 CB         -0.2176  -18.7965  -53.9398 C.3       17 UNK        -0.1800 
     97 C          -1.2946  -20.5005  -55.4920 C.2       17 UNK         0.5000 
     98 O          -1.2309  -20.1992  -56.6848 O.2       17 UNK        -0.5000 
     99 N          -2.3516  -21.1022  -54.9441 N.am      18 UNK        -0.5000 
    100 CA        -3.5689  -21.5249  -55.6263 C.3       18 UNK         0.1400 
    101 CB        -4.4925  -20.3094  -55.8495 C.3       18 UNK        -0.1800 
    102 C         -4.2463  -22.6212  -54.7868 C.2       18 UNK         0.5000 
    103 O         -3.6831  -23.0686  -53.7848 O.2       18 UNK        -0.5000 
    104 N         -5.4550  -23.0317  -55.1926 N.am      19 UNK        -0.5000 
    105 CA        -6.3277  -23.9357  -54.4415 C.3       19 UNK         0.1400 
    106 CB        -7.5003  -24.3628  -55.3406 C.3       19 UNK        -0.1800 
    107 C         -6.8105  -23.2513  -53.1475 C.2       19 UNK         0.5000 
    108 O         -7.7882  -22.5029  -53.1766 O.2       19 UNK        -0.5000 
    109 N         -6.0414  -23.4419  -52.0680 N.am      20 UNK        -0.5000 
    110 CA        -6.1271  -22.8221  -50.7378 C.3       20 UNK         0.1400 
    111 CB        -7.4966  -23.0762  -50.0774 C.3       20 UNK        -0.1800 
    112 C         -5.7549  -21.3245  -50.6932 C.2       20 UNK         0.5000 
    113 O         -5.2965  -20.8587  -49.6488 O.2       20 UNK        -0.5000 
    114 N         -5.9492  -20.5985  -51.8040 N.am      21 UNK        -0.5000 
    115 CA        -5.7059  -19.1648  -51.9805 C.3       21 UNK         0.1400 
    116 CB        -4.1883  -18.8705  -51.9916 C.3       21 UNK        -0.1800 
    117 C         -6.5042  -18.3439  -50.9474 C.2       21 UNK         0.5000 
    118 O         -7.7355  -18.3471  -51.0027 O.2       21 UNK        -0.5000 
    119 N         -5.8025  -17.6859  -50.0194 N.am      22 UNK        -0.5000 
    120 CA        -6.3909  -16.9594  -48.8849 C.3       22 UNK         0.1400 
    121 C         -6.8580  -17.8718  -47.7121 C.2       22 UNK         0.5000 
    122 N         -6.5531  -19.1634  -47.6961 N.am      22 UNK        -0.7600 
    123 O         -7.5174  -17.3936  -46.7935 O.2       22 UNK        -0.5000 
    124 C124       -5.4477  -15.8481  -48.3628 C.3       23 UNK        -0.0398 
    125 S125       -4.9614  -14.6595  -49.6625 S.3       23 UNK        -0.2404 
    126 C126       -3.2723  -14.2357  -49.1399 C.3       23 UNK        -0.0205 
    127 H127        5.4046   -9.0553  -48.8498 H         1 UNK         0.0600 
    128 H128        5.3921   -9.8683  -47.2806 H         1 UNK         0.0600 
    129 H129        3.8700   -9.4261  -48.0572 H         1 UNK         0.0600 
    130 H130        2.8463  -11.1759  -48.9609 H         1 UNK         0.3000 
    131 H131        4.2952  -13.1822  -50.5118 H         1 UNK         0.0600 
    132 H132        1.2939  -13.2844  -49.9826 H         1 UNK         0.0800 
    133 H133        1.9318  -12.0789  -51.0650 H         1 UNK         0.0800 
    134 H134        0.4305  -14.9000  -53.4589 H         1 UNK         0.0800 
    135 H135        0.1095  -13.3474  -52.7281 H         1 UNK         0.0800 
    136 H136       -1.5625  -13.3250  -51.0432 H         1 UNK         0.1150 
    137 H137       -2.6024  -16.8932  -48.9039 H         1 UNK         0.1150 
    138 H138        0.6515  -16.9282  -51.6885 H         1 UNK         0.1150 
    139 H139       -1.4728  -19.1414  -50.3989 H         1 UNK         0.0800 
    140 H140        0.2338  -18.8718  -50.4480 H         1 UNK         0.0800 
    141 H141       -2.6466  -19.8551  -48.7145 H         1 UNK         0.0800 
    142 H142       -2.6161  -19.2694  -47.0873 H         1 UNK         0.0800 
    143 H143       -0.8536  -21.6366  -47.8593 H         1 UNK         0.0600 
    144 H144       -1.3994  -20.4012  -45.3791 H         1 UNK         0.3000 
    145 H145       -0.8836  -23.2526  -43.2601 H         1 UNK         0.0600 
    146 H146        0.6187  -21.5131  -42.2192 H         1 UNK         0.0600 
    147 H147        1.3491  -22.3353  -43.5892 H         1 UNK         0.0600 
    148 H148        0.7342  -20.7064  -43.7831 H         1 UNK         0.0600 
    149 H149       -1.6919  -20.4907  -42.8942 H         1 UNK         0.3000 
    150 H150       -5.1931  -21.1417  -42.9442 H         1 UNK         0.0600 
    151 H151       -4.5563  -21.9267  -40.6578 H         1 UNK         0.0600 
    152 H152       -5.1101  -20.2604  -40.6264 H         1 UNK         0.0600 
    153 H153       -3.3862  -20.6196  -40.5203 H         1 UNK         0.0600 
    154 H154       -3.6555  -18.8434  -42.2154 H         1 UNK         0.3000 
    155 H155       -2.9965  -17.5894  -45.4530 H         1 UNK         0.0600 
    156 H156       -5.0142  -16.5479  -43.3969 H         1 UNK         0.0600 
    157 H157       -4.2123  -15.5966  -44.6486 H         1 UNK         0.0600 
    158 H158       -5.3555  -16.8520  -45.0952 H         1 UNK         0.0600 
    159 H159       -2.5953  -16.5064  -42.8407 H         1 UNK         0.3000 
    160 H160       -0.3343  -16.3698  -42.1193 H         1 UNK         0.0600 
    161 H161       -0.6071  -19.2586  -41.0794 H         1 UNK         0.0600 
    162 H162       -1.7106  -17.9393  -40.7024 H         1 UNK         0.0600 
    163 H163       -0.0534  -17.8803  -40.1333 H         1 UNK         0.0600 
    164 H164        1.1793  -18.4709  -43.3761 H         1 UNK         0.3000 
    165 H165        4.1919  -17.9964  -41.7050 H         1 UNK         0.0600 
    166 H166        4.4618  -19.4965  -43.6506 H         1 UNK         0.0600 
    167 H167        3.0198  -19.9280  -42.7512 H         1 UNK         0.0600 
    168 H168        2.8817  -19.0512  -44.2759 H         1 UNK         0.0600 
    169 H169        3.6997  -16.6648  -44.3384 H         1 UNK         0.3000 
    170 H170        6.2897  -14.2604  -43.6765 H         1 UNK         0.0600 
    171 H171        7.2243  -16.1107  -45.0454 H         1 UNK         0.0600 
    172 H172        5.6943  -16.2932  -45.8923 H         1 UNK         0.0600 
    173 H173        6.6361  -14.8154  -46.0782 H         1 UNK         0.0600 
    174 H174        4.1709  -14.3317  -45.6001 H         1 UNK         0.3000 
    175 H175        1.8195  -12.3900  -43.7556 H         1 UNK         0.0600 
    176 H176        2.0115  -11.0172  -45.8489 H         1 UNK         0.0600 
    177 H177        3.6291  -11.6653  -46.1170 H         1 UNK         0.0600 
    178 H178        3.2996  -10.6812  -44.7020 H         1 UNK         0.0600 
    179 H179        2.1943  -13.7488  -46.3615 H         1 UNK         0.3000 
    180 H180        0.3758  -16.5719  -45.4222 H         1 UNK         0.0600 
    181 H181       -0.9455  -14.4332  -47.1521 H         1 UNK         0.0600 
    182 H182       -1.6282  -15.0297  -45.6417 H         1 UNK         0.0600 
    183 H183       -1.4107  -16.1327  -46.9814 H         1 UNK         0.0600 
    184 H184        1.0328  -15.5004  -48.0106 H         1 UNK         0.3000 
    185 H185        4.4167  -16.6537  -47.9592 H         1 UNK         0.0600 
    186 H186        3.0319  -18.6955  -48.5218 H         1 UNK         0.0600 
    187 H187        2.0518  -17.6942  -49.5846 H         1 UNK         0.0600 
    188 H188        3.7606  -17.9393  -49.9317 H         1 UNK         0.0600 
    189 H189        3.0796  -15.5122  -50.1099 H         1 UNK         0.3000 
    190 H190       -3.9440  -21.4483  -46.0496 H         1 UNK         0.3000 
    191 H191       -5.5092  -22.9164  -47.8584 H         1 UNK         0.0600 
    192 H192       -5.8153  -22.6832  -44.8235 H         1 UNK         0.0600 
    193 H193       -7.0691  -23.1767  -45.9528 H         1 UNK         0.0600 
    194 H194       -6.4359  -21.5393  -46.0086 H         1 UNK         0.0600 
    195 H195       -3.6202  -24.0861  -45.0391 H         1 UNK         0.3000 
    196 H196       -4.3752  -26.8166  -45.2618 H         1 UNK         0.0600 
    197 H197       -2.4729  -27.1767  -43.6748 H         1 UNK         0.0600 
    198 H198       -3.4926  -25.8362  -43.1748 H         1 UNK         0.0600 
    199 H199       -1.9353  -25.5212  -43.9368 H         1 UNK         0.0600 
    200 H200       -1.4608  -25.0711  -46.4746 H         1 UNK         0.3000 
    201 H201       -0.2590  -27.4612  -47.5761 H         1 UNK         0.0600 
    202 H202        1.0674  -25.5341  -46.7055 H         1 UNK         0.0600 
    203 H203        0.4181  -24.4994  -47.9774 H         1 UNK         0.0600 
    204 H204        1.4544  -25.8598  -48.3885 H         1 UNK         0.0600 
    205 H205       -2.4847  -25.0815  -48.8101 H         1 UNK         0.3000 
    206 H206       -3.4003  -24.5542  -50.7441 H         1 UNK         0.0600 
    207 H207       -3.6490  -26.1600  -52.5930 H         1 UNK         0.0600 
    208 H208       -2.4515  -27.2338  -51.8879 H         1 UNK         0.0600 
    209 H209       -3.9853  -26.9573  -51.0630 H         1 UNK         0.0600 
    210 H210       -1.3161  -23.2410  -50.1401 H         1 UNK         0.3000 
    211 H211        0.8036  -23.2698  -52.1804 H         1 UNK         0.0600 
    212 H212        0.2758  -21.3613  -49.8404 H         1 UNK         0.0600 
    213 H213        1.7299  -21.4092  -50.8231 H         1 UNK         0.0600 
    214 H214        1.3355  -22.7689  -49.7812 H         1 UNK         0.0600 
    215 H215        1.0817  -21.7093  -53.7238 H         1 UNK         0.3000 
    216 H216        0.7846  -20.1688  -55.2279 H         1 UNK         0.0600 
    217 H217       -0.3474  -18.0298  -54.7045 H         1 UNK         0.0600 
    218 H218        0.6803  -18.5440  -53.3770 H         1 UNK         0.0600 
    219 H219       -1.0709  -18.7269  -53.2646 H         1 UNK         0.0600 
    220 H220       -2.3148  -21.3390  -53.9540 H         1 UNK         0.3000 
    221 H221       -3.3024  -21.9637  -56.5897 H         1 UNK         0.0600 
    222 H222       -4.8397  -19.8920  -54.9047 H         1 UNK         0.0600 
    223 H223       -3.9820  -19.5157  -56.3950 H         1 UNK         0.0600 
    224 H224       -5.3725  -20.5776  -56.4344 H         1 UNK         0.0600 
    225 H225       -5.8579  -22.6131  -56.0181 H         1 UNK         0.3000 
    226 H226       -5.7628  -24.8321  -54.1760 H         1 UNK         0.0600 
    227 H227       -7.1460  -24.9026  -56.2190 H         1 UNK         0.0600 
    228 H228       -8.1799  -25.0261  -54.8043 H         1 UNK         0.0600 
    229 H229       -8.0814  -23.5067  -55.6859 H         1 UNK         0.0600 
    230 H230       -5.1932  -23.9694  -52.2247 H         1 UNK         0.3000 
    231 H231       -5.3755  -23.3342  -50.1365 H         1 UNK         0.0600 
    232 H232       -7.5204  -22.6854  -49.0598 H         1 UNK         0.0600 
    233 H233       -7.7143  -24.1427  -50.0207 H         1 UNK         0.0600 
    234 H234       -8.3096  -22.5938  -50.6197 H         1 UNK         0.0600 
    235 H235       -6.4299  -21.0617  -52.5653 H         1 UNK         0.3000 
    236 H236       -6.1038  -18.8960  -52.9598 H         1 UNK         0.0600 
    237 H237       -3.6927  -19.4141  -52.7952 H         1 UNK         0.0600 
    238 H238       -3.9882  -17.8103  -52.1527 H         1 UNK         0.0600 
    239 H239       -3.7067  -19.1645  -51.0596 H         1 UNK         0.0600 
    240 H240       -4.7961  -17.7415  -50.0444 H         1 UNK         0.3000 
    241 H241       -7.2943  -16.4642  -49.2462 H         1 UNK         0.0600 
    242 H242       -6.0283  -19.6028  -48.4479 H         1 UNK         0.3800 
    243 H243       -6.8484  -19.7176  -46.9109 H         1 UNK         0.3800 
    244 H244       -5.9330  -15.2791  -47.5678 H         1 UNK         0.0800 
    245 H245       -4.5606  -16.2945  -47.9127 H         1 UNK         0.0800 
    246 H246       -3.1298  -13.1659  -49.2995 H         1 UNK         0.0800 
    247 H247       -3.1646  -14.3870  -48.0661 H         1 UNK         0.0800 
@<TRIPOS>BOND
     1    1    2 1    
     2    1  127 1    
     3    1  128 1    
     4    1  129 1    
     5    2    3 2    
     6    2    4 am   BACKBONE|DICT|INTERRES
     7    4    5 1    
     8    4  130 1    
     9    5    6 1    
    10    5   65 1    
    11    5  131 1    
    12    6    7 1    
    13    6  132 1    
    14    6  133 1    
    15    7    8 1    
    16    8    9 1    
    17    8  134 1    
    18    8  135 1    
    19    9   10 ar   
    20    9   14 ar   
    21   10   11 ar   
    22   10  136 1    
    23   11   12 ar   
    24   11  126 1    
    25   12   13 ar   
    26   12  137 1    
    27   13   14 ar   
    28   13   15 1    
    29   14  138 1    
    30   15   16 1    
    31   15  139 1    
    32   15  140 1    
    33   16   17 1    
    34   17   18 1    
    35   17  141 1    
    36   17  142 1    
    37   18   19 1    
    38   18   67 1    
    39   18  143 1    
    40   19   20 am   BACKBONE|DICT|INTERRES
    41   19  144 1    
    42   20   21 2    
    43   20   22 1    
    44   22   23 1    
    45   22   24 1    
    46   22  145 1    
    47   23  146 1    
    48   23  147 1    
    49   23  148 1    
    50   24   25 am   BACKBONE|DICT|INTERRES
    51   24  149 1    
    52   25   26 2    
    53   25   27 1    
    54   27   28 1    
    55   27   29 1    
    56   27  150 1    
    57   28  151 1    
    58   28  152 1    
    59   28  153 1    
    60   29   30 am   BACKBONE|DICT|INTERRES
    61   29  154 1    
    62   30   31 2    
    63   30   32 1    
    64   32   33 1    
    65   32   34 1    
    66   32  155 1    
    67   33  156 1    
    68   33  157 1    
    69   33  158 1    
    70   34   35 am   BACKBONE|DICT|INTERRES
    71   34  159 1    
    72   35   36 2    
    73   35   37 1    
    74   37   38 1    
    75   37   39 1    
    76   37  160 1    
    77   38  161 1    
    78   38  162 1    
    79   38  163 1    
    80   39   40 am   BACKBONE|DICT|INTERRES
    81   39  164 1    
    82   40   41 2    
    83   40   42 1    
    84   42   43 1    
    85   42   44 1    
    86   42  165 1    
    87   43  166 1    
    88   43  167 1    
    89   43  168 1    
    90   44   45 am   BACKBONE|DICT|INTERRES
    91   44  169 1    
    92   45   46 2    
    93   45   47 1    
    94   47   48 1    
    95   47   49 1    
    96   47  170 1    
    97   48  171 1    
    98   48  172 1    
    99   48  173 1    
   100   49   50 am   BACKBONE|DICT|INTERRES
   101   49  174 1    
   102   50   51 2    
   103   50   52 1    
   104   52   53 1    
   105   52   54 1    
   106   52  175 1    
   107   53  176 1    
   108   53  177 1    
   109   53  178 1    
   110   54   55 am   BACKBONE|DICT|INTERRES
   111   54  179 1    
   112   55   56 2    
   113   55   57 1    
   114   57   58 1    
   115   57   59 1    
   116   57  180 1    
   117   58  181 1    
   118   58  182 1    
   119   58  183 1    
   120   59   60 am   BACKBONE|DICT|INTERRES
   121   59  184 1    
   122   60   61 2    
   123   60   62 1    
   124   62   63 1    
   125   62   64 1    
   126   62  185 1    
   127   63  186 1    
   128   63  187 1    
   129   63  188 1    
   130   64   65 am   BACKBONE|DICT|INTERRES
   131   64  189 1    
   132   65   66 2    
   133   67   68 2    
   134   67   69 am   BACKBONE|DICT|INTERRES
   135   69   70 1    
   136   69  190 1    
   137   70   71 1    
   138   70   72 1    
   139   70  191 1    
   140   71  192 1    
   141   71  193 1    
   142   71  194 1    
   143   72   73 2    
   144   72   74 am   BACKBONE|DICT|INTERRES
   145   74   75 1    
   146   74  195 1    
   147   75   76 1    
   148   75   77 1    
   149   75  196 1    
   150   76  197 1    
   151   76  198 1    
   152   76  199 1    
   153   77   78 2    
   154   77   79 am   BACKBONE|DICT|INTERRES
   155   79   80 1    
   156   79  200 1    
   157   80   81 1    
   158   80   82 1    
   159   80  201 1    
   160   81  202 1    
   161   81  203 1    
   162   81  204 1    
   163   82   83 2    
   164   82   84 am   BACKBONE|DICT|INTERRES
   165   84   85 1    
   166   84  205 1    
   167   85   86 1    
   168   85   87 1    
   169   85  206 1    
   170   86  207 1    
   171   86  208 1    
   172   86  209 1    
   173   87   88 2    
   174   87   89 am   BACKBONE|DICT|INTERRES
   175   89   90 1    
   176   89  210 1    
   177   90   91 1    
   178   90   92 1    
   179   90  211 1    
   180   91  212 1    
   181   91  213 1    
   182   91  214 1    
   183   92   93 2    
   184   92   94 am   BACKBONE|DICT|INTERRES
   185   94   95 1    
   186   94  215 1    
   187   95   96 1    
   188   95   97 1    
   189   95  216 1    
   190   96  217 1    
   191   96  218 1    
   192   96  219 1    
   193   97   98 2    
   194   97   99 am   BACKBONE|DICT|INTERRES
   195   99  100 1    
   196   99  220 1    
   197  100  101 1    
   198  100  102 1    
   199  100  221 1    
   200  101  222 1    
   201  101  223 1    
   202  101  224 1    
   203  102  103 2    
   204  102  104 am   BACKBONE|DICT|INTERRES
   205  104  105 1    
   206  104  225 1    
   207  105  106 1    
   208  105  107 1    
   209  105  226 1    
   210  106  227 1    
   211  106  228 1    
   212  106  229 1    
   213  107  108 2    
   214  107  109 am   BACKBONE|DICT|INTERRES
   215  109  110 1    
   216  109  230 1    
   217  110  111 1    
   218  110  112 1    
   219  110  231 1    
   220  111  232 1    
   221  111  233 1    
   222  111  234 1    
   223  112  113 2    
   224  112  114 am   BACKBONE|DICT|INTERRES
   225  114  115 1    
   226  114  235 1    
   227  115  116 1    
   228  115  117 1    
   229  115  236 1    
   230  116  237 1    
   231  116  238 1    
   232  116  239 1    
   233  117  118 2    
   234  117  119 am   BACKBONE|DICT|INTERRES
   235  119  120 1    
   236  119  240 1    
   237  120  121 1    
   238  120  124 1    
   239  120  241 1    
   240  121  122 am   BACKBONE|DICT|INTERRES
   241  121  123 2    
   242  122  242 1    
   243  122  243 1    
   244  124  125 1    
   245  124  244 1    
   246  124  245 1    
   247  125  126 1    
   248  126  246 1    
   249  126  247 1    
@<TRIPOS>SUBSTRUCTURE
     1 UNK         1 GROUP             0       ****    0 ROOT    
