@<TRIPOS>MOLECULE
3R540
247   249    1
SMALL
USER_CHARGES


@<TRIPOS>ATOM
      1 CA         -2.2993   -9.7457  -46.3540 C.3       0 UNK        -0.1800 
      2 C          -1.6644  -10.9536  -47.0283 C.2       0 UNK         0.5000 
      3 O          -1.3362  -11.9270  -46.3500 O.2       0 UNK        -0.5000 
      4 N          -1.4891  -10.8877  -48.3564 N.am      1 UNK        -0.5000 
      5 CA         -0.8996  -11.9280  -49.2142 C.3       1 UNK         0.1400 
      6 C6         -1.7795  -13.2106  -49.3122 C.3       23 UNK        -0.0398 
      7 S7         -3.5352  -12.9172  -49.7204 S.3       23 UNK        -0.2404 
      8 C8         -3.9755  -14.4363  -50.6345 C.3       23 UNK        -0.0205 
      9 C9         -3.5219  -15.7084  -49.9270 C.ar      23 UNK        -0.0193 
     10 C10        -2.4618  -16.4567  -50.4489 C.ar      23 UNK        -0.1150 
     11 C11        -2.0176  -17.6129  -49.8015 C.ar      23 UNK        -0.0193 
     12 C12        -2.6429  -18.0138  -48.6183 C.ar      23 UNK        -0.1150 
     13 C13        -3.6963  -17.2721  -48.0774 C.ar      23 UNK        -0.0193 
     14 C14        -4.1407  -16.1255  -48.7439 C.ar      23 UNK        -0.1150 
     15 C15        -4.3138  -17.6864  -46.7494 C.3       23 UNK        -0.0205 
     16 S16        -5.2817  -19.2180  -46.9057 S.3       23 UNK        -0.2404 
     17 C17        -4.5221  -20.2945  -45.6416 C.3       23 UNK        -0.0398 
     18 CA         -3.3401  -21.1229  -46.2152 C.3       11 UNK         0.1400 
     19 N          -2.0454  -20.5094  -45.9038 N.am      11 UNK        -0.5000 
     20 C          -0.8493  -20.8593  -46.3889 C.2       10 UNK         0.5000 
     21 O          -0.6909  -21.8137  -47.1500 O.2       10 UNK        -0.5000 
     22 CA          0.3751  -20.0209  -45.9588 C.3       10 UNK         0.1400 
     23 CB          0.5643  -18.8375  -46.9237 C.3       10 UNK        -0.1800 
     24 N           0.3948  -19.5730  -44.5551 N.am      10 UNK        -0.5000 
     25 C          -0.4719  -18.7801  -43.9022 C.2       9 UNK         0.5000 
     26 O          -1.4682  -18.2918  -44.4327 O.2       9 UNK        -0.5000 
     27 CA         -0.2048  -18.4968  -42.4078 C.3       9 UNK         0.1400 
     28 CB         -1.5021  -18.2242  -41.6190 C.3       9 UNK        -0.1800 
     29 N           0.5957  -19.5249  -41.7398 N.am      9 UNK        -0.5000 
     30 C           0.3275  -20.8349  -41.6185 C.2       8 UNK         0.5000 
     31 O          -0.7098  -21.3631  -42.0230 O.2       8 UNK        -0.5000 
     32 CA          1.4313  -21.6970  -40.9604 C.3       8 UNK         0.1400 
     33 CB          1.4478  -23.1428  -41.4958 C.3       8 UNK        -0.1800 
     34 N           2.7770  -21.1067  -41.0455 N.am      8 UNK        -0.5000 
     35 C           3.4354  -20.7570  -42.1605 C.2       7 UNK         0.5000 
     36 O           2.9906  -20.9055  -43.3029 O.2       7 UNK        -0.5000 
     37 CA          4.8131  -20.1011  -41.9526 C.3       7 UNK         0.1400 
     38 CB          5.9300  -21.1500  -42.0615 C.3       7 UNK        -0.1800 
     39 N           5.0557  -19.0409  -42.9301 N.am      7 UNK        -0.5000 
     40 C           4.3600  -17.8995  -43.0163 C.2       6 UNK         0.5000 
     41 O           3.4757  -17.5680  -42.2216 O.2       6 UNK        -0.5000 
     42 CA          4.6736  -17.0292  -44.2470 C.3       6 UNK         0.1400 
     43 CB          3.8262  -17.5006  -45.4343 C.3       6 UNK        -0.1800 
     44 N           4.4241  -15.6022  -44.0497 N.am      6 UNK        -0.5000 
     45 C           5.0930  -14.8028  -43.2102 C.2       5 UNK         0.5000 
     46 O           5.9877  -15.1975  -42.4607 O.2       5 UNK        -0.5000 
     47 CA          4.7375  -13.3052  -43.2295 C.3       5 UNK         0.1400 
     48 CB          5.6031  -12.5701  -44.2656 C.3       5 UNK        -0.1800 
     49 N           3.3264  -13.0582  -43.5397 N.am      5 UNK        -0.5000 
     50 C           2.4676  -12.4235  -42.7287 C.2       4 UNK         0.5000 
     51 O           2.7694  -12.0053  -41.6097 O.2       4 UNK        -0.5000 
     52 CA          1.0294  -12.1898  -43.2411 C.3       4 UNK         0.1400 
     53 CB          0.8773  -10.7577  -43.7764 C.3       4 UNK        -0.1800 
     54 N           0.5976  -13.1239  -44.2796 N.am      4 UNK        -0.5000 
     55 C           0.4244  -14.4394  -44.1059 C.2       3 UNK         0.5000 
     56 O           0.5599  -15.0104  -43.0245 O.2       3 UNK        -0.5000 
     57 CA          0.0648  -15.2631  -45.3553 C.3       3 UNK         0.1400 
     58 CB         -1.4607  -15.3687  -45.5018 C.3       3 UNK        -0.1800 
     59 N           0.6139  -14.7641  -46.6185 N.am      3 UNK        -0.5000 
     60 C           1.8908  -14.4617  -46.9005 C.2       2 UNK         0.5000 
     61 O           2.8012  -14.4864  -46.0731 O.2       2 UNK        -0.5000 
     62 CA          2.1951  -14.0525  -48.3564 C.3       2 UNK         0.1400 
     63 CB          2.6773  -15.2731  -49.1552 C.3       2 UNK        -0.1800 
     64 N           1.0145  -13.4856  -49.0137 N.am      2 UNK        -0.5000 
     65 C           0.5614  -12.2431  -48.7900 C.2       1 UNK         0.5000 
     66 O           1.2444  -11.3736  -48.2415 O.2       1 UNK        -0.5000 
     67 C          -3.4295  -22.6103  -45.8155 C.2       11 UNK         0.5000 
     68 O          -4.2331  -23.3332  -46.4040 O.2       11 UNK        -0.5000 
     69 N          -2.5894  -23.0593  -44.8729 N.am      12 UNK        -0.5000 
     70 CA         -2.4260  -24.4718  -44.5263 C.3       12 UNK         0.1400 
     71 CB         -1.5736  -24.5799  -43.2549 C.3       12 UNK        -0.1800 
     72 C          -1.7946  -25.2987  -45.6657 C.2       12 UNK         0.5000 
     73 O          -2.1504  -26.4652  -45.8337 O.2       12 UNK        -0.5000 
     74 N          -0.8839  -24.6806  -46.4311 N.am      13 UNK        -0.5000 
     75 CA         -0.2150  -25.2871  -47.5822 C.3       13 UNK         0.1400 
     76 CB          1.2061  -24.7148  -47.7032 C.3       13 UNK        -0.1800 
     77 C          -1.0066  -25.0510  -48.8790 C.2       13 UNK         0.5000 
     78 O          -1.0957  -25.9551  -49.7094 O.2       13 UNK        -0.5000 
     79 N          -1.5868  -23.8504  -49.0203 N.am      14 UNK        -0.5000 
     80 CA         -2.3801  -23.4325  -50.1805 C.3       14 UNK         0.1400 
     81 CB         -2.3573  -21.8994  -50.2693 C.3       14 UNK        -0.1800 
     82 C          -3.8277  -23.9701  -50.1759 C.2       14 UNK         0.5000 
     83 O          -4.5805  -23.6644  -51.1015 O.2       14 UNK        -0.5000 
     84 N          -4.2011  -24.7370  -49.1401 N.am      15 UNK        -0.5000 
     85 CA         -5.4948  -25.3972  -48.9340 C.3       15 UNK         0.1400 
     86 CB         -5.7001  -26.5136  -49.9795 C.3       15 UNK        -0.1800 
     87 C          -6.6586  -24.3888  -48.8939 C.2       15 UNK         0.5000 
     88 O          -7.5803  -24.4677  -49.7053 O.2       15 UNK        -0.5000 
     89 N          -6.5509  -23.4125  -47.9821 N.am      16 UNK        -0.5000 
     90 CA         -7.4464  -22.2583  -47.8200 C.3       16 UNK         0.1400 
     91 CB         -8.8529  -22.7054  -47.3696 C.3       16 UNK        -0.1800 
     92 C          -7.4698  -21.3466  -49.0680 C.2       16 UNK         0.5000 
     93 O          -8.5009  -20.7529  -49.3871 O.2       16 UNK        -0.5000 
     94 N          -6.3190  -21.2813  -49.7540 N.am      17 UNK        -0.5000 
     95 CA         -6.0544  -20.5780  -51.0114 C.3       17 UNK         0.1400 
     96 CB         -6.2158  -19.0523  -50.8493 C.3       17 UNK        -0.1800 
     97 C          -6.8260  -21.1502  -52.2204 C.2       17 UNK         0.5000 
     98 O          -6.9929  -20.4480  -53.2186 O.2       17 UNK        -0.5000 
     99 N          -7.2495  -22.4227  -52.1413 N.am      18 UNK        -0.5000 
    100 CA        -7.8062  -23.1742  -53.2691 C.3       18 UNK         0.1400 
    101 CB        -8.4720  -24.4629  -52.7672 C.3       18 UNK        -0.1800 
    102 C         -6.7279  -23.4947  -54.3194 C.2       18 UNK         0.5000 
    103 O         -7.0036  -23.4234  -55.5177 O.2       18 UNK        -0.5000 
    104 N         -5.5033  -23.7760  -53.8532 N.am      19 UNK        -0.5000 
    105 CA        -4.2924  -23.8067  -54.6643 C.3       19 UNK         0.1400 
    106 CB        -3.3355  -24.8795  -54.1153 C.3       19 UNK        -0.1800 
    107 C         -3.6889  -22.3934  -54.6338 C.2       19 UNK         0.5000 
    108 O         -2.7081  -22.1493  -53.9307 O.2       19 UNK        -0.5000 
    109 N         -4.3291  -21.4733  -55.3682 N.am      20 UNK        -0.5000 
    110 CA        -4.0797  -20.0263  -55.3654 C.3       20 UNK         0.1400 
    111 CB        -5.1459  -19.3458  -56.2379 C.3       20 UNK        -0.1800 
    112 C         -2.6647  -19.5935  -55.8034 C.2       20 UNK         0.5000 
    113 O         -2.2838  -18.4475  -55.5636 O.2       20 UNK        -0.5000 
    114 N         -1.9062  -20.5093  -56.4210 N.am      21 UNK        -0.5000 
    115 CA        -0.4790  -20.3570  -56.7051 C.3       21 UNK         0.1400 
    116 CB        -0.0461  -21.4670  -57.6753 C.3       21 UNK        -0.1800 
    117 C          0.3961  -20.3805  -55.4329 C.2       21 UNK         0.5000 
    118 O          1.5081  -19.8523  -55.4646 O.2       21 UNK        -0.5000 
    119 N         -0.1152  -20.9847  -54.3486 N.am      22 UNK        -0.5000 
    120 CA         0.5026  -21.0724  -53.0136 C.3       22 UNK         0.1400 
    121 C          1.8060  -21.9280  -52.9476 C.2       22 UNK         0.5000 
    122 N          2.0823  -22.7867  -53.9216 N.am      22 UNK        -0.7600 
    123 O          2.5658  -21.8426  -51.9866 O.2       22 UNK        -0.5000 
    124 C124        0.6518  -19.6829  -52.3309 C.3       23 UNK        -0.0398 
    125 S125       -0.9538  -18.8410  -52.0873 S.3       23 UNK        -0.2404 
    126 C126       -0.8198  -18.3923  -50.3284 C.3       23 UNK        -0.0205 
    127 H127       -2.6328   -9.0045  -47.0806 H         1 UNK         0.0600 
    128 H128       -3.1625  -10.0562  -45.7654 H         1 UNK         0.0600 
    129 H129       -1.5822   -9.2696  -45.6857 H         1 UNK         0.0600 
    130 H130       -1.7618  -10.0439  -48.8394 H         1 UNK         0.3000 
    131 H131       -0.8346  -11.4933  -50.2126 H         1 UNK         0.0600 
    132 H132       -1.3745  -13.8692  -50.0807 H         1 UNK         0.0800 
    133 H133       -1.7592  -13.7681  -48.3745 H         1 UNK         0.0800 
    134 H134       -3.5457  -14.3811  -51.6358 H         1 UNK         0.0800 
    135 H135       -5.0574  -14.4669  -50.7702 H         1 UNK         0.0800 
    136 H136       -1.9705  -16.1338  -51.3560 H         1 UNK         0.1150 
    137 H137       -2.2984  -18.8962  -48.1020 H         1 UNK         0.1150 
    138 H138       -4.9500  -15.5400  -48.3310 H         1 UNK         0.1150 
    139 H139       -4.9623  -16.8990  -46.3628 H         1 UNK         0.0800 
    140 H140       -3.5185  -17.8095  -46.0151 H         1 UNK         0.0800 
    141 H141       -4.2173  -19.7033  -44.7763 H         1 UNK         0.0800 
    142 H142       -5.3255  -20.9360  -45.2742 H         1 UNK         0.0800 
    143 H143       -3.4187  -21.1291  -47.3021 H         1 UNK         0.0600 
    144 H144       -2.0605  -19.6885  -45.3000 H         1 UNK         0.3000 
    145 H145        1.2440  -20.6723  -46.0657 H         1 UNK         0.0600 
    146 H146       -0.2697  -18.1370  -46.8857 H         1 UNK         0.0600 
    147 H147        1.4734  -18.2844  -46.7099 H         1 UNK         0.0600 
    148 H148        0.6570  -19.1929  -47.9484 H         1 UNK         0.0600 
    149 H149        1.1637  -19.9512  -44.0120 H         1 UNK         0.3000 
    150 H150        0.3971  -17.5884  -42.3801 H         1 UNK         0.0600 
    151 H151       -2.0283  -17.3565  -42.0190 H         1 UNK         0.0600 
    152 H152       -1.2899  -18.0160  -40.5705 H         1 UNK         0.0600 
    153 H153       -2.1871  -19.0715  -41.6624 H         1 UNK         0.0600 
    154 H154        1.4917  -19.2056  -41.3968 H         1 UNK         0.3000 
    155 H155        1.1836  -21.7413  -39.8990 H         1 UNK         0.0600 
    156 H156        0.5076  -23.6497  -41.2771 H         1 UNK         0.0600 
    157 H157        2.2421  -23.7269  -41.0312 H         1 UNK         0.0600 
    158 H158        1.5973  -23.1726  -42.5755 H         1 UNK         0.0600 
    159 H159        3.2236  -20.9329  -40.1553 H         1 UNK         0.3000 
    160 H160        4.8485  -19.6549  -40.9566 H         1 UNK         0.0600 
    161 H161        5.9489  -21.6169  -43.0472 H         1 UNK         0.0600 
    162 H162        6.9089  -20.7055  -41.8808 H         1 UNK         0.0600 
    163 H163        5.7938  -21.9437  -41.3256 H         1 UNK         0.0600 
    164 H164        5.7294  -19.2532  -43.6512 H         1 UNK         0.3000 
    165 H165        5.7291  -17.1517  -44.4984 H         1 UNK         0.0600 
    166 H166        4.1007  -16.9806  -46.3522 H         1 UNK         0.0600 
    167 H167        3.9445  -18.5699  -45.6157 H         1 UNK         0.0600 
    168 H168        2.7712  -17.3106  -45.2398 H         1 UNK         0.0600 
    169 H169        3.7322  -15.1895  -44.6684 H         1 UNK         0.3000 
    170 H170        4.9901  -12.9103  -42.2434 H         1 UNK         0.0600 
    171 H171        6.6651  -12.7276  -44.0728 H         1 UNK         0.0600 
    172 H172        5.3967  -12.9162  -45.2794 H         1 UNK         0.0600 
    173 H173        5.4234  -11.4953  -44.2357 H         1 UNK         0.0600 
    174 H174        2.9932  -13.3950  -44.4371 H         1 UNK         0.3000 
    175 H175        0.3587  -12.3073  -42.3876 H         1 UNK         0.0600 
    176 H176        1.4811  -10.5971  -44.6706 H         1 UNK         0.0600 
    177 H177       -0.1608  -10.5426  -44.0294 H         1 UNK         0.0600 
    178 H178        1.1875  -10.0235  -43.0318 H         1 UNK         0.0600 
    179 H179        0.3825  -12.7311  -45.1885 H         1 UNK         0.3000 
    180 H180        0.4688  -16.2647  -45.2043 H         1 UNK         0.0600 
    181 H181       -1.9251  -15.7062  -44.5746 H         1 UNK         0.0600 
    182 H182       -1.9134  -14.4113  -45.7576 H         1 UNK         0.0600 
    183 H183       -1.7288  -16.0833  -46.2788 H         1 UNK         0.0600 
    184 H184       -0.0552  -14.6740  -47.3650 H         1 UNK         0.3000 
    185 H185        2.9965  -13.3108  -48.3404 H         1 UNK         0.0600 
    186 H186        3.5723  -15.7043  -48.7044 H         1 UNK         0.0600 
    187 H187        1.9202  -16.0576  -49.1939 H         1 UNK         0.0600 
    188 H188        2.9306  -14.9993  -50.1795 H         1 UNK         0.0600 
    189 H189        0.4483  -14.1318  -49.5426 H         1 UNK         0.3000 
    190 H190       -1.9755  -22.4012  -44.4132 H         1 UNK         0.3000 
    191 H191       -3.4131  -24.8889  -44.3154 H         1 UNK         0.0600 
    192 H192       -1.4659  -25.6191  -42.9417 H         1 UNK         0.0600 
    193 H193       -2.0258  -24.0344  -42.4262 H         1 UNK         0.0600 
    194 H194       -0.5727  -24.1785  -43.4143 H         1 UNK         0.0600 
    195 H195       -0.6927  -23.6993  -46.2711 H         1 UNK         0.3000 
    196 H196       -0.1295  -26.3654  -47.4304 H         1 UNK         0.0600 
    197 H197        1.7392  -25.1704  -48.5386 H         1 UNK         0.0600 
    198 H198        1.7868  -24.9103  -46.8016 H         1 UNK         0.0600 
    199 H199        1.1985  -23.6369  -47.8691 H         1 UNK         0.0600 
    200 H200       -1.4091  -23.1438  -48.3119 H         1 UNK         0.3000 
    201 H201       -1.8983  -23.8200  -51.0803 H         1 UNK         0.0600 
    202 H202       -2.7606  -21.5588  -51.2233 H         1 UNK         0.0600 
    203 H203       -1.3382  -21.5211  -50.2008 H         1 UNK         0.0600 
    204 H204       -2.9425  -21.4322  -49.4795 H         1 UNK         0.0600 
    205 H205       -3.5247  -24.8715  -48.4024 H         1 UNK         0.3000 
    206 H206       -5.4544  -25.8663  -47.9498 H         1 UNK         0.0600 
    207 H207       -4.8829  -27.2342  -49.9496 H         1 UNK         0.0600 
    208 H208       -6.6239  -27.0610  -49.7892 H         1 UNK         0.0600 
    209 H209       -5.7583  -26.1175  -50.9938 H         1 UNK         0.0600 
    210 H210       -5.7331  -23.4258  -47.3730 H         1 UNK         0.3000 
    211 H211       -7.0248  -21.6595  -47.0131 H         1 UNK         0.0600 
    212 H212       -9.3786  -23.2486  -48.1552 H         1 UNK         0.0600 
    213 H213       -9.4676  -21.8455  -47.1015 H         1 UNK         0.0600 
    214 H214       -8.7993  -23.3505  -46.4928 H         1 UNK         0.0600 
    215 H215       -5.5578  -21.8506  -49.4160 H         1 UNK         0.3000 
    216 H216       -5.0033  -20.7614  -51.2337 H         1 UNK         0.0600 
    217 H217       -5.6316  -18.6823  -50.0067 H         1 UNK         0.0600 
    218 H218       -5.8649  -18.5246  -51.7368 H         1 UNK         0.0600 
    219 H219       -7.2556  -18.7675  -50.6893 H         1 UNK         0.0600 
    220 H220       -7.0793  -22.9447  -51.2899 H         1 UNK         0.3000 
    221 H221       -8.5721  -22.5593  -53.7461 H         1 UNK         0.0600 
    222 H222       -7.7478  -25.1396  -52.3126 H         1 UNK         0.0600 
    223 H223       -9.2419  -24.2472  -52.0260 H         1 UNK         0.0600 
    224 H224       -8.9500  -24.9989  -53.5879 H         1 UNK         0.0600 
    225 H225       -5.3499  -23.7597  -52.8472 H         1 UNK         0.3000 
    226 H226       -4.5262  -24.0629  -55.6997 H         1 UNK         0.0600 
    227 H227       -3.7936  -25.8679  -54.1499 H         1 UNK         0.0600 
    228 H228       -2.4202  -24.9225  -54.7067 H         1 UNK         0.0600 
    229 H229       -3.0483  -24.6832  -53.0830 H         1 UNK         0.0600 
    230 H230       -5.1398  -21.7753  -55.8914 H         1 UNK         0.3000 
    231 H231       -4.2098  -19.6801  -54.3378 H         1 UNK         0.0600 
    232 H232       -5.0873  -19.6778  -57.2751 H         1 UNK         0.0600 
    233 H233       -6.1502  -19.5601  -55.8711 H         1 UNK         0.0600 
    234 H234       -5.0258  -18.2616  -56.2317 H         1 UNK         0.0600 
    235 H235       -2.3090  -21.4186  -56.5906 H         1 UNK         0.3000 
    236 H236       -0.3261  -19.3929  -57.1945 H         1 UNK         0.0600 
    237 H237       -0.1928  -22.4584  -57.2448 H         1 UNK         0.0600 
    238 H238       -0.6095  -21.4182  -58.6073 H         1 UNK         0.0600 
    239 H239        1.0103  -21.3726  -57.9306 H         1 UNK         0.0600 
    240 H240       -1.0502  -21.3800  -54.4019 H         1 UNK         0.3000 
    241 H241       -0.2089  -21.6425  -52.4160 H         1 UNK         0.0600 
    242 H242        2.9204  -23.3441  -53.8695 H         1 UNK         0.3800 
    243 H243        1.4663  -22.8774  -54.7131 H         1 UNK         0.3800 
    244 H244        1.3032  -19.0318  -52.9146 H         1 UNK         0.0800 
    245 H245        1.1355  -19.7909  -51.3591 H         1 UNK         0.0800 
    246 H246       -0.6904  -19.3110  -49.7575 H         1 UNK         0.0800 
    247 H247        0.0793  -17.7941  -50.1756 H         1 UNK         0.0800 
@<TRIPOS>BOND
     1    1    2 1    
     2    1  127 1    
     3    1  128 1    
     4    1  129 1    
     5    2    3 2    
     6    2    4 am   BACKBONE|DICT|INTERRES
     7    4    5 1    
     8    4  130 1    
     9    5    6 1    
    10    5   65 1    
    11    5  131 1    
    12    6    7 1    
    13    6  132 1    
    14    6  133 1    
    15    7    8 1    
    16    8    9 1    
    17    8  134 1    
    18    8  135 1    
    19    9   10 ar   
    20    9   14 ar   
    21   10   11 ar   
    22   10  136 1    
    23   11   12 ar   
    24   11  126 1    
    25   12   13 ar   
    26   12  137 1    
    27   13   14 ar   
    28   13   15 1    
    29   14  138 1    
    30   15   16 1    
    31   15  139 1    
    32   15  140 1    
    33   16   17 1    
    34   17   18 1    
    35   17  141 1    
    36   17  142 1    
    37   18   19 1    
    38   18   67 1    
    39   18  143 1    
    40   19   20 am   BACKBONE|DICT|INTERRES
    41   19  144 1    
    42   20   21 2    
    43   20   22 1    
    44   22   23 1    
    45   22   24 1    
    46   22  145 1    
    47   23  146 1    
    48   23  147 1    
    49   23  148 1    
    50   24   25 am   BACKBONE|DICT|INTERRES
    51   24  149 1    
    52   25   26 2    
    53   25   27 1    
    54   27   28 1    
    55   27   29 1    
    56   27  150 1    
    57   28  151 1    
    58   28  152 1    
    59   28  153 1    
    60   29   30 am   BACKBONE|DICT|INTERRES
    61   29  154 1    
    62   30   31 2    
    63   30   32 1    
    64   32   33 1    
    65   32   34 1    
    66   32  155 1    
    67   33  156 1    
    68   33  157 1    
    69   33  158 1    
    70   34   35 am   BACKBONE|DICT|INTERRES
    71   34  159 1    
    72   35   36 2    
    73   35   37 1    
    74   37   38 1    
    75   37   39 1    
    76   37  160 1    
    77   38  161 1    
    78   38  162 1    
    79   38  163 1    
    80   39   40 am   BACKBONE|DICT|INTERRES
    81   39  164 1    
    82   40   41 2    
    83   40   42 1    
    84   42   43 1    
    85   42   44 1    
    86   42  165 1    
    87   43  166 1    
    88   43  167 1    
    89   43  168 1    
    90   44   45 am   BACKBONE|DICT|INTERRES
    91   44  169 1    
    92   45   46 2    
    93   45   47 1    
    94   47   48 1    
    95   47   49 1    
    96   47  170 1    
    97   48  171 1    
    98   48  172 1    
    99   48  173 1    
   100   49   50 am   BACKBONE|DICT|INTERRES
   101   49  174 1    
   102   50   51 2    
   103   50   52 1    
   104   52   53 1    
   105   52   54 1    
   106   52  175 1    
   107   53  176 1    
   108   53  177 1    
   109   53  178 1    
   110   54   55 am   BACKBONE|DICT|INTERRES
   111   54  179 1    
   112   55   56 2    
   113   55   57 1    
   114   57   58 1    
   115   57   59 1    
   116   57  180 1    
   117   58  181 1    
   118   58  182 1    
   119   58  183 1    
   120   59   60 am   BACKBONE|DICT|INTERRES
   121   59  184 1    
   122   60   61 2    
   123   60   62 1    
   124   62   63 1    
   125   62   64 1    
   126   62  185 1    
   127   63  186 1    
   128   63  187 1    
   129   63  188 1    
   130   64   65 am   BACKBONE|DICT|INTERRES
   131   64  189 1    
   132   65   66 2    
   133   67   68 2    
   134   67   69 am   BACKBONE|DICT|INTERRES
   135   69   70 1    
   136   69  190 1    
   137   70   71 1    
   138   70   72 1    
   139   70  191 1    
   140   71  192 1    
   141   71  193 1    
   142   71  194 1    
   143   72   73 2    
   144   72   74 am   BACKBONE|DICT|INTERRES
   145   74   75 1    
   146   74  195 1    
   147   75   76 1    
   148   75   77 1    
   149   75  196 1    
   150   76  197 1    
   151   76  198 1    
   152   76  199 1    
   153   77   78 2    
   154   77   79 am   BACKBONE|DICT|INTERRES
   155   79   80 1    
   156   79  200 1    
   157   80   81 1    
   158   80   82 1    
   159   80  201 1    
   160   81  202 1    
   161   81  203 1    
   162   81  204 1    
   163   82   83 2    
   164   82   84 am   BACKBONE|DICT|INTERRES
   165   84   85 1    
   166   84  205 1    
   167   85   86 1    
   168   85   87 1    
   169   85  206 1    
   170   86  207 1    
   171   86  208 1    
   172   86  209 1    
   173   87   88 2    
   174   87   89 am   BACKBONE|DICT|INTERRES
   175   89   90 1    
   176   89  210 1    
   177   90   91 1    
   178   90   92 1    
   179   90  211 1    
   180   91  212 1    
   181   91  213 1    
   182   91  214 1    
   183   92   93 2    
   184   92   94 am   BACKBONE|DICT|INTERRES
   185   94   95 1    
   186   94  215 1    
   187   95   96 1    
   188   95   97 1    
   189   95  216 1    
   190   96  217 1    
   191   96  218 1    
   192   96  219 1    
   193   97   98 2    
   194   97   99 am   BACKBONE|DICT|INTERRES
   195   99  100 1    
   196   99  220 1    
   197  100  101 1    
   198  100  102 1    
   199  100  221 1    
   200  101  222 1    
   201  101  223 1    
   202  101  224 1    
   203  102  103 2    
   204  102  104 am   BACKBONE|DICT|INTERRES
   205  104  105 1    
   206  104  225 1    
   207  105  106 1    
   208  105  107 1    
   209  105  226 1    
   210  106  227 1    
   211  106  228 1    
   212  106  229 1    
   213  107  108 2    
   214  107  109 am   BACKBONE|DICT|INTERRES
   215  109  110 1    
   216  109  230 1    
   217  110  111 1    
   218  110  112 1    
   219  110  231 1    
   220  111  232 1    
   221  111  233 1    
   222  111  234 1    
   223  112  113 2    
   224  112  114 am   BACKBONE|DICT|INTERRES
   225  114  115 1    
   226  114  235 1    
   227  115  116 1    
   228  115  117 1    
   229  115  236 1    
   230  116  237 1    
   231  116  238 1    
   232  116  239 1    
   233  117  118 2    
   234  117  119 am   BACKBONE|DICT|INTERRES
   235  119  120 1    
   236  119  240 1    
   237  120  121 1    
   238  120  124 1    
   239  120  241 1    
   240  121  122 am   BACKBONE|DICT|INTERRES
   241  121  123 2    
   242  122  242 1    
   243  122  243 1    
   244  124  125 1    
   245  124  244 1    
   246  124  245 1    
   247  125  126 1    
   248  126  246 1    
   249  126  247 1    
@<TRIPOS>SUBSTRUCTURE
     1 UNK         1 GROUP             0       ****    0 ROOT    
