@<TRIPOS>MOLECULE
3R540
247   249    1
SMALL
USER_CHARGES


@<TRIPOS>ATOM
      1 CA          8.3882  -14.2298  -47.3858 C.3       0 UNK        -0.1800 
      2 C           7.7657  -12.9983  -48.0422 C.2       0 UNK         0.5000 
      3 O           8.4635  -12.2847  -48.7600 O.2       0 UNK        -0.5000 
      4 N           6.4716  -12.7044  -47.8452 N.am      1 UNK        -0.5000 
      5 CA          5.5092  -13.4123  -46.9896 C.3       1 UNK         0.1400 
      6 C6          4.0673  -12.8921  -47.2079 C.3       23 UNK        -0.0398 
      7 S7          3.3859  -13.4457  -48.8056 S.3       23 UNK        -0.2404 
      8 C8          2.0485  -14.5253  -48.2157 C.3       23 UNK        -0.0205 
      9 C9          1.5963  -15.5095  -49.2766 C.ar      23 UNK        -0.0193 
     10 C10         0.4882  -15.2290  -50.0781 C.ar      23 UNK        -0.1150 
     11 C11         0.0173  -16.1716  -50.9968 C.ar      23 UNK        -0.0193 
     12 C12         0.6730  -17.4049  -51.1074 C.ar      23 UNK        -0.1150 
     13 C13         1.8013  -17.6833  -50.3304 C.ar      23 UNK        -0.0193 
     14 C14         2.2577  -16.7310  -49.4171 C.ar      23 UNK        -0.1150 
     15 C15         2.5353  -19.0079  -50.4732 C.3       23 UNK        -0.0205 
     16 S16         2.3001  -20.0777  -49.0204 S.3       23 UNK        -0.2404 
     17 C17         0.5529  -20.5539  -49.2151 C.3       23 UNK        -0.0398 
     18 CA          0.1769  -21.7251  -48.2790 C.3       11 UNK         0.1400 
     19 N           0.1663  -21.3446  -46.8625 N.am      11 UNK        -0.5000 
     20 C           0.0508  -22.2116  -45.8464 C.2       10 UNK         0.5000 
     21 O           0.0163  -23.4329  -45.9944 O.2       10 UNK        -0.5000 
     22 CA         -0.1265  -21.6195  -44.4359 C.3       10 UNK         0.1400 
     23 CB          1.2254  -21.2313  -43.8195 C.3       10 UNK        -0.1800 
     24 N          -1.0377  -20.4729  -44.4278 N.am      10 UNK        -0.5000 
     25 C          -2.3417  -20.5537  -44.7307 C.2       9 UNK         0.5000 
     26 O          -2.9156  -21.6152  -44.9719 O.2       9 UNK        -0.5000 
     27 CA         -3.1313  -19.2353  -44.8248 C.3       9 UNK         0.1400 
     28 CB         -3.6360  -18.8044  -43.4403 C.3       9 UNK        -0.1800 
     29 N          -2.3573  -18.1506  -45.4288 N.am      9 UNK        -0.5000 
     30 C          -1.9257  -18.1343  -46.6983 C.2       8 UNK         0.5000 
     31 O          -2.1914  -19.0114  -47.5199 O.2       8 UNK        -0.5000 
     32 CA         -0.9944  -16.9731  -47.0988 C.3       8 UNK         0.1400 
     33 CB         -1.8027  -15.7107  -47.4325 C.3       8 UNK        -0.1800 
     34 N          -0.0035  -16.6695  -46.0623 N.am      8 UNK        -0.5000 
     35 C           0.9386  -17.5318  -45.6527 C.2       7 UNK         0.5000 
     36 O           1.1000  -18.6455  -46.1482 O.2       7 UNK        -0.5000 
     37 CA          1.7931  -17.1173  -44.4417 C.3       7 UNK         0.1400 
     38 CB          3.0055  -16.2699  -44.8546 C.3       7 UNK        -0.1800 
     39 N           1.0001  -16.4077  -43.4384 N.am      7 UNK        -0.5000 
     40 C           0.1085  -17.0064  -42.6360 C.2       6 UNK         0.5000 
     41 O          -0.0742  -18.2232  -42.6109 O.2       6 UNK        -0.5000 
     42 CA         -0.7609  -16.0921  -41.7534 C.3       6 UNK         0.1400 
     43 CB         -0.0802  -15.8122  -40.4075 C.3       6 UNK        -0.1800 
     44 N          -1.0884  -14.8278  -42.4151 N.am      6 UNK        -0.5000 
     45 C          -1.9384  -14.7363  -43.4482 C.2       5 UNK         0.5000 
     46 O          -2.5427  -15.7011  -43.9137 O.2       5 UNK        -0.5000 
     47 CA         -2.1215  -13.3547  -44.1025 C.3       5 UNK         0.1400 
     48 CB         -3.2956  -12.6064  -43.4547 C.3       5 UNK        -0.1800 
     49 N          -0.9289  -12.5088  -44.0563 N.am      5 UNK        -0.5000 
     50 C           0.2603  -12.8076  -44.5955 C.2       4 UNK         0.5000 
     51 O           0.4978  -13.8668  -45.1791 O.2       4 UNK        -0.5000 
     52 CA          1.3859  -11.7643  -44.4418 C.3       4 UNK         0.1400 
     53 CB          0.9069  -10.3891  -43.9255 C.3       4 UNK        -0.1800 
     54 N           2.4872  -12.2545  -43.6077 N.am      4 UNK        -0.5000 
     55 C           2.4213  -12.7185  -42.3494 C.2       3 UNK         0.5000 
     56 O           1.3663  -12.8681  -41.7308 O.2       3 UNK        -0.5000 
     57 CA          3.7566  -13.0809  -41.6634 C.3       3 UNK         0.1400 
     58 CB          3.7518  -14.5364  -41.1698 C.3       3 UNK        -0.1800 
     59 N           4.9132  -12.8914  -42.5421 N.am      3 UNK        -0.5000 
     60 C           5.6390  -11.7736  -42.6577 C.2       2 UNK         0.5000 
     61 O           5.4210  -10.7496  -42.0102 O.2       2 UNK        -0.5000 
     62 CA          6.7839  -11.7899  -43.6930 C.3       2 UNK         0.1400 
     63 CB          7.9646  -12.6553  -43.2114 C.3       2 UNK        -0.1800 
     64 N           6.3670  -12.1611  -45.0548 N.am      2 UNK        -0.5000 
     65 C           5.8752  -13.3295  -45.4950 C.2       1 UNK         0.5000 
     66 O           5.7032  -14.3179  -44.7829 O.2       1 UNK        -0.5000 
     67 C          -1.1545  -22.3728  -48.7100 C.2       11 UNK         0.5000 
     68 O          -1.1253  -23.3820  -49.4124 O.2       11 UNK        -0.5000 
     69 N          -2.2902  -21.8267  -48.2509 N.am      12 UNK        -0.5000 
     70 CA         -3.6246  -22.3811  -48.4914 C.3       12 UNK         0.1400 
     71 CB         -4.6950  -21.4090  -47.9728 C.3       12 UNK        -0.1800 
     72 C          -3.8161  -23.7767  -47.8702 C.2       12 UNK         0.5000 
     73 O          -4.4059  -24.6506  -48.5080 O.2       12 UNK        -0.5000 
     74 N          -3.2892  -23.9672  -46.6531 N.am      13 UNK        -0.5000 
     75 CA         -3.2617  -25.2483  -45.9505 C.3       13 UNK         0.1400 
     76 CB         -2.8292  -25.0318  -44.4927 C.3       13 UNK        -0.1800 
     77 C          -2.3575  -26.2780  -46.6511 C.2       13 UNK         0.5000 
     78 O          -2.7704  -27.4255  -46.8162 O.2       13 UNK        -0.5000 
     79 N          -1.1664  -25.8451  -47.0906 N.am      14 UNK        -0.5000 
     80 CA         -0.2071  -26.6573  -47.8454 C.3       14 UNK         0.1400 
     81 CB          1.1180  -25.8933  -47.9843 C.3       14 UNK        -0.1800 
     82 C          -0.7358  -27.0879  -49.2273 C.2       14 UNK         0.5000 
     83 O          -0.4986  -28.2228  -49.6424 O.2       14 UNK        -0.5000 
     84 N          -1.4739  -26.1906  -49.8951 N.am      15 UNK        -0.5000 
     85 CA         -2.1823  -26.4484  -51.1511 C.3       15 UNK         0.1400 
     86 CB         -2.5965  -25.1048  -51.7737 C.3       15 UNK        -0.1800 
     87 C          -3.4167  -27.3590  -50.9862 C.2       15 UNK         0.5000 
     88 O          -3.9087  -27.8816  -51.9870 O.2       15 UNK        -0.5000 
     89 N          -3.8908  -27.5228  -49.7406 N.am      16 UNK        -0.5000 
     90 CA         -5.1073  -28.2266  -49.3278 C.3       16 UNK         0.1400 
     91 CB         -4.9930  -29.7409  -49.6006 C.3       16 UNK        -0.1800 
     92 C          -6.3620  -27.5794  -49.9454 C.2       16 UNK         0.5000 
     93 O          -7.1749  -28.2641  -50.5697 O.2       16 UNK        -0.5000 
     94 N          -6.4627  -26.2527  -49.7751 N.am      17 UNK        -0.5000 
     95 CA         -7.4220  -25.3508  -50.4115 C.3       17 UNK         0.1400 
     96 CB         -8.8783  -25.6738  -50.0066 C.3       17 UNK        -0.1800 
     97 C          -7.1641  -25.2838  -51.9295 C.2       17 UNK         0.5000 
     98 O          -6.0540  -24.9134  -52.3167 O.2       17 UNK        -0.5000 
     99 N          -8.1727  -25.6040  -52.7543 N.am      18 UNK        -0.5000 
    100 CA        -8.1793  -25.5160  -54.2194 C.3       18 UNK         0.1400 
    101 CB        -7.1827  -26.5187  -54.8445 C.3       18 UNK        -0.1800 
    102 C         -7.9770  -24.0584  -54.6796 C.2       18 UNK         0.5000 
    103 O         -8.9318  -23.2811  -54.6381 O.2       18 UNK        -0.5000 
    104 N         -6.7428  -23.6996  -55.0599 N.am      19 UNK        -0.5000 
    105 CA        -6.3208  -22.3205  -55.3228 C.3       19 UNK         0.1400 
    106 CB        -4.9457  -22.3378  -56.0072 C.3       19 UNK        -0.1800 
    107 C         -6.2736  -21.4557  -54.0457 C.2       19 UNK         0.5000 
    108 O         -6.4304  -20.2369  -54.1346 O.2       19 UNK        -0.5000 
    109 N         -6.0762  -22.1059  -52.8887 N.am      20 UNK        -0.5000 
    110 CA        -6.0619  -21.5464  -51.5384 C.3       20 UNK         0.1400 
    111 CB        -7.5000  -21.1881  -51.1030 C.3       20 UNK        -0.1800 
    112 C         -5.0430  -20.3973  -51.3892 C.2       20 UNK         0.5000 
    113 O         -3.9084  -20.5283  -51.8537 O.2       20 UNK        -0.5000 
    114 N         -5.4515  -19.2964  -50.7482 N.am      21 UNK        -0.5000 
    115 CA        -4.6514  -18.0916  -50.5442 C.3       21 UNK         0.1400 
    116 CB        -5.1816  -17.3497  -49.3034 C.3       21 UNK        -0.1800 
    117 C         -4.6349  -17.2115  -51.8118 C.2       21 UNK         0.5000 
    118 O         -5.0933  -16.0683  -51.7772 O.2       21 UNK        -0.5000 
    119 N         -4.0859  -17.7634  -52.9015 N.am      22 UNK        -0.5000 
    120 CA        -3.8718  -17.1028  -54.2018 C.3       22 UNK         0.1400 
    121 C         -5.1900  -16.6915  -54.9286 C.2       22 UNK         0.5000 
    122 N         -6.2531  -17.4812  -54.8462 N.am      22 UNK        -0.7600 
    123 O         -5.2584  -15.6570  -55.5880 O.2       22 UNK        -0.5000 
    124 C124       -2.8360  -15.9420  -54.1241 C.3       23 UNK        -0.0398 
    125 S125       -1.1958  -16.4751  -53.5210 S.3       23 UNK        -0.2404 
    126 C126       -1.2358  -15.8549  -51.8054 C.3       23 UNK        -0.0205 
    127 H127        7.7262  -15.0937  -47.4315 H         1 UNK         0.0600 
    128 H128        8.6307  -14.0259  -46.3429 H         1 UNK         0.0600 
    129 H129        9.3129  -14.5024  -47.8951 H         1 UNK         0.0600 
    130 H130        6.0945  -11.9036  -48.3316 H         1 UNK         0.3000 
    131 H131        5.5271  -14.4700  -47.2595 H         1 UNK         0.0600 
    132 H132        3.4038  -13.2303  -46.4101 H         1 UNK         0.0800 
    133 H133        4.0366  -11.8017  -47.1737 H         1 UNK         0.0800 
    134 H134        2.3850  -15.0897  -47.3483 H         1 UNK         0.0800 
    135 H135        1.2114  -13.9134  -47.8763 H         1 UNK         0.0800 
    136 H136       -0.0254  -14.2847  -49.9634 H         1 UNK         0.1150 
    137 H137        0.3071  -18.1499  -51.7994 H         1 UNK         0.1150 
    138 H138        3.1166  -16.9519  -48.7988 H         1 UNK         0.1150 
    139 H139        2.2197  -19.5363  -51.3742 H         1 UNK         0.0800 
    140 H140        3.6014  -18.8110  -50.5943 H         1 UNK         0.0800 
    141 H141        0.3979  -20.8314  -50.2596 H         1 UNK         0.0800 
    142 H142       -0.0781  -19.6841  -49.0282 H         1 UNK         0.0800 
    143 H143        0.9417  -22.4963  -48.3939 H         1 UNK         0.0600 
    144 H144        0.2608  -20.3543  -46.6552 H         1 UNK         0.3000 
    145 H145       -0.5678  -22.3948  -43.8061 H         1 UNK         0.0600 
    146 H146        1.1007  -20.8343  -42.8119 H         1 UNK         0.0600 
    147 H147        1.8813  -22.0997  -43.7486 H         1 UNK         0.0600 
    148 H148        1.7446  -20.4807  -44.4137 H         1 UNK         0.0600 
    149 H149       -0.6416  -19.5721  -44.1877 H         1 UNK         0.3000 
    150 H150       -4.0008  -19.4147  -45.4601 H         1 UNK         0.0600 
    151 H151       -4.2374  -19.5905  -42.9820 H         1 UNK         0.0600 
    152 H152       -4.2617  -17.9144  -43.5086 H         1 UNK         0.0600 
    153 H153       -2.8121  -18.5831  -42.7619 H         1 UNK         0.0600 
    154 H154       -2.1615  -17.3493  -44.8358 H         1 UNK         0.3000 
    155 H155       -0.4500  -17.2768  -47.9950 H         1 UNK         0.0600 
    156 H156       -2.4829  -15.4390  -46.6259 H         1 UNK         0.0600 
    157 H157       -1.1515  -14.8577  -47.6215 H         1 UNK         0.0600 
    158 H158       -2.4028  -15.8661  -48.3290 H         1 UNK         0.0600 
    159 H159       -0.0429  -15.7507  -45.6341 H         1 UNK         0.3000 
    160 H160        2.1773  -18.0358  -43.9930 H         1 UNK         0.0600 
    161 H161        2.7299  -15.2412  -45.0796 H         1 UNK         0.0600 
    162 H162        3.4992  -16.6848  -45.7344 H         1 UNK         0.0600 
    163 H163        3.7488  -16.2429  -44.0589 H         1 UNK         0.0600 
    164 H164        1.0366  -15.3983  -43.4570 H         1 UNK         0.3000 
    165 H165       -1.6934  -16.6229  -41.5495 H         1 UNK         0.0600 
    166 H166       -0.7314  -15.2374  -39.7489 H         1 UNK         0.0600 
    167 H167        0.1666  -16.7416  -39.8926 H         1 UNK         0.0600 
    168 H168        0.8434  -15.2516  -40.5358 H         1 UNK         0.0600 
    169 H169       -0.5890  -14.0015  -42.1081 H         1 UNK         0.3000 
    170 H170       -2.3629  -13.5202  -45.1539 H         1 UNK         0.0600 
    171 H171       -3.0984  -12.3791  -42.4063 H         1 UNK         0.0600 
    172 H172       -3.4988  -11.6677  -43.9705 H         1 UNK         0.0600 
    173 H173       -4.2087  -13.2020  -43.4957 H         1 UNK         0.0600 
    174 H174       -1.0215  -11.6298  -43.5686 H         1 UNK         0.3000 
    175 H175        1.7917  -11.6128  -45.4426 H         1 UNK         0.0600 
    176 H176        1.7267   -9.6706  -43.9245 H         1 UNK         0.0600 
    177 H177        0.5188  -10.4411  -42.9075 H         1 UNK         0.0600 
    178 H178        0.1244   -9.9765  -44.5638 H         1 UNK         0.0600 
    179 H179        3.4072  -12.1929  -44.0150 H         1 UNK         0.3000 
    180 H180        3.8592  -12.4316  -40.7916 H         1 UNK         0.0600 
    181 H181        3.4854  -15.2345  -41.9628 H         1 UNK         0.0600 
    182 H182        3.0370  -14.6671  -40.3582 H         1 UNK         0.0600 
    183 H183        4.7282  -14.8263  -40.7811 H         1 UNK         0.0600 
    184 H184        5.1555  -13.6657  -43.1573 H         1 UNK         0.3000 
    185 H185        7.1484  -10.7640  -43.7678 H         1 UNK         0.0600 
    186 H186        7.6900  -13.7047  -43.1024 H         1 UNK         0.0600 
    187 H187        8.8015  -12.5999  -43.9076 H         1 UNK         0.0600 
    188 H188        8.3263  -12.3127  -42.2412 H         1 UNK         0.0600 
    189 H189        6.4625  -11.4209  -45.7368 H         1 UNK         0.3000 
    190 H190       -2.2398  -20.9565  -47.7291 H         1 UNK         0.3000 
    191 H191       -3.7397  -22.4813  -49.5715 H         1 UNK         0.0600 
    192 H192       -4.5315  -20.4007  -48.3501 H         1 UNK         0.0600 
    193 H193       -5.6908  -21.7232  -48.2866 H         1 UNK         0.0600 
    194 H194       -4.7016  -21.3546  -46.8849 H         1 UNK         0.0600 
    195 H195       -2.8849  -23.1710  -46.1688 H         1 UNK         0.3000 
    196 H196       -4.2781  -25.6477  -45.9444 H         1 UNK         0.0600 
    197 H197       -2.8366  -25.9720  -43.9401 H         1 UNK         0.0600 
    198 H198       -3.5047  -24.3467  -43.9799 H         1 UNK         0.0600 
    199 H199       -1.8228  -24.6192  -44.4250 H         1 UNK         0.0600 
    200 H200       -0.8791  -24.8958  -46.8670 H         1 UNK         0.3000 
    201 H201       -0.0157  -27.5642  -47.2682 H         1 UNK         0.0600 
    202 H202        1.5335  -25.6432  -47.0080 H         1 UNK         0.0600 
    203 H203        0.9907  -24.9652  -48.5415 H         1 UNK         0.0600 
    204 H204        1.8614  -26.4930  -48.5107 H         1 UNK         0.0600 
    205 H205       -1.5455  -25.2467  -49.5239 H         1 UNK         0.3000 
    206 H206       -1.4947  -26.9469  -51.8372 H         1 UNK         0.0600 
    207 H207       -1.7300  -24.4706  -51.9613 H         1 UNK         0.0600 
    208 H208       -3.1040  -25.2532  -52.7278 H         1 UNK         0.0600 
    209 H209       -3.2800  -24.5561  -51.1246 H         1 UNK         0.0600 
    210 H210       -3.4006  -27.0466  -48.9949 H         1 UNK         0.3000 
    211 H211       -5.1895  -28.0924  -48.2482 H         1 UNK         0.0600 
    212 H212       -4.9511  -29.9630  -50.6671 H         1 UNK         0.0600 
    213 H213       -5.8507  -30.2748  -49.1902 H         1 UNK         0.0600 
    214 H214       -4.0988  -30.1567  -49.1360 H         1 UNK         0.0600 
    215 H215       -5.7006  -25.7821  -49.2909 H         1 UNK         0.3000 
    216 H216       -7.1945  -24.3560  -50.0259 H         1 UNK         0.0600 
    217 H217       -9.5659  -24.9177  -50.3875 H         1 UNK         0.0600 
    218 H218       -8.9851  -25.6829  -48.9219 H         1 UNK         0.0600 
    219 H219       -9.2132  -26.6426  -50.3774 H         1 UNK         0.0600 
    220 H220       -9.0488  -25.8822  -52.3355 H         1 UNK         0.3000 
    221 H221       -9.1795  -25.8059  -54.5448 H         1 UNK         0.0600 
    222 H222       -6.1543  -26.3498  -54.5248 H         1 UNK         0.0600 
    223 H223       -7.4429  -27.5413  -54.5711 H         1 UNK         0.0600 
    224 H224       -7.2037  -26.4619  -55.9335 H         1 UNK         0.0600 
    225 H225       -6.0149  -24.3991  -55.0315 H         1 UNK         0.3000 
    226 H226       -7.0400  -21.8640  -56.0061 H         1 UNK         0.0600 
    227 H227       -4.9784  -22.8917  -56.9455 H         1 UNK         0.0600 
    228 H228       -4.6133  -21.3250  -56.2394 H         1 UNK         0.0600 
    229 H229       -4.1859  -22.7949  -55.3718 H         1 UNK         0.0600 
    230 H230       -5.9372  -23.1119  -52.9296 H         1 UNK         0.3000 
    231 H231       -5.7125  -22.3485  -50.8881 H         1 UNK         0.0600 
    232 H232       -7.9089  -20.3632  -51.6879 H         1 UNK         0.0600 
    233 H233       -7.5418  -20.9096  -50.0494 H         1 UNK         0.0600 
    234 H234       -8.1675  -22.0407  -51.2306 H         1 UNK         0.0600 
    235 H235       -6.4108  -19.2496  -50.4376 H         1 UNK         0.3000 
    236 H236       -3.6184  -18.3794  -50.3345 H         1 UNK         0.0600 
    237 H237       -4.6160  -16.4356  -49.1216 H         1 UNK         0.0600 
    238 H238       -6.2293  -17.0695  -49.4173 H         1 UNK         0.0600 
    239 H239       -5.0926  -17.9653  -48.4080 H         1 UNK         0.0600 
    240 H240       -3.7801  -18.7281  -52.8339 H         1 UNK         0.3000 
    241 H241       -3.4373  -17.8668  -54.8472 H         1 UNK         0.0600 
    242 H242       -6.2127  -18.3871  -54.3847 H         1 UNK         0.3800 
    243 H243       -7.1007  -17.2099  -55.3177 H         1 UNK         0.3800 
    244 H244       -2.6776  -15.5146  -55.1155 H         1 UNK         0.0800 
    245 H245       -3.2145  -15.1258  -53.5073 H         1 UNK         0.0800 
    246 H246       -1.4009  -14.7767  -51.8354 H         1 UNK         0.0800 
    247 H247       -2.0839  -16.2847  -51.2772 H         1 UNK         0.0800 
@<TRIPOS>BOND
     1    1    2 1    
     2    1  127 1    
     3    1  128 1    
     4    1  129 1    
     5    2    3 2    
     6    2    4 am   BACKBONE|DICT|INTERRES
     7    4    5 1    
     8    4  130 1    
     9    5    6 1    
    10    5   65 1    
    11    5  131 1    
    12    6    7 1    
    13    6  132 1    
    14    6  133 1    
    15    7    8 1    
    16    8    9 1    
    17    8  134 1    
    18    8  135 1    
    19    9   10 ar   
    20    9   14 ar   
    21   10   11 ar   
    22   10  136 1    
    23   11   12 ar   
    24   11  126 1    
    25   12   13 ar   
    26   12  137 1    
    27   13   14 ar   
    28   13   15 1    
    29   14  138 1    
    30   15   16 1    
    31   15  139 1    
    32   15  140 1    
    33   16   17 1    
    34   17   18 1    
    35   17  141 1    
    36   17  142 1    
    37   18   19 1    
    38   18   67 1    
    39   18  143 1    
    40   19   20 am   BACKBONE|DICT|INTERRES
    41   19  144 1    
    42   20   21 2    
    43   20   22 1    
    44   22   23 1    
    45   22   24 1    
    46   22  145 1    
    47   23  146 1    
    48   23  147 1    
    49   23  148 1    
    50   24   25 am   BACKBONE|DICT|INTERRES
    51   24  149 1    
    52   25   26 2    
    53   25   27 1    
    54   27   28 1    
    55   27   29 1    
    56   27  150 1    
    57   28  151 1    
    58   28  152 1    
    59   28  153 1    
    60   29   30 am   BACKBONE|DICT|INTERRES
    61   29  154 1    
    62   30   31 2    
    63   30   32 1    
    64   32   33 1    
    65   32   34 1    
    66   32  155 1    
    67   33  156 1    
    68   33  157 1    
    69   33  158 1    
    70   34   35 am   BACKBONE|DICT|INTERRES
    71   34  159 1    
    72   35   36 2    
    73   35   37 1    
    74   37   38 1    
    75   37   39 1    
    76   37  160 1    
    77   38  161 1    
    78   38  162 1    
    79   38  163 1    
    80   39   40 am   BACKBONE|DICT|INTERRES
    81   39  164 1    
    82   40   41 2    
    83   40   42 1    
    84   42   43 1    
    85   42   44 1    
    86   42  165 1    
    87   43  166 1    
    88   43  167 1    
    89   43  168 1    
    90   44   45 am   BACKBONE|DICT|INTERRES
    91   44  169 1    
    92   45   46 2    
    93   45   47 1    
    94   47   48 1    
    95   47   49 1    
    96   47  170 1    
    97   48  171 1    
    98   48  172 1    
    99   48  173 1    
   100   49   50 am   BACKBONE|DICT|INTERRES
   101   49  174 1    
   102   50   51 2    
   103   50   52 1    
   104   52   53 1    
   105   52   54 1    
   106   52  175 1    
   107   53  176 1    
   108   53  177 1    
   109   53  178 1    
   110   54   55 am   BACKBONE|DICT|INTERRES
   111   54  179 1    
   112   55   56 2    
   113   55   57 1    
   114   57   58 1    
   115   57   59 1    
   116   57  180 1    
   117   58  181 1    
   118   58  182 1    
   119   58  183 1    
   120   59   60 am   BACKBONE|DICT|INTERRES
   121   59  184 1    
   122   60   61 2    
   123   60   62 1    
   124   62   63 1    
   125   62   64 1    
   126   62  185 1    
   127   63  186 1    
   128   63  187 1    
   129   63  188 1    
   130   64   65 am   BACKBONE|DICT|INTERRES
   131   64  189 1    
   132   65   66 2    
   133   67   68 2    
   134   67   69 am   BACKBONE|DICT|INTERRES
   135   69   70 1    
   136   69  190 1    
   137   70   71 1    
   138   70   72 1    
   139   70  191 1    
   140   71  192 1    
   141   71  193 1    
   142   71  194 1    
   143   72   73 2    
   144   72   74 am   BACKBONE|DICT|INTERRES
   145   74   75 1    
   146   74  195 1    
   147   75   76 1    
   148   75   77 1    
   149   75  196 1    
   150   76  197 1    
   151   76  198 1    
   152   76  199 1    
   153   77   78 2    
   154   77   79 am   BACKBONE|DICT|INTERRES
   155   79   80 1    
   156   79  200 1    
   157   80   81 1    
   158   80   82 1    
   159   80  201 1    
   160   81  202 1    
   161   81  203 1    
   162   81  204 1    
   163   82   83 2    
   164   82   84 am   BACKBONE|DICT|INTERRES
   165   84   85 1    
   166   84  205 1    
   167   85   86 1    
   168   85   87 1    
   169   85  206 1    
   170   86  207 1    
   171   86  208 1    
   172   86  209 1    
   173   87   88 2    
   174   87   89 am   BACKBONE|DICT|INTERRES
   175   89   90 1    
   176   89  210 1    
   177   90   91 1    
   178   90   92 1    
   179   90  211 1    
   180   91  212 1    
   181   91  213 1    
   182   91  214 1    
   183   92   93 2    
   184   92   94 am   BACKBONE|DICT|INTERRES
   185   94   95 1    
   186   94  215 1    
   187   95   96 1    
   188   95   97 1    
   189   95  216 1    
   190   96  217 1    
   191   96  218 1    
   192   96  219 1    
   193   97   98 2    
   194   97   99 am   BACKBONE|DICT|INTERRES
   195   99  100 1    
   196   99  220 1    
   197  100  101 1    
   198  100  102 1    
   199  100  221 1    
   200  101  222 1    
   201  101  223 1    
   202  101  224 1    
   203  102  103 2    
   204  102  104 am   BACKBONE|DICT|INTERRES
   205  104  105 1    
   206  104  225 1    
   207  105  106 1    
   208  105  107 1    
   209  105  226 1    
   210  106  227 1    
   211  106  228 1    
   212  106  229 1    
   213  107  108 2    
   214  107  109 am   BACKBONE|DICT|INTERRES
   215  109  110 1    
   216  109  230 1    
   217  110  111 1    
   218  110  112 1    
   219  110  231 1    
   220  111  232 1    
   221  111  233 1    
   222  111  234 1    
   223  112  113 2    
   224  112  114 am   BACKBONE|DICT|INTERRES
   225  114  115 1    
   226  114  235 1    
   227  115  116 1    
   228  115  117 1    
   229  115  236 1    
   230  116  237 1    
   231  116  238 1    
   232  116  239 1    
   233  117  118 2    
   234  117  119 am   BACKBONE|DICT|INTERRES
   235  119  120 1    
   236  119  240 1    
   237  120  121 1    
   238  120  124 1    
   239  120  241 1    
   240  121  122 am   BACKBONE|DICT|INTERRES
   241  121  123 2    
   242  122  242 1    
   243  122  243 1    
   244  124  125 1    
   245  124  244 1    
   246  124  245 1    
   247  125  126 1    
   248  126  246 1    
   249  126  247 1    
@<TRIPOS>SUBSTRUCTURE
     1 UNK         1 GROUP             0       ****    0 ROOT    
