@<TRIPOS>MOLECULE
3R540
247   249    1
SMALL
USER_CHARGES


@<TRIPOS>ATOM
      1 CA         -2.7768  -15.9647  -44.1514 C.3       0 UNK        -0.1800 
      2 C          -2.8128  -14.9318  -45.2640 C.2       0 UNK         0.5000 
      3 O          -3.6478  -14.0280  -45.2318 O.2       0 UNK        -0.5000 
      4 N          -1.8890  -15.0367  -46.2299 N.am      1 UNK        -0.5000 
      5 CA         -1.7493  -14.1078  -47.3633 C.3       1 UNK         0.1400 
      6 C6         -0.7028  -14.6123  -48.3893 C.3       23 UNK        -0.0398 
      7 S7         -1.0718  -14.0644  -50.0899 S.3       23 UNK        -0.2404 
      8 C8         -1.5643  -15.6253  -50.8857 C.3       23 UNK        -0.0205 
      9 C9         -0.3604  -16.4806  -51.2535 C.ar      23 UNK        -0.0193 
     10 C10         0.3749  -16.1887  -52.4035 C.ar      23 UNK        -0.1150 
     11 C11         1.4592  -16.9864  -52.7736 C.ar      23 UNK        -0.0193 
     12 C12         1.8102  -18.0818  -51.9790 C.ar      23 UNK        -0.1150 
     13 C13         1.0668  -18.4120  -50.8415 C.ar      23 UNK        -0.0193 
     14 C14        -0.0060  -17.5848  -50.4738 C.ar      23 UNK        -0.1150 
     15 C15         1.4370  -19.6933  -50.0873 C.3       23 UNK        -0.0205 
     16 S16         0.2824  -20.1725  -48.7600 S.3       23 UNK        -0.2404 
     17 C17         0.4890  -21.9870  -48.6936 C.3       23 UNK        -0.0398 
     18 CA         -0.2921  -22.6727  -47.5413 C.3       11 UNK         0.1400 
     19 N           0.2855  -22.3586  -46.2295 N.am      11 UNK        -0.5000 
     20 C          -0.0472  -22.9753  -45.0857 C.2       10 UNK         0.5000 
     21 O          -0.8651  -23.8908  -45.0189 O.2       10 UNK        -0.5000 
     22 CA          0.5912  -22.4443  -43.7899 C.3       10 UNK         0.1400 
     23 CB          2.0102  -23.0027  -43.6148 C.3       10 UNK        -0.1800 
     24 N           0.6236  -20.9826  -43.7305 N.am      10 UNK        -0.5000 
     25 C          -0.4628  -20.1970  -43.7651 C.2       9 UNK         0.5000 
     26 O          -1.6129  -20.6309  -43.8277 O.2       9 UNK        -0.5000 
     27 CA         -0.2344  -18.6796  -43.7789 C.3       9 UNK         0.1400 
     28 CB         -0.0888  -18.1391  -42.3510 C.3       9 UNK        -0.1800 
     29 N           0.9518  -18.3433  -44.5653 N.am      9 UNK        -0.5000 
     30 C           0.9189  -17.8001  -45.7901 C.2       8 UNK         0.5000 
     31 O          -0.1043  -17.3366  -46.2968 O.2       8 UNK        -0.5000 
     32 CA          2.2384  -17.7523  -46.5922 C.3       8 UNK         0.1400 
     33 CB          2.6763  -16.3062  -46.8644 C.3       8 UNK        -0.1800 
     34 N           3.3498  -18.4789  -45.9729 N.am      8 UNK        -0.5000 
     35 C           3.4651  -19.8134  -45.9188 C.2       7 UNK         0.5000 
     36 O           2.6283  -20.5964  -46.3666 O.2       7 UNK        -0.5000 
     37 CA          4.6968  -20.3642  -45.1754 C.3       7 UNK         0.1400 
     38 CB          5.9012  -20.4500  -46.1243 C.3       7 UNK        -0.1800 
     39 N           5.0716  -19.5946  -43.9834 N.am      7 UNK        -0.5000 
     40 C           4.2710  -19.3294  -42.9404 C.2       6 UNK         0.5000 
     41 O           3.0828  -19.6550  -42.9034 O.2       6 UNK        -0.5000 
     42 CA          4.8789  -18.5382  -41.7648 C.3       6 UNK         0.1400 
     43 CB          6.4204  -18.5541  -41.7330 C.3       6 UNK        -0.1800 
     44 N           4.4207  -17.1533  -41.8412 N.am      6 UNK        -0.5000 
     45 C           3.3021  -16.6846  -41.2760 C.2       5 UNK         0.5000 
     46 O           2.6074  -17.3274  -40.4840 O.2       5 UNK        -0.5000 
     47 CA          2.8828  -15.2606  -41.6789 C.3       5 UNK         0.1400 
     48 CB          2.7330  -15.1382  -43.2115 C.3       5 UNK        -0.1800 
     49 N           1.6182  -14.9434  -41.0215 N.am      5 UNK        -0.5000 
     50 C           1.0295  -13.7459  -40.9861 C.2       4 UNK         0.5000 
     51 O           1.5250  -12.7212  -41.4608 O.2       4 UNK        -0.5000 
     52 CA         -0.3510  -13.6782  -40.3221 C.3       4 UNK         0.1400 
     53 CB         -0.2611  -13.1322  -38.8882 C.3       4 UNK        -0.1800 
     54 N          -1.1831  -12.8019  -41.1355 N.am      4 UNK        -0.5000 
     55 C          -2.4821  -12.9657  -41.3971 C.2       3 UNK         0.5000 
     56 O          -3.1770  -13.8359  -40.8718 O.2       3 UNK        -0.5000 
     57 CA         -3.1095  -12.0366  -42.4556 C.3       3 UNK         0.1400 
     58 CB         -3.5690  -10.7008  -41.8401 C.3       3 UNK        -0.1800 
     59 N          -2.2677  -11.8439  -43.6469 N.am      3 UNK        -0.5000 
     60 C          -1.1223  -11.1554  -43.7780 C.2       2 UNK         0.5000 
     61 O          -0.6220  -10.4964  -42.8663 O.2       2 UNK        -0.5000 
     62 CA         -0.3908  -11.2619  -45.1334 C.3       2 UNK         0.1400 
     63 CB          1.1375  -11.1691  -44.9725 C.3       2 UNK        -0.1800 
     64 N          -0.7099  -12.5238  -45.8035 N.am      2 UNK        -0.5000 
     65 C          -1.4426  -12.6573  -46.9169 C.2       1 UNK         0.5000 
     66 O          -1.9005  -11.7080  -47.5539 O.2       1 UNK        -0.5000 
     67 C          -1.8096  -22.3728  -47.6010 C.2       11 UNK         0.5000 
     68 O          -2.5685  -23.1208  -48.2254 O.2       11 UNK        -0.5000 
     69 N          -2.2198  -21.2811  -46.9387 N.am      12 UNK        -0.5000 
     70 CA         -3.6011  -20.8238  -46.8456 C.3       12 UNK         0.1400 
     71 CB         -3.6436  -19.3779  -46.3280 C.3       12 UNK        -0.1800 
     72 C          -4.4415  -21.7688  -45.9746 C.2       12 UNK         0.5000 
     73 O          -5.5327  -22.1638  -46.3850 O.2       12 UNK        -0.5000 
     74 N          -3.8864  -22.1594  -44.8200 N.am      13 UNK        -0.5000 
     75 CA         -4.4677  -23.1412  -43.9067 C.3       13 UNK         0.1400 
     76 CB         -3.6405  -23.1765  -42.6126 C.3       13 UNK        -0.1800 
     77 C          -4.5736  -24.5488  -44.5244 C.2       13 UNK         0.5000 
     78 O          -5.5621  -25.2415  -44.2796 O.2       13 UNK        -0.5000 
     79 N          -3.5606  -24.9424  -45.3094 N.am      14 UNK        -0.5000 
     80 CA         -3.4808  -26.2404  -45.9737 C.3       14 UNK         0.1400 
     81 CB         -2.0595  -26.4679  -46.5132 C.3       14 UNK        -0.1800 
     82 C          -4.5201  -26.4186  -47.0928 C.2       14 UNK         0.5000 
     83 O          -5.2552  -27.4074  -47.0714 O.2       14 UNK        -0.5000 
     84 N          -4.5469  -25.4924  -48.0628 N.am      15 UNK        -0.5000 
     85 CA         -5.3266  -25.6573  -49.2940 C.3       15 UNK         0.1400 
     86 CB         -4.5884  -26.6210  -50.2501 C.3       15 UNK        -0.1800 
     87 C          -5.6681  -24.3224  -49.9766 C.2       15 UNK         0.5000 
     88 O          -5.7969  -24.2922  -51.2022 O.2       15 UNK        -0.5000 
     89 N          -5.7853  -23.2300  -49.2054 N.am      16 UNK        -0.5000 
     90 CA         -6.0837  -21.8717  -49.6880 C.3       16 UNK         0.1400 
     91 CB         -7.5315  -21.7897  -50.2176 C.3       16 UNK        -0.1800 
     92 C          -5.0444  -21.3612  -50.7119 C.2       16 UNK         0.5000 
     93 O          -5.4130  -20.7242  -51.6991 O.2       16 UNK        -0.5000 
     94 N          -3.7671  -21.7083  -50.4861 N.am      17 UNK        -0.5000 
     95 CA         -2.6238  -21.4844  -51.3777 C.3       17 UNK         0.1400 
     96 CB         -2.3235  -19.9802  -51.5280 C.3       17 UNK        -0.1800 
     97 C          -2.7871  -22.2110  -52.7284 C.2       17 UNK         0.5000 
     98 O          -2.4631  -21.6518  -53.7777 O.2       17 UNK        -0.5000 
     99 N          -3.3115  -23.4440  -52.6716 N.am      18 UNK        -0.5000 
    100 CA        -3.7029  -24.2970  -53.7999 C.3       18 UNK         0.1400 
    101 CB        -2.4693  -24.7443  -54.6110 C.3       18 UNK        -0.1800 
    102 C         -4.7978  -23.6337  -54.6611 C.2       18 UNK         0.5000 
    103 O         -4.7027  -23.6241  -55.8886 O.2       18 UNK        -0.5000 
    104 N         -5.8019  -23.0654  -53.9767 N.am      19 UNK        -0.5000 
    105 CA        -6.8815  -22.2302  -54.5121 C.3       19 UNK         0.1400 
    106 CB        -7.8346  -23.0612  -55.3962 C.3       19 UNK        -0.1800 
    107 C         -6.3424  -20.9623  -55.2110 C.2       19 UNK         0.5000 
    108 O         -6.6740  -20.6983  -56.3685 O.2       19 UNK        -0.5000 
    109 N         -5.5148  -20.2073  -54.4733 N.am      20 UNK        -0.5000 
    110 CA        -4.8685  -18.9471  -54.8548 C.3       20 UNK         0.1400 
    111 CB        -5.9171  -17.8234  -54.9898 C.3       20 UNK        -0.1800 
    112 C         -3.9489  -19.0717  -56.0894 C.2       20 UNK         0.5000 
    113 O         -3.9686  -18.2053  -56.9661 O.2       20 UNK        -0.5000 
    114 N         -3.1524  -20.1463  -56.1282 N.am      21 UNK        -0.5000 
    115 CA        -2.1938  -20.4537  -57.1937 C.3       21 UNK         0.1400 
    116 CB        -2.5685  -21.8106  -57.8123 C.3       21 UNK        -0.1800 
    117 C         -0.7392  -20.4586  -56.6805 C.2       21 UNK         0.5000 
    118 O          0.1578  -20.8694  -57.4184 O.2       21 UNK        -0.5000 
    119 N         -0.5312  -20.0182  -55.4323 N.am      22 UNK        -0.5000 
    120 CA         0.7406  -20.0462  -54.6891 C.3       22 UNK         0.1400 
    121 C          1.2209  -21.4806  -54.3102 C.2       22 UNK         0.5000 
    122 N          0.3262  -22.4519  -54.1864 N.am      22 UNK        -0.7600 
    123 O          2.4071  -21.7182  -54.0990 O.2       22 UNK        -0.5000 
    124 C124        1.8672  -19.1796  -55.3254 C.3       23 UNK        -0.0398 
    125 S125        1.4168  -17.4190  -55.5079 S.3       23 UNK        -0.2404 
    126 C126        2.2249  -16.6781  -54.0509 C.3       23 UNK        -0.0205 
    127 H127       -3.4569  -15.6883  -43.3452 H         1 UNK         0.0600 
    128 H128       -1.7733  -16.0335  -43.7330 H         1 UNK         0.0600 
    129 H129       -3.0769  -16.9406  -44.5306 H         1 UNK         0.0600 
    130 H130       -1.2455  -15.8260  -46.2191 H         1 UNK         0.3000 
    131 H131       -2.7263  -14.0904  -47.8515 H         1 UNK         0.0600 
    132 H132       -0.6625  -15.7012  -48.3810 H         1 UNK         0.0800 
    133 H133        0.3030  -14.2815  -48.1278 H         1 UNK         0.0800 
    134 H134       -2.1278  -15.3934  -51.7907 H         1 UNK         0.0800 
    135 H135       -2.2496  -16.1732  -50.2368 H         1 UNK         0.0800 
    136 H136        0.0938  -15.3456  -53.0192 H         1 UNK         0.1150 
    137 H137        2.6402  -18.7090  -52.2731 H         1 UNK         0.1150 
    138 H138       -0.5967  -17.8045  -49.5974 H         1 UNK         0.1150 
    139 H139        1.4912  -20.5091  -50.8100 H         1 UNK         0.0800 
    140 H140        2.4352  -19.5865  -49.6608 H         1 UNK         0.0800 
    141 H141        0.1835  -22.4071  -49.6524 H         1 UNK         0.0800 
    142 H142        1.5530  -22.2095  -48.5995 H         1 UNK         0.0800 
    143 H143       -0.1839  -23.7504  -47.6793 H         1 UNK         0.0600 
    144 H144        0.9925  -21.6273  -46.2117 H         1 UNK         0.3000 
    145 H145       -0.0166  -22.7919  -42.9520 H         1 UNK         0.0600 
    146 H146        2.4790  -22.6217  -42.7072 H         1 UNK         0.0600 
    147 H147        2.6485  -22.7450  -44.4590 H         1 UNK         0.0600 
    148 H148        1.9917  -24.0907  -43.5413 H         1 UNK         0.0600 
    149 H149        1.5354  -20.5546  -43.6076 H         1 UNK         0.3000 
    150 H150       -1.1235  -18.2340  -44.2226 H         1 UNK         0.0600 
    151 H151       -0.9950  -18.3211  -41.7722 H         1 UNK         0.0600 
    152 H152        0.0875  -17.0641  -42.3517 H         1 UNK         0.0600 
    153 H153        0.7369  -18.6179  -41.8248 H         1 UNK         0.0600 
    154 H154        1.8351  -18.6871  -44.2078 H         1 UNK         0.3000 
    155 H155        2.0358  -18.2143  -47.5583 H         1 UNK         0.0600 
    156 H156        1.9011  -15.7608  -47.3999 H         1 UNK         0.0600 
    157 H157        3.5723  -16.2766  -47.4846 H         1 UNK         0.0600 
    158 H158        2.8860  -15.7622  -45.9456 H         1 UNK         0.0600 
    159 H159        4.0821  -17.9204  -45.5604 H         1 UNK         0.3000 
    160 H160        4.4579  -21.3758  -44.8454 H         1 UNK         0.0600 
    161 H161        6.2228  -19.4628  -46.4585 H         1 UNK         0.0600 
    162 H162        5.6576  -21.0344  -47.0128 H         1 UNK         0.0600 
    163 H163        6.7501  -20.9348  -45.6419 H         1 UNK         0.0600 
    164 H164        6.0311  -19.2838  -43.9374 H         1 UNK         0.3000 
    165 H165        4.5218  -19.0039  -40.8438 H         1 UNK         0.0600 
    166 H166        6.7915  -18.0625  -40.8335 H         1 UNK         0.0600 
    167 H167        6.8040  -19.5753  -41.7188 H         1 UNK         0.0600 
    168 H168        6.8593  -18.0407  -42.5893 H         1 UNK         0.0600 
    169 H169        4.9319  -16.5521  -42.4708 H         1 UNK         0.3000 
    170 H170        3.6495  -14.5686  -41.3254 H         1 UNK         0.0600 
    171 H171        1.9720  -15.8195  -43.5915 H         1 UNK         0.0600 
    172 H172        2.4534  -14.1295  -43.5129 H         1 UNK         0.0600 
    173 H173        3.6685  -15.3640  -43.7231 H         1 UNK         0.0600 
    174 H174        1.1987  -15.7398  -40.5560 H         1 UNK         0.3000 
    175 H175       -0.7799  -14.6826  -40.3007 H         1 UNK         0.0600 
    176 H176        0.1637  -12.1278  -38.8671 H         1 UNK         0.0600 
    177 H177       -1.2451  -13.0895  -38.4211 H         1 UNK         0.0600 
    178 H178        0.3681  -13.7703  -38.2666 H         1 UNK         0.0600 
    179 H179       -0.6807  -12.0633  -41.6220 H         1 UNK         0.3000 
    180 H180       -4.0042  -12.5448  -42.8190 H         1 UNK         0.0600 
    181 H181       -2.7442  -10.1493  -41.3889 H         1 UNK         0.0600 
    182 H182       -4.3075  -10.8724  -41.0561 H         1 UNK         0.0600 
    183 H183       -4.0334  -10.0599  -42.5895 H         1 UNK         0.0600 
    184 H184       -2.5827  -12.3723  -44.4530 H         1 UNK         0.3000 
    185 H185       -0.7193  -10.4130  -45.7359 H         1 UNK         0.0600 
    186 H186        1.5200  -11.9495  -44.3136 H         1 UNK         0.0600 
    187 H187        1.6418  -11.2646  -45.9342 H         1 UNK         0.0600 
    188 H188        1.4316  -10.2082  -44.5486 H         1 UNK         0.0600 
    189 H189       -0.4024  -13.3646  -45.3360 H         1 UNK         0.3000 
    190 H190       -1.5276  -20.7383  -46.4438 H         1 UNK         0.3000 
    191 H191       -4.0154  -20.8217  -47.8517 H         1 UNK         0.0600 
    192 H192       -3.0302  -18.7187  -46.9434 H         1 UNK         0.0600 
    193 H193       -3.2897  -19.3007  -45.3010 H         1 UNK         0.0600 
    194 H194       -4.6624  -18.9893  -46.3498 H         1 UNK         0.0600 
    195 H195       -2.9953  -21.7535  -44.5460 H         1 UNK         0.3000 
    196 H196       -5.4780  -22.8098  -43.6581 H         1 UNK         0.0600 
    197 H197       -3.6182  -22.1979  -42.1326 H         1 UNK         0.0600 
    198 H198       -2.6097  -23.4777  -42.8027 H         1 UNK         0.0600 
    199 H199       -4.0637  -23.8820  -41.8965 H         1 UNK         0.0600 
    200 H200       -2.7451  -24.3429  -45.3896 H         1 UNK         0.3000 
    201 H201       -3.6735  -27.0092  -45.2223 H         1 UNK         0.0600 
    202 H202       -1.3304  -26.4869  -45.7032 H         1 UNK         0.0600 
    203 H203       -1.7621  -25.6871  -47.2135 H         1 UNK         0.0600 
    204 H204       -1.9864  -27.4228  -47.0352 H         1 UNK         0.0600 
    205 H205       -3.9072  -24.7047  -48.0238 H         1 UNK         0.3000 
    206 H206       -6.2919  -26.1016  -49.0427 H         1 UNK         0.0600 
    207 H207       -4.4147  -27.5918  -49.7864 H         1 UNK         0.0600 
    208 H208       -3.6212  -26.2181  -50.5524 H         1 UNK         0.0600 
    209 H209       -5.1674  -26.8056  -51.1559 H         1 UNK         0.0600 
    210 H210       -5.6773  -23.3185  -48.2012 H         1 UNK         0.3000 
    211 H211       -6.0254  -21.2043  -48.8296 H         1 UNK         0.0600 
    212 H212       -7.6731  -22.3876  -51.1181 H         1 UNK         0.0600 
    213 H213       -7.8001  -20.7617  -50.4639 H         1 UNK         0.0600 
    214 H214       -8.2432  -22.1383  -49.4694 H         1 UNK         0.0600 
    215 H215       -3.5603  -22.2580  -49.6572 H         1 UNK         0.3000 
    216 H216       -1.7626  -21.9426  -50.8928 H         1 UNK         0.0600 
    217 H217       -1.3877  -19.8205  -52.0639 H         1 UNK         0.0600 
    218 H218       -2.2248  -19.5043  -50.5529 H         1 UNK         0.0600 
    219 H219       -3.1069  -19.4570  -52.0742 H         1 UNK         0.0600 
    220 H220       -3.6063  -23.7823  -51.7666 H         1 UNK         0.3000 
    221 H221       -4.1539  -25.1918  -53.3683 H         1 UNK         0.0600 
    222 H222       -1.9971  -23.9109  -55.1296 H         1 UNK         0.0600 
    223 H223       -1.7214  -25.2071  -53.9676 H         1 UNK         0.0600 
    224 H224       -2.7476  -25.4798  -55.3665 H         1 UNK         0.0600 
    225 H225       -5.7901  -23.1739  -52.9679 H         1 UNK         0.3000 
    226 H226       -7.4547  -21.8836  -53.6510 H         1 UNK         0.0600 
    227 H227       -8.2146  -23.9290  -54.8571 H         1 UNK         0.0600 
    228 H228       -8.6960  -22.4672  -55.7035 H         1 UNK         0.0600 
    229 H229       -7.3447  -23.4175  -56.3027 H         1 UNK         0.0600 
    230 H230       -5.3458  -20.5017  -53.5127 H         1 UNK         0.3000 
    231 H231       -4.2157  -18.6801  -54.0237 H         1 UNK         0.0600 
    232 H232       -5.4372  -16.8566  -55.1462 H         1 UNK         0.0600 
    233 H233       -6.5229  -17.7406  -54.0874 H         1 UNK         0.0600 
    234 H234       -6.5893  -17.9953  -55.8309 H         1 UNK         0.0600 
    235 H235       -3.1709  -20.7995  -55.3487 H         1 UNK         0.3000 
    236 H236       -2.2417  -19.7002  -57.9818 H         1 UNK         0.0600 
    237 H237       -2.4481  -22.6227  -57.0958 H         1 UNK         0.0600 
    238 H238       -3.6045  -21.8168  -58.1520 H         1 UNK         0.0600 
    239 H239       -1.9419  -22.0379  -58.6754 H         1 UNK         0.0600 
    240 H240       -1.3405  -19.7365  -54.8992 H         1 UNK         0.3000 
    241 H241        0.4957  -19.5982  -53.7287 H         1 UNK         0.0600 
    242 H242        0.6321  -23.3804  -53.9452 H         1 UNK         0.3800 
    243 H243       -0.6607  -22.2483  -54.2974 H         1 UNK         0.3800 
    244 H244        2.1381  -19.5671  -56.3078 H         1 UNK         0.0800 
    245 H245        2.7796  -19.2374  -54.7309 H         1 UNK         0.0800 
    246 H246        2.2770  -15.5974  -54.1914 H         1 UNK         0.0800 
    247 H247        3.2577  -17.0218  -53.9767 H         1 UNK         0.0800 
@<TRIPOS>BOND
     1    1    2 1    
     2    1  127 1    
     3    1  128 1    
     4    1  129 1    
     5    2    3 2    
     6    2    4 am   BACKBONE|DICT|INTERRES
     7    4    5 1    
     8    4  130 1    
     9    5    6 1    
    10    5   65 1    
    11    5  131 1    
    12    6    7 1    
    13    6  132 1    
    14    6  133 1    
    15    7    8 1    
    16    8    9 1    
    17    8  134 1    
    18    8  135 1    
    19    9   10 ar   
    20    9   14 ar   
    21   10   11 ar   
    22   10  136 1    
    23   11   12 ar   
    24   11  126 1    
    25   12   13 ar   
    26   12  137 1    
    27   13   14 ar   
    28   13   15 1    
    29   14  138 1    
    30   15   16 1    
    31   15  139 1    
    32   15  140 1    
    33   16   17 1    
    34   17   18 1    
    35   17  141 1    
    36   17  142 1    
    37   18   19 1    
    38   18   67 1    
    39   18  143 1    
    40   19   20 am   BACKBONE|DICT|INTERRES
    41   19  144 1    
    42   20   21 2    
    43   20   22 1    
    44   22   23 1    
    45   22   24 1    
    46   22  145 1    
    47   23  146 1    
    48   23  147 1    
    49   23  148 1    
    50   24   25 am   BACKBONE|DICT|INTERRES
    51   24  149 1    
    52   25   26 2    
    53   25   27 1    
    54   27   28 1    
    55   27   29 1    
    56   27  150 1    
    57   28  151 1    
    58   28  152 1    
    59   28  153 1    
    60   29   30 am   BACKBONE|DICT|INTERRES
    61   29  154 1    
    62   30   31 2    
    63   30   32 1    
    64   32   33 1    
    65   32   34 1    
    66   32  155 1    
    67   33  156 1    
    68   33  157 1    
    69   33  158 1    
    70   34   35 am   BACKBONE|DICT|INTERRES
    71   34  159 1    
    72   35   36 2    
    73   35   37 1    
    74   37   38 1    
    75   37   39 1    
    76   37  160 1    
    77   38  161 1    
    78   38  162 1    
    79   38  163 1    
    80   39   40 am   BACKBONE|DICT|INTERRES
    81   39  164 1    
    82   40   41 2    
    83   40   42 1    
    84   42   43 1    
    85   42   44 1    
    86   42  165 1    
    87   43  166 1    
    88   43  167 1    
    89   43  168 1    
    90   44   45 am   BACKBONE|DICT|INTERRES
    91   44  169 1    
    92   45   46 2    
    93   45   47 1    
    94   47   48 1    
    95   47   49 1    
    96   47  170 1    
    97   48  171 1    
    98   48  172 1    
    99   48  173 1    
   100   49   50 am   BACKBONE|DICT|INTERRES
   101   49  174 1    
   102   50   51 2    
   103   50   52 1    
   104   52   53 1    
   105   52   54 1    
   106   52  175 1    
   107   53  176 1    
   108   53  177 1    
   109   53  178 1    
   110   54   55 am   BACKBONE|DICT|INTERRES
   111   54  179 1    
   112   55   56 2    
   113   55   57 1    
   114   57   58 1    
   115   57   59 1    
   116   57  180 1    
   117   58  181 1    
   118   58  182 1    
   119   58  183 1    
   120   59   60 am   BACKBONE|DICT|INTERRES
   121   59  184 1    
   122   60   61 2    
   123   60   62 1    
   124   62   63 1    
   125   62   64 1    
   126   62  185 1    
   127   63  186 1    
   128   63  187 1    
   129   63  188 1    
   130   64   65 am   BACKBONE|DICT|INTERRES
   131   64  189 1    
   132   65   66 2    
   133   67   68 2    
   134   67   69 am   BACKBONE|DICT|INTERRES
   135   69   70 1    
   136   69  190 1    
   137   70   71 1    
   138   70   72 1    
   139   70  191 1    
   140   71  192 1    
   141   71  193 1    
   142   71  194 1    
   143   72   73 2    
   144   72   74 am   BACKBONE|DICT|INTERRES
   145   74   75 1    
   146   74  195 1    
   147   75   76 1    
   148   75   77 1    
   149   75  196 1    
   150   76  197 1    
   151   76  198 1    
   152   76  199 1    
   153   77   78 2    
   154   77   79 am   BACKBONE|DICT|INTERRES
   155   79   80 1    
   156   79  200 1    
   157   80   81 1    
   158   80   82 1    
   159   80  201 1    
   160   81  202 1    
   161   81  203 1    
   162   81  204 1    
   163   82   83 2    
   164   82   84 am   BACKBONE|DICT|INTERRES
   165   84   85 1    
   166   84  205 1    
   167   85   86 1    
   168   85   87 1    
   169   85  206 1    
   170   86  207 1    
   171   86  208 1    
   172   86  209 1    
   173   87   88 2    
   174   87   89 am   BACKBONE|DICT|INTERRES
   175   89   90 1    
   176   89  210 1    
   177   90   91 1    
   178   90   92 1    
   179   90  211 1    
   180   91  212 1    
   181   91  213 1    
   182   91  214 1    
   183   92   93 2    
   184   92   94 am   BACKBONE|DICT|INTERRES
   185   94   95 1    
   186   94  215 1    
   187   95   96 1    
   188   95   97 1    
   189   95  216 1    
   190   96  217 1    
   191   96  218 1    
   192   96  219 1    
   193   97   98 2    
   194   97   99 am   BACKBONE|DICT|INTERRES
   195   99  100 1    
   196   99  220 1    
   197  100  101 1    
   198  100  102 1    
   199  100  221 1    
   200  101  222 1    
   201  101  223 1    
   202  101  224 1    
   203  102  103 2    
   204  102  104 am   BACKBONE|DICT|INTERRES
   205  104  105 1    
   206  104  225 1    
   207  105  106 1    
   208  105  107 1    
   209  105  226 1    
   210  106  227 1    
   211  106  228 1    
   212  106  229 1    
   213  107  108 2    
   214  107  109 am   BACKBONE|DICT|INTERRES
   215  109  110 1    
   216  109  230 1    
   217  110  111 1    
   218  110  112 1    
   219  110  231 1    
   220  111  232 1    
   221  111  233 1    
   222  111  234 1    
   223  112  113 2    
   224  112  114 am   BACKBONE|DICT|INTERRES
   225  114  115 1    
   226  114  235 1    
   227  115  116 1    
   228  115  117 1    
   229  115  236 1    
   230  116  237 1    
   231  116  238 1    
   232  116  239 1    
   233  117  118 2    
   234  117  119 am   BACKBONE|DICT|INTERRES
   235  119  120 1    
   236  119  240 1    
   237  120  121 1    
   238  120  124 1    
   239  120  241 1    
   240  121  122 am   BACKBONE|DICT|INTERRES
   241  121  123 2    
   242  122  242 1    
   243  122  243 1    
   244  124  125 1    
   245  124  244 1    
   246  124  245 1    
   247  125  126 1    
   248  126  246 1    
   249  126  247 1    
@<TRIPOS>SUBSTRUCTURE
     1 UNK         1 GROUP             0       ****    0 ROOT    
