@<TRIPOS>MOLECULE
3R540
247   249    1
SMALL
USER_CHARGES


@<TRIPOS>ATOM
      1 CA          0.4952  -17.3306  -52.4506 C.3       0 UNK        -0.1800 
      2 C           0.8456  -16.6190  -51.1523 C.2       0 UNK         0.5000 
      3 O           1.6448  -17.1317  -50.3696 O.2       0 UNK        -0.5000 
      4 N           0.2943  -15.4151  -50.9381 N.am      1 UNK        -0.5000 
      5 CA          0.5266  -14.5745  -49.7501 C.3       1 UNK         0.1400 
      6 C6         -0.5487  -13.4715  -49.5665 C.3       23 UNK        -0.0398 
      7 S7         -2.2695  -14.0898  -49.5396 S.3       23 UNK        -0.2404 
      8 C8         -2.6489  -14.2079  -47.7561 C.3       23 UNK        -0.0205 
      9 C9         -2.5796  -15.6495  -47.2776 C.ar      23 UNK        -0.0193 
     10 C10        -3.7344  -16.4371  -47.2211 C.ar      23 UNK        -0.1150 
     11 C11        -3.6575  -17.7848  -46.8527 C.ar      23 UNK        -0.0193 
     12 C12        -2.4118  -18.3440  -46.5535 C.ar      23 UNK        -0.1150 
     13 C13        -1.2522  -17.5643  -46.6049 C.ar      23 UNK        -0.0193 
     14 C14        -1.3500  -16.2115  -46.9336 C.ar      23 UNK        -0.1150 
     15 C15         0.1158  -18.1935  -46.4020 C.3       23 UNK        -0.0205 
     16 S16         0.2790  -19.0671  -44.8141 S.3       23 UNK        -0.2404 
     17 C17         1.6874  -20.1529  -45.2253 C.3       23 UNK        -0.0398 
     18 CA          1.3358  -21.6200  -45.5859 C.3       11 UNK         0.1400 
     19 N           1.0854  -22.4598  -44.4124 N.am      11 UNK        -0.5000 
     20 C           1.2490  -23.7911  -44.4183 C.2       10 UNK         0.5000 
     21 O           1.6210  -24.4271  -45.4056 O.2       10 UNK        -0.5000 
     22 CA          0.9158  -24.5401  -43.1164 C.3       10 UNK         0.1400 
     23 CB          2.0514  -24.3873  -42.0932 C.3       10 UNK        -0.1800 
     24 N          -0.3424  -24.0978  -42.5171 N.am      10 UNK        -0.5000 
     25 C          -1.5499  -24.2825  -43.0682 C.2       9 UNK         0.5000 
     26 O          -1.7318  -24.8505  -44.1444 O.2       9 UNK        -0.5000 
     27 CA         -2.7540  -23.6999  -42.3041 C.3       9 UNK         0.1400 
     28 CB         -3.2683  -24.7043  -41.2621 C.3       9 UNK        -0.1800 
     29 N          -2.4709  -22.4194  -41.6474 N.am      9 UNK        -0.5000 
     30 C          -2.0932  -21.3082  -42.2913 C.2       8 UNK         0.5000 
     31 O          -1.8924  -21.2592  -43.5075 O.2       8 UNK        -0.5000 
     32 CA         -1.8726  -20.0553  -41.4358 C.3       8 UNK         0.1400 
     33 CB         -0.4796  -20.0766  -40.7823 C.3       8 UNK        -0.1800 
     34 N          -1.9916  -18.8948  -42.3069 N.am      8 UNK        -0.5000 
     35 C          -2.3011  -17.6521  -41.9352 C.2       7 UNK         0.5000 
     36 O          -2.5295  -17.3152  -40.7704 O.2       7 UNK        -0.5000 
     37 CA         -2.4146  -16.6214  -43.0730 C.3       7 UNK         0.1400 
     38 CB         -3.8778  -16.4668  -43.5152 C.3       7 UNK        -0.1800 
     39 N          -1.8922  -15.3101  -42.6958 N.am      7 UNK        -0.5000 
     40 C          -0.6052  -15.0495  -42.4397 C.2       6 UNK         0.5000 
     41 O           0.2959  -15.8891  -42.4867 O.2       6 UNK        -0.5000 
     42 CA         -0.2584  -13.5894  -42.1049 C.3       6 UNK         0.1400 
     43 CB          0.5282  -13.4841  -40.7879 C.3       6 UNK        -0.1800 
     44 N           0.5377  -13.0187  -43.1865 N.am      6 UNK        -0.5000 
     45 C           0.0485  -12.6351  -44.3733 C.2       5 UNK         0.5000 
     46 O          -1.1531  -12.6065  -44.6411 O.2       5 UNK        -0.5000 
     47 CA          1.0728  -12.2079  -45.4413 C.3       5 UNK         0.1400 
     48 CB          1.2410  -10.6810  -45.4489 C.3       5 UNK        -0.1800 
     49 N           2.3861  -12.8346  -45.2649 N.am      5 UNK        -0.5000 
     50 C           2.6455  -14.1183  -45.5464 C.2       4 UNK         0.5000 
     51 O           1.7925  -14.9065  -45.9545 O.2       4 UNK        -0.5000 
     52 CA          4.1003  -14.5767  -45.3280 C.3       4 UNK         0.1400 
     53 CB          4.2735  -15.2821  -43.9685 C.3       4 UNK        -0.1800 
     54 N           4.5954  -15.3805  -46.4510 N.am      4 UNK        -0.5000 
     55 C           4.2887  -16.6388  -46.7990 C.2       3 UNK         0.5000 
     56 O           3.6538  -17.4218  -46.0928 O.2       3 UNK        -0.5000 
     57 CA          4.7788  -17.0867  -48.1946 C.3       3 UNK         0.1400 
     58 CB          4.2942  -18.5011  -48.5666 C.3       3 UNK        -0.1800 
     59 N           4.3480  -16.1531  -49.2395 N.am      3 UNK        -0.5000 
     60 C           4.9422  -14.9870  -49.5398 C.2       2 UNK         0.5000 
     61 O           5.9658  -14.5896  -48.9821 O.2       2 UNK        -0.5000 
     62 CA          4.2615  -14.0903  -50.5953 C.3       2 UNK         0.1400 
     63 CB          4.8609  -14.3442  -51.9864 C.3       2 UNK        -0.1800 
     64 N           2.8161  -14.3018  -50.6523 N.am      2 UNK        -0.5000 
     65 C           1.9543  -13.9756  -49.6784 C.2       1 UNK         0.5000 
     66 O           2.2619  -13.2483  -48.7347 O.2       1 UNK        -0.5000 
     67 C           0.2139  -21.7723  -46.6364 C.2       11 UNK         0.5000 
     68 O           0.5060  -21.7629  -47.8315 O.2       11 UNK        -0.5000 
     69 N          -1.0337  -21.9720  -46.1810 N.am      12 UNK        -0.5000 
     70 CA         -2.1851  -22.2841  -47.0272 C.3       12 UNK         0.1400 
     71 CB         -3.4686  -22.3070  -46.1849 C.3       12 UNK        -0.1800 
     72 C          -2.0055  -23.6146  -47.7751 C.2       12 UNK         0.5000 
     73 O          -2.2861  -23.6727  -48.9705 O.2       12 UNK        -0.5000 
     74 N          -1.4939  -24.6406  -47.0787 N.am      13 UNK        -0.5000 
     75 CA         -1.1388  -25.9370  -47.6561 C.3       13 UNK         0.1400 
     76 CB         -0.7807  -26.9274  -46.5385 C.3       13 UNK        -0.1800 
     77 C          -0.0004  -25.8360  -48.6875 C.2       13 UNK         0.5000 
     78 O          -0.0915  -26.4621  -49.7433 O.2       13 UNK        -0.5000 
     79 N           1.0217  -25.0170  -48.3962 N.am      14 UNK        -0.5000 
     80 CA          2.1321  -24.7220  -49.3087 C.3       14 UNK         0.1400 
     81 CB          3.2175  -23.9296  -48.5645 C.3       14 UNK        -0.1800 
     82 C           1.6813  -23.9773  -50.5825 C.2       14 UNK         0.5000 
     83 O           2.1811  -24.2698  -51.6689 O.2       14 UNK        -0.5000 
     84 N           0.7129  -23.0644  -50.4311 N.am      15 UNK        -0.5000 
     85 CA          0.0410  -22.3452  -51.5165 C.3       15 UNK         0.1400 
     86 CB         -0.5958  -21.0738  -50.9303 C.3       15 UNK        -0.1800 
     87 C          -1.0235  -23.1885  -52.2536 C.2       15 UNK         0.5000 
     88 O          -1.6064  -22.7019  -53.2248 O.2       15 UNK        -0.5000 
     89 N          -1.2955  -24.4080  -51.7603 N.am      16 UNK        -0.5000 
     90 CA         -2.3319  -25.3484  -52.2041 C.3       16 UNK         0.1400 
     91 CB         -1.9780  -25.9210  -53.5917 C.3       16 UNK        -0.1800 
     92 C          -3.7530  -24.7454  -52.1511 C.2       16 UNK         0.5000 
     93 O          -4.5974  -25.0798  -52.9842 O.2       16 UNK        -0.5000 
     94 N          -3.9671  -23.8252  -51.1987 N.am      17 UNK        -0.5000 
     95 CA         -5.1103  -22.9336  -50.9759 C.3       17 UNK         0.1400 
     96 CB         -6.3769  -23.7296  -50.6152 C.3       17 UNK        -0.1800 
     97 C          -5.3913  -21.9386  -52.1205 C.2       17 UNK         0.5000 
     98 O          -5.6800  -20.7745  -51.8470 O.2       17 UNK        -0.5000 
     99 N          -5.3212  -22.4072  -53.3703 N.am      18 UNK        -0.5000 
    100 CA        -5.6963  -21.6940  -54.5868 C.3       18 UNK         0.1400 
    101 CB        -5.6702  -22.6753  -55.7683 C.3       18 UNK        -0.1800 
    102 C         -4.8341  -20.4595  -54.8946 C.2       18 UNK         0.5000 
    103 O         -5.3875  -19.4411  -55.3098 O.2       18 UNK        -0.5000 
    104 N         -3.5101  -20.5531  -54.6930 N.am      19 UNK        -0.5000 
    105 CA        -2.5745  -19.4723  -55.0290 C.3       19 UNK         0.1400 
    106 CB        -1.1344  -20.0066  -55.0459 C.3       19 UNK        -0.1800 
    107 C         -2.6921  -18.2643  -54.0831 C.2       19 UNK         0.5000 
    108 O         -2.5277  -17.1262  -54.5225 O.2       19 UNK        -0.5000 
    109 N         -2.9870  -18.5405  -52.8077 N.am      20 UNK        -0.5000 
    110 CA        -3.1994  -17.5391  -51.7625 C.3       20 UNK         0.1400 
    111 CB        -2.6549  -18.1048  -50.4449 C.3       20 UNK        -0.1800 
    112 C         -4.6794  -17.1183  -51.6330 C.2       20 UNK         0.5000 
    113 O         -4.9711  -16.1568  -50.9224 O.2       20 UNK        -0.5000 
    114 N         -5.5783  -17.8300  -52.3310 N.am      21 UNK        -0.5000 
    115 CA        -7.0345  -17.6656  -52.3583 C.3       21 UNK         0.1400 
    116 CB        -7.4235  -16.3292  -53.0241 C.3       21 UNK        -0.1800 
    117 C         -7.6783  -17.8715  -50.9708 C.2       21 UNK         0.5000 
    118 O         -8.4986  -17.0606  -50.5356 O.2       21 UNK        -0.5000 
    119 N         -7.2813  -18.9590  -50.2986 N.am      22 UNK        -0.5000 
    120 CA        -7.7261  -19.3187  -48.9400 C.3       22 UNK         0.1400 
    121 C         -9.1775  -19.8764  -48.8540 C.2       22 UNK         0.5000 
    122 N         -9.8308  -20.2132  -49.9595 N.am      22 UNK        -0.7600 
    123 O         -9.7233  -20.0019  -47.7612 O.2       22 UNK        -0.5000 
    124 C124       -6.7372  -20.2777  -48.2247 C.3       23 UNK        -0.0398 
    125 S125       -5.0074  -19.7104  -48.2856 S.3       23 UNK        -0.2404 
    126 C126       -4.9114  -18.6448  -46.8159 C.3       23 UNK        -0.0205 
    127 H127       -0.2001  -16.7477  -53.0537 H         1 UNK         0.0600 
    128 H128        1.3962  -17.4983  -53.0402 H         1 UNK         0.0600 
    129 H129        0.0426  -18.2992  -52.2430 H         1 UNK         0.0600 
    130 H130       -0.3497  -15.0344  -51.6168 H         1 UNK         0.3000 
    131 H131        0.4621  -15.2380  -48.8892 H         1 UNK         0.0600 
    132 H132       -0.4759  -12.7473  -50.3795 H         1 UNK         0.0800 
    133 H133       -0.3679  -12.9046  -48.6523 H         1 UNK         0.0800 
    134 H134       -3.6508  -13.8111  -47.5868 H         1 UNK         0.0800 
    135 H135       -1.9754  -13.5834  -47.1679 H         1 UNK         0.0800 
    136 H136       -4.6885  -16.0088  -47.4944 H         1 UNK         0.1150 
    137 H137       -2.3401  -19.3927  -46.3056 H         1 UNK         0.1150 
    138 H138       -0.4602  -15.6024  -46.9638 H         1 UNK         0.1150 
    139 H139        0.2863  -18.8834  -47.2292 H         1 UNK         0.0800 
    140 H140        0.9044  -17.4420  -46.4649 H         1 UNK         0.0800 
    141 H141        2.2411  -19.7073  -46.0531 H         1 UNK         0.0800 
    142 H142        2.3823  -20.1348  -44.3849 H         1 UNK         0.0800 
    143 H143        2.2366  -22.0169  -46.0597 H         1 UNK         0.0600 
    144 H144        0.7202  -22.0025  -43.5902 H         1 UNK         0.3000 
    145 H145        0.8190  -25.6004  -43.3603 H         1 UNK         0.0600 
    146 H146        1.8624  -24.9871  -41.2028 H         1 UNK         0.0600 
    147 H147        3.0015  -24.7210  -42.5126 H         1 UNK         0.0600 
    148 H148        2.1771  -23.3504  -41.7790 H         1 UNK         0.0600 
    149 H149       -0.2858  -23.6144  -41.6332 H         1 UNK         0.3000 
    150 H150       -3.5509  -23.5285  -43.0303 H         1 UNK         0.0600 
    151 H151       -3.5056  -25.6621  -41.7273 H         1 UNK         0.0600 
    152 H152       -4.1784  -24.3441  -40.7822 H         1 UNK         0.0600 
    153 H153       -2.5285  -24.8920  -40.4830 H         1 UNK         0.0600 
    154 H154       -2.6052  -22.3870  -40.6470 H         1 UNK         0.3000 
    155 H155       -2.6466  -20.0153  -40.6667 H         1 UNK         0.0600 
    156 H156       -0.3184  -19.1914  -40.1668 H         1 UNK         0.0600 
    157 H157        0.3129  -20.1092  -41.5314 H         1 UNK         0.0600 
    158 H158       -0.3601  -20.9465  -40.1357 H         1 UNK         0.0600 
    159 H159       -1.8332  -19.1091  -43.2854 H         1 UNK         0.3000 
    160 H160       -1.8314  -16.9741  -43.9246 H         1 UNK         0.0600 
    161 H161       -4.5085  -16.1045  -42.7025 H         1 UNK         0.0600 
    162 H162       -4.2865  -17.4214  -43.8487 H         1 UNK         0.0600 
    163 H163       -3.9663  -15.7684  -44.3473 H         1 UNK         0.0600 
    164 H164       -2.5649  -14.5602  -42.6374 H         1 UNK         0.3000 
    165 H165       -1.1791  -13.0119  -41.9956 H         1 UNK         0.0600 
    166 H166        1.4796  -14.0151  -40.8396 H         1 UNK         0.0600 
    167 H167        0.7381  -12.4443  -40.5366 H         1 UNK         0.0600 
    168 H168       -0.0411  -13.9105  -39.9610 H         1 UNK         0.0600 
    169 H169        1.5394  -13.0482  -43.0721 H         1 UNK         0.3000 
    170 H170        0.6765  -12.5090  -46.4133 H         1 UNK         0.0600 
    171 H171        0.2825  -10.1838  -45.6039 H         1 UNK         0.0600 
    172 H172        1.6523  -10.3155  -44.5072 H         1 UNK         0.0600 
    173 H173        1.9041  -10.3623  -46.2535 H         1 UNK         0.0600 
    174 H174        3.1317  -12.2363  -44.9398 H         1 UNK         0.3000 
    175 H175        4.7335  -13.6882  -45.3167 H         1 UNK         0.0600 
    176 H176        3.5847  -16.1195  -43.8517 H         1 UNK         0.0600 
    177 H177        5.2886  -15.6581  -43.8420 H         1 UNK         0.0600 
    178 H178        4.0762  -14.5913  -43.1482 H         1 UNK         0.0600 
    179 H179        5.1285  -14.8583  -47.1381 H         1 UNK         0.3000 
    180 H180        5.8701  -17.1082  -48.1640 H         1 UNK         0.0600 
    181 H181        3.2050  -18.5616  -48.5839 H         1 UNK         0.0600 
    182 H182        4.6526  -19.2400  -47.8488 H         1 UNK         0.0600 
    183 H183        4.6609  -18.7990  -49.5489 H         1 UNK         0.0600 
    184 H184        3.4772  -16.3907  -49.7033 H         1 UNK         0.3000 
    185 H185        4.4485  -13.0496  -50.3227 H         1 UNK         0.0600 
    186 H186        5.9381  -14.1721  -51.9841 H         1 UNK         0.0600 
    187 H187        4.6928  -15.3701  -52.3167 H         1 UNK         0.0600 
    188 H188        4.4277  -13.6758  -52.7307 H         1 UNK         0.0600 
    189 H189        2.4759  -14.8899  -51.3984 H         1 UNK         0.3000 
    190 H190       -1.2114  -21.8982  -45.1829 H         1 UNK         0.3000 
    191 H191       -2.2782  -21.4894  -47.7705 H         1 UNK         0.0600 
    192 H192       -4.3424  -22.4846  -46.8130 H         1 UNK         0.0600 
    193 H193       -3.6244  -21.3581  -45.6731 H         1 UNK         0.0600 
    194 H194       -3.4420  -23.0921  -45.4300 H         1 UNK         0.0600 
    195 H195       -1.3447  -24.5325  -46.0803 H         1 UNK         0.3000 
    196 H196       -2.0200  -26.3197  -48.1753 H         1 UNK         0.0600 
    197 H197       -0.5183  -27.9030  -46.9496 H         1 UNK         0.0600 
    198 H198       -1.6219  -27.0763  -45.8613 H         1 UNK         0.0600 
    199 H199        0.0666  -26.5810  -45.9467 H         1 UNK         0.0600 
    200 H200        1.0427  -24.5681  -47.4878 H         1 UNK         0.3000 
    201 H201        2.5651  -25.6752  -49.6192 H         1 UNK         0.0600 
    202 H202        3.5549  -24.4604  -47.6740 H         1 UNK         0.0600 
    203 H203        2.8615  -22.9475  -48.2550 H         1 UNK         0.0600 
    204 H204        4.0891  -23.7738  -49.2012 H         1 UNK         0.0600 
    205 H205        0.4146  -22.8305  -49.4883 H         1 UNK         0.3000 
    206 H206        0.7870  -22.0456  -52.2550 H         1 UNK         0.0600 
    207 H207        0.1545  -20.4336  -50.4652 H         1 UNK         0.0600 
    208 H208       -1.0886  -20.4854  -51.7030 H         1 UNK         0.0600 
    209 H209       -1.3452  -21.3111  -50.1746 H         1 UNK         0.0600 
    210 H210       -0.7767  -24.7034  -50.9434 H         1 UNK         0.3000 
    211 H211       -2.3245  -26.1729  -51.4902 H         1 UNK         0.0600 
    212 H212       -2.0256  -25.1570  -54.3684 H         1 UNK         0.0600 
    213 H213       -2.6659  -26.7187  -53.8741 H         1 UNK         0.0600 
    214 H214       -0.9733  -26.3436  -53.5977 H         1 UNK         0.0600 
    215 H215       -3.2045  -23.6827  -50.5376 H         1 UNK         0.3000 
    216 H216       -4.8412  -22.3327  -50.1058 H         1 UNK         0.0600 
    217 H217       -6.6976  -24.3774  -51.4314 H         1 UNK         0.0600 
    218 H218       -7.2073  -23.0601  -50.3874 H         1 UNK         0.0600 
    219 H219       -6.2111  -24.3532  -49.7368 H         1 UNK         0.0600 
    220 H220       -5.0751  -23.3888  -53.4740 H         1 UNK         0.3000 
    221 H221       -6.7242  -21.3492  -54.4567 H         1 UNK         0.0600 
    222 H222       -4.6749  -23.0955  -55.9191 H         1 UNK         0.0600 
    223 H223       -6.3614  -23.5030  -55.6081 H         1 UNK         0.0600 
    224 H224       -5.9642  -22.1815  -56.6955 H         1 UNK         0.0600 
    225 H225       -3.1142  -21.4122  -54.3278 H         1 UNK         0.3000 
    226 H226       -2.8100  -19.1249  -56.0374 H         1 UNK         0.0600 
    227 H227       -1.0373  -20.8650  -55.7108 H         1 UNK         0.0600 
    228 H228       -0.4415  -19.2414  -55.3979 H         1 UNK         0.0600 
    229 H229       -0.8020  -20.3108  -54.0543 H         1 UNK         0.0600 
    230 H230       -3.1295  -19.5053  -52.5466 H         1 UNK         0.3000 
    231 H231       -2.6334  -16.6343  -51.9932 H         1 UNK         0.0600 
    232 H232       -3.0800  -19.0821  -50.2236 H         1 UNK         0.0600 
    233 H233       -1.5731  -18.2185  -50.4727 H         1 UNK         0.0600 
    234 H234       -2.8805  -17.4412  -49.6128 H         1 UNK         0.0600 
    235 H235       -5.2317  -18.6211  -52.8550 H         1 UNK         0.3000 
    236 H236       -7.4155  -18.4684  -52.9913 H         1 UNK         0.0600 
    237 H237       -6.9709  -16.2361  -54.0113 H         1 UNK         0.0600 
    238 H238       -8.5039  -16.2589  -53.1548 H         1 UNK         0.0600 
    239 H239       -7.1101  -15.4713  -52.4287 H         1 UNK         0.0600 
    240 H240       -6.6043  -19.5801  -50.7355 H         1 UNK         0.3000 
    241 H241       -7.7385  -18.3931  -48.3614 H         1 UNK         0.0600 
    242 H242       -9.3949  -20.1118  -50.8617 H         1 UNK         0.3800 
    243 H243      -10.7717  -20.5686  -49.8926 H         1 UNK         0.3800 
    244 H244       -7.0218  -20.4203  -47.1806 H         1 UNK         0.0800 
    245 H245       -6.7741  -21.2656  -48.6852 H         1 UNK         0.0800 
    246 H246       -4.9149  -19.2597  -45.9152 H         1 UNK         0.0800 
    247 H247       -5.7985  -18.0120  -46.7649 H         1 UNK         0.0800 
@<TRIPOS>BOND
     1    1    2 1    
     2    1  127 1    
     3    1  128 1    
     4    1  129 1    
     5    2    3 2    
     6    2    4 am   BACKBONE|DICT|INTERRES
     7    4    5 1    
     8    4  130 1    
     9    5    6 1    
    10    5   65 1    
    11    5  131 1    
    12    6    7 1    
    13    6  132 1    
    14    6  133 1    
    15    7    8 1    
    16    8    9 1    
    17    8  134 1    
    18    8  135 1    
    19    9   10 ar   
    20    9   14 ar   
    21   10   11 ar   
    22   10  136 1    
    23   11   12 ar   
    24   11  126 1    
    25   12   13 ar   
    26   12  137 1    
    27   13   14 ar   
    28   13   15 1    
    29   14  138 1    
    30   15   16 1    
    31   15  139 1    
    32   15  140 1    
    33   16   17 1    
    34   17   18 1    
    35   17  141 1    
    36   17  142 1    
    37   18   19 1    
    38   18   67 1    
    39   18  143 1    
    40   19   20 am   BACKBONE|DICT|INTERRES
    41   19  144 1    
    42   20   21 2    
    43   20   22 1    
    44   22   23 1    
    45   22   24 1    
    46   22  145 1    
    47   23  146 1    
    48   23  147 1    
    49   23  148 1    
    50   24   25 am   BACKBONE|DICT|INTERRES
    51   24  149 1    
    52   25   26 2    
    53   25   27 1    
    54   27   28 1    
    55   27   29 1    
    56   27  150 1    
    57   28  151 1    
    58   28  152 1    
    59   28  153 1    
    60   29   30 am   BACKBONE|DICT|INTERRES
    61   29  154 1    
    62   30   31 2    
    63   30   32 1    
    64   32   33 1    
    65   32   34 1    
    66   32  155 1    
    67   33  156 1    
    68   33  157 1    
    69   33  158 1    
    70   34   35 am   BACKBONE|DICT|INTERRES
    71   34  159 1    
    72   35   36 2    
    73   35   37 1    
    74   37   38 1    
    75   37   39 1    
    76   37  160 1    
    77   38  161 1    
    78   38  162 1    
    79   38  163 1    
    80   39   40 am   BACKBONE|DICT|INTERRES
    81   39  164 1    
    82   40   41 2    
    83   40   42 1    
    84   42   43 1    
    85   42   44 1    
    86   42  165 1    
    87   43  166 1    
    88   43  167 1    
    89   43  168 1    
    90   44   45 am   BACKBONE|DICT|INTERRES
    91   44  169 1    
    92   45   46 2    
    93   45   47 1    
    94   47   48 1    
    95   47   49 1    
    96   47  170 1    
    97   48  171 1    
    98   48  172 1    
    99   48  173 1    
   100   49   50 am   BACKBONE|DICT|INTERRES
   101   49  174 1    
   102   50   51 2    
   103   50   52 1    
   104   52   53 1    
   105   52   54 1    
   106   52  175 1    
   107   53  176 1    
   108   53  177 1    
   109   53  178 1    
   110   54   55 am   BACKBONE|DICT|INTERRES
   111   54  179 1    
   112   55   56 2    
   113   55   57 1    
   114   57   58 1    
   115   57   59 1    
   116   57  180 1    
   117   58  181 1    
   118   58  182 1    
   119   58  183 1    
   120   59   60 am   BACKBONE|DICT|INTERRES
   121   59  184 1    
   122   60   61 2    
   123   60   62 1    
   124   62   63 1    
   125   62   64 1    
   126   62  185 1    
   127   63  186 1    
   128   63  187 1    
   129   63  188 1    
   130   64   65 am   BACKBONE|DICT|INTERRES
   131   64  189 1    
   132   65   66 2    
   133   67   68 2    
   134   67   69 am   BACKBONE|DICT|INTERRES
   135   69   70 1    
   136   69  190 1    
   137   70   71 1    
   138   70   72 1    
   139   70  191 1    
   140   71  192 1    
   141   71  193 1    
   142   71  194 1    
   143   72   73 2    
   144   72   74 am   BACKBONE|DICT|INTERRES
   145   74   75 1    
   146   74  195 1    
   147   75   76 1    
   148   75   77 1    
   149   75  196 1    
   150   76  197 1    
   151   76  198 1    
   152   76  199 1    
   153   77   78 2    
   154   77   79 am   BACKBONE|DICT|INTERRES
   155   79   80 1    
   156   79  200 1    
   157   80   81 1    
   158   80   82 1    
   159   80  201 1    
   160   81  202 1    
   161   81  203 1    
   162   81  204 1    
   163   82   83 2    
   164   82   84 am   BACKBONE|DICT|INTERRES
   165   84   85 1    
   166   84  205 1    
   167   85   86 1    
   168   85   87 1    
   169   85  206 1    
   170   86  207 1    
   171   86  208 1    
   172   86  209 1    
   173   87   88 2    
   174   87   89 am   BACKBONE|DICT|INTERRES
   175   89   90 1    
   176   89  210 1    
   177   90   91 1    
   178   90   92 1    
   179   90  211 1    
   180   91  212 1    
   181   91  213 1    
   182   91  214 1    
   183   92   93 2    
   184   92   94 am   BACKBONE|DICT|INTERRES
   185   94   95 1    
   186   94  215 1    
   187   95   96 1    
   188   95   97 1    
   189   95  216 1    
   190   96  217 1    
   191   96  218 1    
   192   96  219 1    
   193   97   98 2    
   194   97   99 am   BACKBONE|DICT|INTERRES
   195   99  100 1    
   196   99  220 1    
   197  100  101 1    
   198  100  102 1    
   199  100  221 1    
   200  101  222 1    
   201  101  223 1    
   202  101  224 1    
   203  102  103 2    
   204  102  104 am   BACKBONE|DICT|INTERRES
   205  104  105 1    
   206  104  225 1    
   207  105  106 1    
   208  105  107 1    
   209  105  226 1    
   210  106  227 1    
   211  106  228 1    
   212  106  229 1    
   213  107  108 2    
   214  107  109 am   BACKBONE|DICT|INTERRES
   215  109  110 1    
   216  109  230 1    
   217  110  111 1    
   218  110  112 1    
   219  110  231 1    
   220  111  232 1    
   221  111  233 1    
   222  111  234 1    
   223  112  113 2    
   224  112  114 am   BACKBONE|DICT|INTERRES
   225  114  115 1    
   226  114  235 1    
   227  115  116 1    
   228  115  117 1    
   229  115  236 1    
   230  116  237 1    
   231  116  238 1    
   232  116  239 1    
   233  117  118 2    
   234  117  119 am   BACKBONE|DICT|INTERRES
   235  119  120 1    
   236  119  240 1    
   237  120  121 1    
   238  120  124 1    
   239  120  241 1    
   240  121  122 am   BACKBONE|DICT|INTERRES
   241  121  123 2    
   242  122  242 1    
   243  122  243 1    
   244  124  125 1    
   245  124  244 1    
   246  124  245 1    
   247  125  126 1    
   248  126  246 1    
   249  126  247 1    
@<TRIPOS>SUBSTRUCTURE
     1 UNK         1 GROUP             0       ****    0 ROOT    
