@<TRIPOS>MOLECULE
3R540
247   249    1
SMALL
USER_CHARGES


@<TRIPOS>ATOM
      1 CA          0.1158  -15.0192  -51.4301 C.3       0 UNK        -0.1800 
      2 C           0.7752  -14.6571  -50.1099 C.2       0 UNK         0.5000 
      3 O           0.4891  -13.6011  -49.5449 O.2       0 UNK        -0.5000 
      4 N           1.6409  -15.5447  -49.6000 N.am      1 UNK        -0.5000 
      5 CA          2.4014  -15.3611  -48.3526 C.3       1 UNK         0.1400 
      6 C6          3.5156  -16.4194  -48.1536 C.3       23 UNK        -0.0398 
      7 S7          4.6209  -16.5753  -49.6029 S.3       23 UNK        -0.2404 
      8 C8          4.3240  -18.2901  -50.1487 C.3       23 UNK        -0.0205 
      9 C9          2.8860  -18.5123  -50.5938 C.ar      23 UNK        -0.0193 
     10 C10         2.4715  -18.1268  -51.8702 C.ar      23 UNK        -0.1150 
     11 C11         1.1436  -18.3068  -52.2660 C.ar      23 UNK        -0.0193 
     12 C12         0.2282  -18.8718  -51.3703 C.ar      23 UNK        -0.1150 
     13 C13         0.6267  -19.2678  -50.0888 C.ar      23 UNK        -0.0193 
     14 C14         1.9666  -19.0957  -49.7198 C.ar      23 UNK        -0.1150 
     15 C15        -0.4154  -19.8762  -49.1458 C.3       23 UNK        -0.0205 
     16 S16        -0.0042  -19.8032  -47.3643 S.3       23 UNK        -0.2404 
     17 C17         1.0883  -21.2654  -47.1619 C.3       23 UNK        -0.0398 
     18 CA          0.4767  -22.4247  -46.3326 C.3       11 UNK         0.1400 
     19 N           0.2347  -22.0349  -44.9396 N.am      11 UNK        -0.5000 
     20 C          -0.3052  -22.7998  -43.9746 C.2       10 UNK         0.5000 
     21 O          -0.5613  -23.9961  -44.1182 O.2       10 UNK        -0.5000 
     22 CA         -0.6824  -22.1059  -42.6453 C.3       10 UNK         0.1400 
     23 CB          0.3300  -22.4615  -41.5472 C.3       10 UNK        -0.1800 
     24 N          -0.7773  -20.6471  -42.7461 N.am      10 UNK        -0.5000 
     25 C          -1.5873  -19.9718  -43.5746 C.2       9 UNK         0.5000 
     26 O          -2.4747  -20.5090  -44.2387 O.2       9 UNK        -0.5000 
     27 CA         -1.3109  -18.4678  -43.7690 C.3       9 UNK         0.1400 
     28 CB         -2.4712  -17.6194  -43.2292 C.3       9 UNK        -0.1800 
     29 N          -0.0457  -17.9836  -43.2023 N.am      9 UNK        -0.5000 
     30 C           1.1865  -18.3783  -43.5619 C.2       8 UNK         0.5000 
     31 O           1.4083  -19.2331  -44.4178 O.2       8 UNK        -0.5000 
     32 CA          2.3651  -17.7671  -42.7847 C.3       8 UNK         0.1400 
     33 CB          2.8478  -16.4668  -43.4444 C.3       8 UNK        -0.1800 
     34 N           2.0158  -17.5135  -41.3863 N.am      8 UNK        -0.5000 
     35 C           1.9298  -18.4667  -40.4462 C.2       7 UNK         0.5000 
     36 O           2.1962  -19.6508  -40.6497 O.2       7 UNK        -0.5000 
     37 CA          1.4392  -18.0298  -39.0524 C.3       7 UNK         0.1400 
     38 CB          2.6183  -17.5527  -38.1911 C.3       7 UNK        -0.1800 
     39 N           0.4335  -16.9692  -39.1190 N.am      7 UNK        -0.5000 
     40 C          -0.8131  -17.1276  -39.5873 C.2       6 UNK         0.5000 
     41 O          -1.2802  -18.2140  -39.9275 O.2       6 UNK        -0.5000 
     42 CA         -1.6650  -15.8496  -39.7378 C.3       6 UNK         0.1400 
     43 CB         -2.5427  -15.6384  -38.4953 C.3       6 UNK        -0.1800 
     44 N          -0.8628  -14.6439  -39.9730 N.am      6 UNK        -0.5000 
     45 C          -0.0967  -14.4387  -41.0523 C.2       5 UNK         0.5000 
     46 O          -0.0103  -15.2335  -41.9915 O.2       5 UNK        -0.5000 
     47 CA          0.7938  -13.1914  -41.0226 C.3       5 UNK         0.1400 
     48 CB          2.0440  -13.4763  -40.1624 C.3       5 UNK        -0.1800 
     49 N           1.1819  -12.8374  -42.3852 N.am      5 UNK        -0.5000 
     50 C           1.8177  -11.7147  -42.7434 C.2       4 UNK         0.5000 
     51 O           2.1121  -10.8126  -41.9578 O.2       4 UNK        -0.5000 
     52 CA          2.1902  -11.5673  -44.2285 C.3       4 UNK         0.1400 
     53 CB          3.4762  -12.3487  -44.5408 C.3       4 UNK        -0.1800 
     54 N           1.1186  -11.9934  -45.1296 N.am      4 UNK        -0.5000 
     55 C          -0.0061  -11.2902  -45.3398 C.2       3 UNK         0.5000 
     56 O          -0.2529  -10.2245  -44.7733 O.2       3 UNK        -0.5000 
     57 CA         -1.0228  -11.8364  -46.3644 C.3       3 UNK         0.1400 
     58 CB         -0.9248  -11.0556  -47.6840 C.3       3 UNK        -0.1800 
     59 N          -0.8605  -13.2607  -46.6487 N.am      3 UNK        -0.5000 
     60 C          -1.1653  -14.2440  -45.7901 C.2       2 UNK         0.5000 
     61 O          -1.6940  -14.0481  -44.6964 O.2       2 UNK        -0.5000 
     62 CA         -0.8057  -15.6843  -46.2084 C.3       2 UNK         0.1400 
     63 CB         -2.0534  -16.4004  -46.7506 C.3       2 UNK        -0.1800 
     64 N           0.2575  -15.7817  -47.2104 N.am      2 UNK        -0.5000 
     65 C           1.4983  -15.2842  -47.1019 C.2       1 UNK         0.5000 
     66 O           1.9161  -14.7256  -46.0894 O.2       1 UNK        -0.5000 
     67 C          -0.7676  -22.9999  -47.0429 C.2       11 UNK         0.5000 
     68 O          -0.6145  -23.8515  -47.9175 O.2       11 UNK        -0.5000 
     69 N          -1.9685  -22.5469  -46.6478 N.am      12 UNK        -0.5000 
     70 CA         -3.2598  -22.9379  -47.2135 C.3       12 UNK         0.1400 
     71 CB         -4.3772  -22.1873  -46.4758 C.3       12 UNK        -0.1800 
     72 C          -3.5277  -24.4540  -47.1939 C.2       12 UNK         0.5000 
     73 O          -4.1495  -24.9687  -48.1232 O.2       12 UNK        -0.5000 
     74 N          -3.0183  -25.1440  -46.1637 N.am      13 UNK        -0.5000 
     75 CA         -3.1168  -26.5954  -46.0063 C.3       13 UNK         0.1400 
     76 CB         -2.6595  -26.9757  -44.5901 C.3       13 UNK        -0.1800 
     77 C          -2.3141  -27.3807  -47.0625 C.2       13 UNK         0.5000 
     78 O          -2.7130  -28.4897  -47.4197 O.2       13 UNK        -0.5000 
     79 N          -1.2095  -26.7953  -47.5434 N.am      14 UNK        -0.5000 
     80 CA         -0.3691  -27.3555  -48.6000 C.3       14 UNK         0.1400 
     81 CB          1.0965  -26.9791  -48.3305 C.3       14 UNK        -0.1800 
     82 C          -0.8096  -26.8561  -49.9859 C.2       14 UNK         0.5000 
     83 O          -0.8163  -27.6357  -50.9390 O.2       14 UNK        -0.5000 
     84 N          -1.1597  -25.5654  -50.0722 N.am      15 UNK        -0.5000 
     85 CA         -1.5498  -24.8775  -51.3011 C.3       15 UNK         0.1400 
     86 CB         -1.5432  -23.3631  -51.0442 C.3       15 UNK        -0.1800 
     87 C          -2.9097  -25.3376  -51.8566 C.2       15 UNK         0.5000 
     88 O          -3.0759  -25.3664  -53.0767 O.2       15 UNK        -0.5000 
     89 N          -3.8477  -25.6951  -50.9650 N.am      16 UNK        -0.5000 
     90 CA         -5.1967  -26.1915  -51.2528 C.3       16 UNK         0.1400 
     91 CB         -5.1310  -27.6183  -51.8409 C.3       16 UNK        -0.1800 
     92 C          -5.9955  -25.1938  -52.1155 C.2       16 UNK         0.5000 
     93 O          -6.4109  -24.1560  -51.6025 O.2       16 UNK        -0.5000 
     94 N          -6.1603  -25.4853  -53.4127 N.am      17 UNK        -0.5000 
     95 CA         -6.7966  -24.6011  -54.3931 C.3       17 UNK         0.1400 
     96 CB         -6.9515  -25.3561  -55.7217 C.3       17 UNK        -0.1800 
     97 C          -6.0398  -23.2738  -54.6112 C.2       17 UNK         0.5000 
     98 O          -6.6685  -22.2654  -54.9337 O.2       17 UNK        -0.5000 
     99 N          -4.7151  -23.2838  -54.4038 N.am      18 UNK        -0.5000 
    100 CA        -3.8476  -22.1097  -54.5064 C.3       18 UNK         0.1400 
    101 CB        -2.4365  -22.5560  -54.9251 C.3       18 UNK        -0.1800 
    102 C         -3.8194  -21.2540  -53.2228 C.2       18 UNK         0.5000 
    103 O         -3.1262  -20.2375  -53.2032 O.2       18 UNK        -0.5000 
    104 N         -4.5743  -21.6350  -52.1780 N.am      19 UNK        -0.5000 
    105 CA        -4.7045  -20.8680  -50.9321 C.3       19 UNK         0.1400 
    106 CB        -5.5372  -21.6639  -49.9194 C.3       19 UNK        -0.1800 
    107 C         -5.3186  -19.4680  -51.1339 C.2       19 UNK         0.5000 
    108 O         -5.0209  -18.5566  -50.3611 O.2       19 UNK        -0.5000 
    109 N         -6.1207  -19.3048  -52.1959 N.am      20 UNK        -0.5000 
    110 CA        -6.6790  -18.0387  -52.6721 C.3       20 UNK         0.1400 
    111 CB        -7.8977  -18.3466  -53.5603 C.3       20 UNK        -0.1800 
    112 C         -5.6163  -17.1799  -53.3956 C.2       20 UNK         0.5000 
    113 O         -5.7815  -16.8418  -54.5701 O.2       20 UNK        -0.5000 
    114 N         -4.5236  -16.8760  -52.6800 N.am      21 UNK        -0.5000 
    115 CA        -3.3764  -16.0522  -53.0792 C.3       21 UNK         0.1400 
    116 CB        -3.7766  -14.5632  -53.0819 C.3       21 UNK        -0.1800 
    117 C         -2.7081  -16.4909  -54.4015 C.2       21 UNK         0.5000 
    118 O         -2.2171  -15.6455  -55.1514 O.2       21 UNK        -0.5000 
    119 N         -2.7039  -17.8053  -54.6631 N.am      22 UNK        -0.5000 
    120 CA        -2.2180  -18.4499  -55.8952 C.3       22 UNK         0.1400 
    121 C         -2.9988  -18.0519  -57.1874 C.2       22 UNK         0.5000 
    122 N         -4.2089  -17.5106  -57.0920 N.am      22 UNK        -0.7600 
    123 O         -2.5224  -18.2685  -58.2984 O.2       22 UNK        -0.5000 
    124 C124       -0.6718  -18.3712  -56.0525 C.3       23 UNK        -0.0398 
    125 S125        0.2053  -19.2409  -54.7049 S.3       23 UNK        -0.2404 
    126 C126        0.6847  -17.8464  -53.6410 C.3       23 UNK        -0.0205 
    127 H127       -0.5773  -14.2391  -51.7457 H         1 UNK         0.0600 
    128 H128       -0.4421  -15.9488  -51.3266 H         1 UNK         0.0600 
    129 H129        0.8671  -15.1439  -52.2097 H         1 UNK         0.0600 
    130 H130        1.8441  -16.3943  -50.1102 H         1 UNK         0.3000 
    131 H131        2.8926  -14.3887  -48.4310 H         1 UNK         0.0600 
    132 H132        3.0906  -17.3892  -47.8973 H         1 UNK         0.0800 
    133 H133        4.1383  -16.1419  -47.3010 H         1 UNK         0.0800 
    134 H134        4.5888  -18.9769  -49.3432 H         1 UNK         0.0800 
    135 H135        4.9988  -18.5186  -50.9748 H         1 UNK         0.0800 
    136 H136        3.1818  -17.6750  -52.5487 H         1 UNK         0.1150 
    137 H137       -0.8005  -19.0038  -51.6782 H         1 UNK         0.1150 
    138 H138        2.3079  -19.3995  -48.7428 H         1 UNK         0.1150 
    139 H139       -1.3607  -19.3480  -49.2802 H         1 UNK         0.0800 
    140 H140       -0.6023  -20.9102  -49.4357 H         1 UNK         0.0800 
    141 H141        2.0074  -20.9259  -46.6824 H         1 UNK         0.0800 
    142 H142        1.3944  -21.6321  -48.1434 H         1 UNK         0.0800 
    143 H143        1.2128  -23.2302  -46.2992 H         1 UNK         0.0600 
    144 H144        0.4419  -21.0652  -44.7231 H         1 UNK         0.3000 
    145 H145       -1.6632  -22.4818  -42.3481 H         1 UNK         0.0600 
    146 H146        0.0456  -22.0243  -40.5898 H         1 UNK         0.0600 
    147 H147        1.3306  -22.1042  -41.7945 H         1 UNK         0.0600 
    148 H148        0.3919  -23.5414  -41.4062 H         1 UNK         0.0600 
    149 H149       -0.0804  -20.1189  -42.2407 H         1 UNK         0.3000 
    150 H150       -1.2524  -18.3195  -44.8466 H         1 UNK         0.0600 
    151 H151       -3.3984  -17.8516  -43.7544 H         1 UNK         0.0600 
    152 H152       -2.2822  -16.5535  -43.3595 H         1 UNK         0.0600 
    153 H153       -2.6443  -17.8056  -42.1702 H         1 UNK         0.0600 
    154 H154       -0.1186  -17.2360  -42.5215 H         1 UNK         0.3000 
    155 H155        3.1901  -18.4823  -42.8130 H         1 UNK         0.0600 
    156 H156        3.1838  -16.6535  -44.4650 H         1 UNK         0.0600 
    157 H157        3.6869  -16.0331  -42.9006 H         1 UNK         0.0600 
    158 H158        2.0590  -15.7170  -43.4966 H         1 UNK         0.0600 
    159 H159        1.7271  -16.5736  -41.1583 H         1 UNK         0.3000 
    160 H160        0.9901  -18.8997  -38.5682 H         1 UNK         0.0600 
    161 H161        3.0974  -16.6693  -38.6154 H         1 UNK         0.0600 
    162 H162        3.3790  -18.3300  -38.1066 H         1 UNK         0.0600 
    163 H163        2.2938  -17.3062  -37.1800 H         1 UNK         0.0600 
    164 H164        0.7255  -16.0460  -38.8364 H         1 UNK         0.3000 
    165 H165       -2.3207  -15.9876  -40.5994 H         1 UNK         0.0600 
    166 H166       -3.2057  -14.7822  -38.6212 H         1 UNK         0.0600 
    167 H167       -3.1720  -16.5099  -38.3093 H         1 UNK         0.0600 
    168 H168       -1.9417  -15.4705  -37.6007 H         1 UNK         0.0600 
    169 H169       -0.8720  -13.9501  -39.2388 H         1 UNK         0.3000 
    170 H170        0.2244  -12.3655  -40.5917 H         1 UNK         0.0600 
    171 H171        2.6593  -14.2641  -40.5992 H         1 UNK         0.0600 
    172 H172        2.6692  -12.5908  -40.0519 H         1 UNK         0.0600 
    173 H173        1.7700  -13.7930  -39.1555 H         1 UNK         0.0600 
    174 H174        0.9302  -13.5238  -43.0860 H         1 UNK         0.3000 
    175 H175        2.3913  -10.5107  -44.4188 H         1 UNK         0.0600 
    176 H176        3.3708  -13.4101  -44.3141 H         1 UNK         0.0600 
    177 H177        3.7522  -12.2554  -45.5913 H         1 UNK         0.0600 
    178 H178        4.3116  -11.9724  -43.9493 H         1 UNK         0.0600 
    179 H179        1.2527  -12.8794  -45.6055 H         1 UNK         0.3000 
    180 H180       -2.0213  -11.6809  -45.9505 H         1 UNK         0.0600 
    181 H181       -1.6717  -11.3963  -48.4014 H         1 UNK         0.0600 
    182 H182        0.0576  -11.1684  -48.1445 H         1 UNK         0.0600 
    183 H183       -1.0918   -9.9899  -47.5225 H         1 UNK         0.0600 
    184 H184       -0.4287  -13.4979  -47.5345 H         1 UNK         0.3000 
    185 H185       -0.4528  -16.1947  -45.3130 H         1 UNK         0.0600 
    186 H186       -2.4341  -15.9146  -47.6499 H         1 UNK         0.0600 
    187 H187       -1.8432  -17.4399  -46.9998 H         1 UNK         0.0600 
    188 H188       -2.8574  -16.3998  -46.0136 H         1 UNK         0.0600 
    189 H189        0.0069  -16.2170  -48.0857 H         1 UNK         0.3000 
    190 H190       -1.9985  -21.8496  -45.9125 H         1 UNK         0.3000 
    191 H191       -3.2616  -22.6169  -48.2549 H         1 UNK         0.0600 
    192 H192       -4.2688  -21.1084  -46.5902 H         1 UNK         0.0600 
    193 H193       -4.3732  -22.4116  -45.4083 H         1 UNK         0.0600 
    194 H194       -5.3591  -22.4602  -46.8644 H         1 UNK         0.0600 
    195 H195       -2.4851  -24.6459  -45.4628 H         1 UNK         0.3000 
    196 H196       -4.1666  -26.8762  -46.1141 H         1 UNK         0.0600 
    197 H197       -3.2696  -26.4832  -43.8327 H         1 UNK         0.0600 
    198 H198       -1.6193  -26.6972  -44.4156 H         1 UNK         0.0600 
    199 H199       -2.7443  -28.0509  -44.4269 H         1 UNK         0.0600 
    200 H200       -0.9817  -25.8589  -47.2345 H         1 UNK         0.3000 
    201 H201       -0.4413  -28.4453  -48.5947 H         1 UNK         0.0600 
    202 H202        1.4320  -27.3698  -47.3698 H         1 UNK         0.0600 
    203 H203        1.2436  -25.8984  -48.3216 H         1 UNK         0.0600 
    204 H204        1.7525  -27.3934  -49.0971 H         1 UNK         0.0600 
    205 H205       -1.0664  -24.9820  -49.2436 H         1 UNK         0.3000 
    206 H206       -0.7937  -25.0947  -52.0585 H         1 UNK         0.0600 
    207 H207       -2.3161  -23.0714  -50.3341 H         1 UNK         0.0600 
    208 H208       -0.5813  -23.0367  -50.6489 H         1 UNK         0.0600 
    209 H209       -1.7132  -22.8052  -51.9626 H         1 UNK         0.0600 
    210 H210       -3.6471  -25.5665  -49.9783 H         1 UNK         0.3000 
    211 H211       -5.7151  -26.2523  -50.2948 H         1 UNK         0.0600 
    212 H212       -4.5648  -27.6608  -52.7718 H         1 UNK         0.0600 
    213 H213       -6.1303  -28.0079  -52.0395 H         1 UNK         0.0600 
    214 H214       -4.6540  -28.3022  -51.1386 H         1 UNK         0.0600 
    215 H215       -5.7548  -26.3394  -53.7670 H         1 UNK         0.3000 
    216 H216       -7.7931  -24.3525  -54.0222 H         1 UNK         0.0600 
    217 H217       -7.4467  -24.7345  -56.4689 H         1 UNK         0.0600 
    218 H218       -7.5553  -26.2551  -55.5971 H         1 UNK         0.0600 
    219 H219       -5.9847  -25.6534  -56.1301 H         1 UNK         0.0600 
    220 H220       -4.2700  -24.1452  -54.0989 H         1 UNK         0.3000 
    221 H221       -4.2275  -21.4602  -55.2978 H         1 UNK         0.0600 
    222 H222       -1.9960  -23.2487  -54.2105 H         1 UNK         0.0600 
    223 H223       -2.4564  -23.0515  -55.8958 H         1 UNK         0.0600 
    224 H224       -1.7588  -21.7064  -55.0120 H         1 UNK         0.0600 
    225 H225       -5.1314  -22.4779  -52.2489 H         1 UNK         0.3000 
    226 H226       -3.7022  -20.7320  -50.5203 H         1 UNK         0.0600 
    227 H227       -5.1079  -22.6486  -49.7362 H         1 UNK         0.0600 
    228 H228       -5.5879  -21.1422  -48.9635 H         1 UNK         0.0600 
    229 H229       -6.5613  -21.8060  -50.2666 H         1 UNK         0.0600 
    230 H230       -6.2851  -20.1090  -52.7843 H         1 UNK         0.3000 
    231 H231       -7.0290  -17.4637  -51.8124 H         1 UNK         0.0600 
    232 H232       -8.3677  -17.4278  -53.9137 H         1 UNK         0.0600 
    233 H233       -8.6549  -18.9056  -53.0102 H         1 UNK         0.0600 
    234 H234       -7.6193  -18.9334  -54.4368 H         1 UNK         0.0600 
    235 H235       -4.4837  -17.2584  -51.7396 H         1 UNK         0.3000 
    236 H236       -2.6237  -16.1912  -52.3033 H         1 UNK         0.0600 
    237 H237       -4.5048  -14.3450  -53.8638 H         1 UNK         0.0600 
    238 H238       -4.2122  -14.2704  -52.1265 H         1 UNK         0.0600 
    239 H239       -2.9104  -13.9221  -53.2500 H         1 UNK         0.0600 
    240 H240       -3.0771  -18.4493  -53.9724 H         1 UNK         0.3000 
    241 H241       -2.4638  -19.5042  -55.7745 H         1 UNK         0.0600 
    242 H242       -4.7082  -17.2682  -57.9328 H         1 UNK         0.3800 
    243 H243       -4.6287  -17.3164  -56.1888 H         1 UNK         0.3800 
    244 H244       -0.3359  -17.3356  -56.1177 H         1 UNK         0.0800 
    245 H245       -0.3576  -18.8463  -56.9829 H         1 UNK         0.0800 
    246 H246       -0.1585  -17.1716  -53.5135 H         1 UNK         0.0800 
    247 H247        1.4648  -17.2704  -54.1409 H         1 UNK         0.0800 
@<TRIPOS>BOND
     1    1    2 1    
     2    1  127 1    
     3    1  128 1    
     4    1  129 1    
     5    2    3 2    
     6    2    4 am   BACKBONE|DICT|INTERRES
     7    4    5 1    
     8    4  130 1    
     9    5    6 1    
    10    5   65 1    
    11    5  131 1    
    12    6    7 1    
    13    6  132 1    
    14    6  133 1    
    15    7    8 1    
    16    8    9 1    
    17    8  134 1    
    18    8  135 1    
    19    9   10 ar   
    20    9   14 ar   
    21   10   11 ar   
    22   10  136 1    
    23   11   12 ar   
    24   11  126 1    
    25   12   13 ar   
    26   12  137 1    
    27   13   14 ar   
    28   13   15 1    
    29   14  138 1    
    30   15   16 1    
    31   15  139 1    
    32   15  140 1    
    33   16   17 1    
    34   17   18 1    
    35   17  141 1    
    36   17  142 1    
    37   18   19 1    
    38   18   67 1    
    39   18  143 1    
    40   19   20 am   BACKBONE|DICT|INTERRES
    41   19  144 1    
    42   20   21 2    
    43   20   22 1    
    44   22   23 1    
    45   22   24 1    
    46   22  145 1    
    47   23  146 1    
    48   23  147 1    
    49   23  148 1    
    50   24   25 am   BACKBONE|DICT|INTERRES
    51   24  149 1    
    52   25   26 2    
    53   25   27 1    
    54   27   28 1    
    55   27   29 1    
    56   27  150 1    
    57   28  151 1    
    58   28  152 1    
    59   28  153 1    
    60   29   30 am   BACKBONE|DICT|INTERRES
    61   29  154 1    
    62   30   31 2    
    63   30   32 1    
    64   32   33 1    
    65   32   34 1    
    66   32  155 1    
    67   33  156 1    
    68   33  157 1    
    69   33  158 1    
    70   34   35 am   BACKBONE|DICT|INTERRES
    71   34  159 1    
    72   35   36 2    
    73   35   37 1    
    74   37   38 1    
    75   37   39 1    
    76   37  160 1    
    77   38  161 1    
    78   38  162 1    
    79   38  163 1    
    80   39   40 am   BACKBONE|DICT|INTERRES
    81   39  164 1    
    82   40   41 2    
    83   40   42 1    
    84   42   43 1    
    85   42   44 1    
    86   42  165 1    
    87   43  166 1    
    88   43  167 1    
    89   43  168 1    
    90   44   45 am   BACKBONE|DICT|INTERRES
    91   44  169 1    
    92   45   46 2    
    93   45   47 1    
    94   47   48 1    
    95   47   49 1    
    96   47  170 1    
    97   48  171 1    
    98   48  172 1    
    99   48  173 1    
   100   49   50 am   BACKBONE|DICT|INTERRES
   101   49  174 1    
   102   50   51 2    
   103   50   52 1    
   104   52   53 1    
   105   52   54 1    
   106   52  175 1    
   107   53  176 1    
   108   53  177 1    
   109   53  178 1    
   110   54   55 am   BACKBONE|DICT|INTERRES
   111   54  179 1    
   112   55   56 2    
   113   55   57 1    
   114   57   58 1    
   115   57   59 1    
   116   57  180 1    
   117   58  181 1    
   118   58  182 1    
   119   58  183 1    
   120   59   60 am   BACKBONE|DICT|INTERRES
   121   59  184 1    
   122   60   61 2    
   123   60   62 1    
   124   62   63 1    
   125   62   64 1    
   126   62  185 1    
   127   63  186 1    
   128   63  187 1    
   129   63  188 1    
   130   64   65 am   BACKBONE|DICT|INTERRES
   131   64  189 1    
   132   65   66 2    
   133   67   68 2    
   134   67   69 am   BACKBONE|DICT|INTERRES
   135   69   70 1    
   136   69  190 1    
   137   70   71 1    
   138   70   72 1    
   139   70  191 1    
   140   71  192 1    
   141   71  193 1    
   142   71  194 1    
   143   72   73 2    
   144   72   74 am   BACKBONE|DICT|INTERRES
   145   74   75 1    
   146   74  195 1    
   147   75   76 1    
   148   75   77 1    
   149   75  196 1    
   150   76  197 1    
   151   76  198 1    
   152   76  199 1    
   153   77   78 2    
   154   77   79 am   BACKBONE|DICT|INTERRES
   155   79   80 1    
   156   79  200 1    
   157   80   81 1    
   158   80   82 1    
   159   80  201 1    
   160   81  202 1    
   161   81  203 1    
   162   81  204 1    
   163   82   83 2    
   164   82   84 am   BACKBONE|DICT|INTERRES
   165   84   85 1    
   166   84  205 1    
   167   85   86 1    
   168   85   87 1    
   169   85  206 1    
   170   86  207 1    
   171   86  208 1    
   172   86  209 1    
   173   87   88 2    
   174   87   89 am   BACKBONE|DICT|INTERRES
   175   89   90 1    
   176   89  210 1    
   177   90   91 1    
   178   90   92 1    
   179   90  211 1    
   180   91  212 1    
   181   91  213 1    
   182   91  214 1    
   183   92   93 2    
   184   92   94 am   BACKBONE|DICT|INTERRES
   185   94   95 1    
   186   94  215 1    
   187   95   96 1    
   188   95   97 1    
   189   95  216 1    
   190   96  217 1    
   191   96  218 1    
   192   96  219 1    
   193   97   98 2    
   194   97   99 am   BACKBONE|DICT|INTERRES
   195   99  100 1    
   196   99  220 1    
   197  100  101 1    
   198  100  102 1    
   199  100  221 1    
   200  101  222 1    
   201  101  223 1    
   202  101  224 1    
   203  102  103 2    
   204  102  104 am   BACKBONE|DICT|INTERRES
   205  104  105 1    
   206  104  225 1    
   207  105  106 1    
   208  105  107 1    
   209  105  226 1    
   210  106  227 1    
   211  106  228 1    
   212  106  229 1    
   213  107  108 2    
   214  107  109 am   BACKBONE|DICT|INTERRES
   215  109  110 1    
   216  109  230 1    
   217  110  111 1    
   218  110  112 1    
   219  110  231 1    
   220  111  232 1    
   221  111  233 1    
   222  111  234 1    
   223  112  113 2    
   224  112  114 am   BACKBONE|DICT|INTERRES
   225  114  115 1    
   226  114  235 1    
   227  115  116 1    
   228  115  117 1    
   229  115  236 1    
   230  116  237 1    
   231  116  238 1    
   232  116  239 1    
   233  117  118 2    
   234  117  119 am   BACKBONE|DICT|INTERRES
   235  119  120 1    
   236  119  240 1    
   237  120  121 1    
   238  120  124 1    
   239  120  241 1    
   240  121  122 am   BACKBONE|DICT|INTERRES
   241  121  123 2    
   242  122  242 1    
   243  122  243 1    
   244  124  125 1    
   245  124  244 1    
   246  124  245 1    
   247  125  126 1    
   248  126  246 1    
   249  126  247 1    
@<TRIPOS>SUBSTRUCTURE
     1 UNK         1 GROUP             0       ****    0 ROOT    
