@<TRIPOS>MOLECULE
3R540
247   249    1
SMALL
USER_CHARGES


@<TRIPOS>ATOM
      1 CA         -5.9868  -11.2041  -45.2661 C.3       0 UNK        -0.1800 
      2 C          -4.5409  -11.1686  -45.7398 C.2       0 UNK         0.5000 
      3 O          -3.7259  -10.4399  -45.1721 O.2       0 UNK        -0.5000 
      4 N          -4.2132  -11.9568  -46.7716 N.am      1 UNK        -0.5000 
      5 CA         -2.8744  -12.0822  -47.3581 C.3       1 UNK         0.1400 
      6 C6         -2.9572  -12.5066  -48.8463 C.3       23 UNK        -0.0398 
      7 S7         -1.4702  -12.0182  -49.7816 S.3       23 UNK        -0.2404 
      8 C8         -1.7832  -12.8316  -51.3790 C.3       23 UNK        -0.0205 
      9 C9         -1.6790  -14.3460  -51.2788 C.ar      23 UNK        -0.0193 
     10 C10        -0.4339  -14.9483  -51.0865 C.ar      23 UNK        -0.1150 
     11 C11        -0.3102  -16.3376  -51.0090 C.ar      23 UNK        -0.0193 
     12 C12        -1.4664  -17.1259  -51.1150 C.ar      23 UNK        -0.1150 
     13 C13        -2.7198  -16.5384  -51.3169 C.ar      23 UNK        -0.0193 
     14 C14        -2.8176  -15.1463  -51.4000 C.ar      23 UNK        -0.1150 
     15 C15        -3.9506  -17.4156  -51.5200 C.3       23 UNK        -0.0205 
     16 S16        -5.3672  -16.9696  -50.4597 S.3       23 UNK        -0.2404 
     17 C17        -4.8064  -17.4059  -48.7796 C.3       23 UNK        -0.0398 
     18 CA         -4.7703  -18.9396  -48.5449 C.3       11 UNK         0.1400 
     19 N          -3.4576  -19.4909  -48.8832 N.am      11 UNK        -0.5000 
     20 C          -3.1359  -20.7901  -48.9195 C.2       10 UNK         0.5000 
     21 O          -3.9522  -21.6972  -48.7644 O.2       10 UNK        -0.5000 
     22 CA         -1.6385  -21.1207  -49.0706 C.3       10 UNK         0.1400 
     23 CB         -1.3127  -21.4603  -50.5260 C.3       10 UNK        -0.1800 
     24 N          -0.7588  -20.0343  -48.6238 N.am      10 UNK        -0.5000 
     25 C          -0.7051  -19.5578  -47.3741 C.2       9 UNK         0.5000 
     26 O          -1.3577  -20.0261  -46.4412 O.2       9 UNK        -0.5000 
     27 CA          0.1427  -18.2989  -47.1436 C.3       9 UNK         0.1400 
     28 CB         -0.6797  -17.2465  -46.3837 C.3       9 UNK        -0.1800 
     29 N           1.3712  -18.5730  -46.4054 N.am      9 UNK        -0.5000 
     30 C           2.3697  -19.3662  -46.8184 C.2       8 UNK         0.5000 
     31 O           2.3591  -19.9956  -47.8752 O.2       8 UNK        -0.5000 
     32 CA          3.6050  -19.4575  -45.9092 C.3       8 UNK         0.1400 
     33 CB          4.6987  -18.4985  -46.4050 C.3       8 UNK        -0.1800 
     34 N           3.2829  -19.1517  -44.5136 N.am      8 UNK        -0.5000 
     35 C           2.9643  -20.0803  -43.6002 C.2       7 UNK         0.5000 
     36 O           2.9367  -21.2892  -43.8336 O.2       7 UNK        -0.5000 
     37 CA          2.6196  -19.5829  -42.1851 C.3       7 UNK         0.1400 
     38 CB          3.8885  -19.4990  -41.3241 C.3       7 UNK        -0.1800 
     39 N           1.9393  -18.2865  -42.1971 N.am      7 UNK        -0.5000 
     40 C           0.6477  -18.1318  -42.5261 C.2       6 UNK         0.5000 
     41 O          -0.0842  -19.0761  -42.8223 O.2       6 UNK        -0.5000 
     42 CA          0.0710  -16.7020  -42.5740 C.3       6 UNK         0.1400 
     43 CB         -1.3426  -16.6105  -41.9634 C.3       6 UNK        -0.1800 
     44 N           0.9620  -15.6708  -42.0391 N.am      6 UNK        -0.5000 
     45 C           1.3035  -15.4245  -40.7673 C.2       5 UNK         0.5000 
     46 O           0.8599  -16.0388  -39.7968 O.2       5 UNK        -0.5000 
     47 CA          2.3459  -14.2989  -40.5791 C.3       5 UNK         0.1400 
     48 CB          3.0511  -14.3493  -39.2076 C.3       5 UNK        -0.1800 
     49 N           3.3249  -14.2511  -41.6765 N.am      5 UNK        -0.5000 
     50 C           4.1718  -15.2294  -42.0332 C.2       4 UNK         0.5000 
     51 O           4.2625  -16.3000  -41.4335 O.2       4 UNK        -0.5000 
     52 CA          4.9954  -14.9877  -43.3157 C.3       4 UNK         0.1400 
     53 CB          5.7859  -16.2343  -43.7614 C.3       4 UNK        -0.1800 
     54 N           4.1730  -14.4719  -44.4177 N.am      4 UNK        -0.5000 
     55 C           3.0895  -15.0449  -44.9616 C.2       3 UNK         0.5000 
     56 O           2.6480  -16.1536  -44.6420 O.2       3 UNK        -0.5000 
     57 CA          2.3415  -14.2032  -46.0142 C.3       3 UNK         0.1400 
     58 CB          2.3718  -14.8912  -47.3880 C.3       3 UNK        -0.1800 
     59 N           0.9521  -13.9550  -45.6224 N.am      3 UNK        -0.5000 
     60 C           0.5517  -13.3539  -44.4948 C.2       2 UNK         0.5000 
     61 O           1.3315  -12.8710  -43.6712 O.2       2 UNK        -0.5000 
     62 CA         -0.9694  -13.3129  -44.2366 C.3       2 UNK         0.1400 
     63 CB         -1.3200  -12.7093  -42.8644 C.3       2 UNK        -0.1800 
     64 N          -1.7018  -12.5782  -45.2661 N.am      2 UNK        -0.5000 
     65 C          -1.9943  -13.0170  -46.4957 C.2       1 UNK         0.5000 
     66 O          -1.6331  -14.1155  -46.9208 O.2       1 UNK        -0.5000 
     67 C          -5.2272  -19.3153  -47.1144 C.2       11 UNK         0.5000 
     68 O          -6.4328  -19.3796  -46.8743 O.2       11 UNK        -0.5000 
     69 N          -4.2759  -19.5879  -46.2099 N.am      12 UNK        -0.5000 
     70 CA         -4.5267  -20.0936  -44.8637 C.3       12 UNK         0.1400 
     71 CB         -3.7227  -19.2600  -43.8525 C.3       12 UNK        -0.1800 
     72 C          -4.1520  -21.5819  -44.7721 C.2       12 UNK         0.5000 
     73 O          -4.9835  -22.3926  -44.3654 O.2       12 UNK        -0.5000 
     74 N          -2.9155  -21.9184  -45.1653 N.am      13 UNK        -0.5000 
     75 CA         -2.2947  -23.2335  -44.9885 C.3       13 UNK         0.1400 
     76 CB         -0.7940  -23.1243  -45.3021 C.3       13 UNK        -0.1800 
     77 C          -2.9394  -24.3626  -45.8129 C.2       13 UNK         0.5000 
     78 O          -2.9674  -25.5026  -45.3479 O.2       13 UNK        -0.5000 
     79 N          -3.4545  -24.0296  -47.0025 N.am      14 UNK        -0.5000 
     80 CA         -4.1920  -24.9373  -47.8846 C.3       14 UNK         0.1400 
     81 CB         -3.4642  -25.0249  -49.2402 C.3       14 UNK        -0.1800 
     82 C          -5.6518  -24.4751  -48.0573 C.2       14 UNK         0.5000 
     83 O          -6.3457  -24.9885  -48.9343 O.2       14 UNK        -0.5000 
     84 N          -6.0867  -23.4912  -47.2517 N.am      15 UNK        -0.5000 
     85 CA         -7.4096  -22.8523  -47.2454 C.3       15 UNK         0.1400 
     86 CB         -8.4587  -23.8285  -46.6752 C.3       15 UNK        -0.1800 
     87 C          -7.8358  -22.2618  -48.6107 C.2       15 UNK         0.5000 
     88 O          -9.0324  -22.1793  -48.8922 O.2       15 UNK        -0.5000 
     89 N          -6.8483  -21.8972  -49.4448 N.am      16 UNK        -0.5000 
     90 CA         -6.9702  -21.4529  -50.8390 C.3       16 UNK         0.1400 
     91 CB         -7.8004  -20.1540  -50.9430 C.3       16 UNK        -0.1800 
     92 C          -7.4910  -22.5404  -51.8087 C.2       16 UNK         0.5000 
     93 O          -7.8403  -22.2109  -52.9436 O.2       16 UNK        -0.5000 
     94 N          -7.5296  -23.8115  -51.3784 N.am      17 UNK        -0.5000 
     95 CA         -7.9917  -24.9444  -52.1877 C.3       17 UNK         0.1400 
     96 CB         -8.3978  -26.0993  -51.2594 C.3       17 UNK        -0.1800 
     97 C          -6.9404  -25.4165  -53.2106 C.2       17 UNK         0.5000 
     98 O          -7.2947  -26.0900  -54.1793 O.2       17 UNK        -0.5000 
     99 N          -5.6761  -25.0488  -52.9846 N.am      18 UNK        -0.5000 
    100 CA        -4.5419  -25.2691  -53.8694 C.3       18 UNK         0.1400 
    101 CB        -3.8142  -26.5601  -53.4578 C.3       18 UNK        -0.1800 
    102 C         -3.6124  -24.0546  -53.7547 C.2       18 UNK         0.5000 
    103 O         -3.6429  -23.3579  -52.7360 O.2       18 UNK        -0.5000 
    104 N         -2.7929  -23.8326  -54.7904 N.am      19 UNK        -0.5000 
    105 CA        -1.7759  -22.7782  -54.8143 C.3       19 UNK         0.1400 
    106 CB        -1.2794  -22.5727  -56.2532 C.3       19 UNK        -0.1800 
    107 C         -0.5972  -23.0812  -53.8730 C.2       19 UNK         0.5000 
    108 O         -0.0618  -22.1557  -53.2669 O.2       19 UNK        -0.5000 
    109 N         -0.2376  -24.3700  -53.7566 N.am      20 UNK        -0.5000 
    110 CA         0.7812  -24.9332  -52.8645 C.3       20 UNK         0.1400 
    111 CB         0.2019  -25.0523  -51.4365 C.3       20 UNK        -0.1800 
    112 C          2.1282  -24.1772  -52.9447 C.2       20 UNK         0.5000 
    113 O          2.6757  -24.0340  -54.0403 O.2       20 UNK        -0.5000 
    114 N          2.6208  -23.6801  -51.8021 N.am      21 UNK        -0.5000 
    115 CA         3.8483  -22.8900  -51.6743 C.3       21 UNK         0.1400 
    116 CB         4.1627  -22.7122  -50.1802 C.3       21 UNK        -0.1800 
    117 C          3.7952  -21.5156  -52.3743 C.2       21 UNK         0.5000 
    118 O          4.8507  -20.9505  -52.6645 O.2       21 UNK        -0.5000 
    119 N          2.5854  -21.0063  -52.6328 N.am      22 UNK        -0.5000 
    120 CA         2.3294  -19.7343  -53.3249 C.3       22 UNK         0.1400 
    121 C          2.2264  -19.8848  -54.8720 C.2       22 UNK         0.5000 
    122 N          2.3323  -21.0815  -55.4405 N.am      22 UNK        -0.7600 
    123 O          2.0681  -18.8913  -55.5762 O.2       22 UNK        -0.5000 
    124 C124        1.0893  -19.0076  -52.7397 C.3       23 UNK        -0.0398 
    125 S125        1.2364  -18.7300  -50.9393 S.3       23 UNK        -0.2404 
    126 C126        1.0940  -16.9161  -50.8157 C.3       23 UNK        -0.0205 
    127 H127       -6.4294  -10.2106  -45.3385 H         1 UNK         0.0600 
    128 H128       -6.0322  -11.5239  -44.2251 H         1 UNK         0.0600 
    129 H129       -6.5916  -11.8900  -45.8597 H         1 UNK         0.0600 
    130 H130       -4.9211  -12.5560  -47.1721 H         1 UNK         0.3000 
    131 H131       -2.4108  -11.0933  -47.3274 H         1 UNK         0.0600 
    132 H132       -3.1385  -13.5778  -48.9489 H         1 UNK         0.0800 
    133 H133       -3.8035  -12.0136  -49.3270 H         1 UNK         0.0800 
    134 H134       -1.0538  -12.4721  -52.1062 H         1 UNK         0.0800 
    135 H135       -2.7624  -12.5302  -51.7544 H         1 UNK         0.0800 
    136 H136        0.4463  -14.3264  -50.9996 H         1 UNK         0.1150 
    137 H137       -1.4011  -18.2016  -51.0708 H         1 UNK         0.1150 
    138 H138       -3.7818  -14.6876  -51.5688 H         1 UNK         0.1150 
    139 H139       -4.2640  -17.3167  -52.5600 H         1 UNK         0.0800 
    140 H140       -3.7138  -18.4709  -51.3834 H         1 UNK         0.0800 
    141 H141       -5.5089  -16.9181  -48.1008 H         1 UNK         0.0800 
    142 H142       -3.8398  -16.9406  -48.5782 H         1 UNK         0.0800 
    143 H143       -5.4877  -19.4146  -49.2120 H         1 UNK         0.0600 
    144 H144       -2.7163  -18.8217  -49.0203 H         1 UNK         0.3000 
    145 H145       -1.4286  -21.9988  -48.4579 H         1 UNK         0.0600 
    146 H146       -1.8822  -22.3271  -50.8632 H         1 UNK         0.0600 
    147 H147       -0.2555  -21.6983  -50.6422 H         1 UNK         0.0600 
    148 H148       -1.5445  -20.6355  -51.2002 H         1 UNK         0.0600 
    149 H149       -0.1413  -19.6374  -49.3218 H         1 UNK         0.3000 
    150 H150        0.4201  -17.8761  -48.1090 H         1 UNK         0.0600 
    151 H151       -1.5583  -16.9492  -46.9577 H         1 UNK         0.0600 
    152 H152       -0.0977  -16.3483  -46.1973 H         1 UNK         0.0600 
    153 H153       -1.0304  -17.6210  -45.4215 H         1 UNK         0.0600 
    154 H154        1.4853  -18.0934  -45.5247 H         1 UNK         0.3000 
    155 H155        3.9966  -20.4740  -45.9880 H         1 UNK         0.0600 
    156 H156        4.3759  -17.4582  -46.3643 H         1 UNK         0.0600 
    157 H157        4.9669  -18.7158  -47.4397 H         1 UNK         0.0600 
    158 H158        5.6067  -18.5955  -45.8100 H         1 UNK         0.0600 
    159 H159        3.2466  -18.1713  -44.2585 H         1 UNK         0.3000 
    160 H160        1.9544  -20.3167  -41.7245 H         1 UNK         0.0600 
    161 H161        4.6463  -18.8628  -41.7822 H         1 UNK         0.0600 
    162 H162        4.3323  -20.4865  -41.1922 H         1 UNK         0.0600 
    163 H163        3.6708  -19.1035  -40.3318 H         1 UNK         0.0600 
    164 H164        2.4989  -17.4743  -41.9653 H         1 UNK         0.3000 
    165 H165       -0.0218  -16.4653  -43.6330 H         1 UNK         0.0600 
    166 H166       -1.7305  -15.5933  -42.0015 H         1 UNK         0.0600 
    167 H167       -1.3577  -16.9374  -40.9237 H         1 UNK         0.0600 
    168 H168       -2.0433  -17.2419  -42.5094 H         1 UNK         0.0600 
    169 H169        1.4507  -15.1306  -42.7404 H         1 UNK         0.3000 
    170 H170        1.7884  -13.3624  -40.6283 H         1 UNK         0.0600 
    171 H171        2.3320  -14.2385  -38.3952 H         1 UNK         0.0600 
    172 H172        3.5737  -15.2936  -39.0526 H         1 UNK         0.0600 
    173 H173        3.7777  -13.5431  -39.1083 H         1 UNK         0.0600 
    174 H174        3.2691  -13.4316  -42.2679 H         1 UNK         0.3000 
    175 H175        5.7184  -14.2071  -43.0750 H         1 UNK         0.0600 
    176 H176        5.1323  -17.0911  -43.9149 H         1 UNK         0.0600 
    177 H177        6.3275  -16.0516  -44.6894 H         1 UNK         0.0600 
    178 H178        6.5193  -16.5195  -43.0064 H         1 UNK         0.0600 
    179 H179        4.4305  -13.5505  -44.7433 H         1 UNK         0.3000 
    180 H180        2.8309  -13.2320  -46.1105 H         1 UNK         0.0600 
    181 H181        1.9214  -15.8823  -47.3566 H         1 UNK         0.0600 
    182 H182        3.3973  -15.0134  -47.7385 H         1 UNK         0.0600 
    183 H183        1.8390  -14.3052  -48.1374 H         1 UNK         0.0600 
    184 H184        0.2299  -14.2860  -46.2545 H         1 UNK         0.3000 
    185 H185       -1.3204  -14.3466  -44.2399 H         1 UNK         0.0600 
    186 H186       -0.8168  -13.2424  -42.0571 H         1 UNK         0.0600 
    187 H187       -1.0255  -11.6611  -42.7993 H         1 UNK         0.0600 
    188 H188       -2.3912  -12.7684  -42.6708 H         1 UNK         0.0600 
    189 H189       -2.0760  -11.6748  -44.9958 H         1 UNK         0.3000 
    190 H190       -3.3026  -19.5529  -46.4906 H         1 UNK         0.3000 
    191 H191       -5.5836  -20.0003  -44.6052 H         1 UNK         0.0600 
    192 H192       -3.8736  -19.6248  -42.8358 H         1 UNK         0.0600 
    193 H193       -4.0334  -18.2155  -43.8730 H         1 UNK         0.0600 
    194 H194       -2.6516  -19.2916  -44.0564 H         1 UNK         0.0600 
    195 H195       -2.3006  -21.1871  -45.5204 H         1 UNK         0.3000 
    196 H196       -2.3982  -23.5028  -43.9353 H         1 UNK         0.0600 
    197 H197       -0.6178  -22.8408  -46.3398 H         1 UNK         0.0600 
    198 H198       -0.3111  -22.3799  -44.6680 H         1 UNK         0.0600 
    199 H199       -0.2876  -24.0750  -45.1307 H         1 UNK         0.0600 
    200 H200       -3.4090  -23.0668  -47.3149 H         1 UNK         0.3000 
    201 H201       -4.2337  -25.9415  -47.4590 H         1 UNK         0.0600 
    202 H202       -3.4697  -24.0726  -49.7703 H         1 UNK         0.0600 
    203 H203       -3.9372  -25.7602  -49.8923 H         1 UNK         0.0600 
    204 H204       -2.4254  -25.3290  -49.1117 H         1 UNK         0.0600 
    205 H205       -5.4453  -23.1559  -46.5462 H         1 UNK         0.3000 
    206 H206       -7.3361  -22.0072  -46.5599 H         1 UNK         0.0600 
    207 H207       -8.1470  -24.2193  -45.7066 H         1 UNK         0.0600 
    208 H208       -9.4193  -23.3335  -46.5284 H         1 UNK         0.0600 
    209 H209       -8.6241  -24.6757  -47.3417 H         1 UNK         0.0600 
    210 H210       -5.8936  -22.0096  -49.1153 H         1 UNK         0.3000 
    211 H211       -5.9536  -21.2223  -51.1614 H         1 UNK         0.0600 
    212 H212       -7.6706  -19.6881  -51.9204 H         1 UNK         0.0600 
    213 H213       -7.5087  -19.4189  -50.1949 H         1 UNK         0.0600 
    214 H214       -8.8662  -20.3454  -50.8161 H         1 UNK         0.0600 
    215 H215       -7.2040  -24.0333  -50.4419 H         1 UNK         0.3000 
    216 H216       -8.8785  -24.6340  -52.7443 H         1 UNK         0.0600 
    217 H217       -7.5382  -26.5150  -50.7330 H         1 UNK         0.0600 
    218 H218       -8.8549  -26.9110  -51.8266 H         1 UNK         0.0600 
    219 H219       -9.1234  -25.7730  -50.5141 H         1 UNK         0.0600 
    220 H220       -5.4758  -24.4460  -52.1967 H         1 UNK         0.3000 
    221 H221       -4.8843  -25.3492  -54.9034 H         1 UNK         0.0600 
    222 H222       -4.4775  -27.4230  -53.5201 H         1 UNK         0.0600 
    223 H223       -3.4385  -26.5002  -52.4354 H         1 UNK         0.0600 
    224 H224       -2.9631  -26.7570  -54.1104 H         1 UNK         0.0600 
    225 H225       -2.8371  -24.4398  -55.5961 H         1 UNK         0.3000 
    226 H226       -2.2363  -21.8465  -54.4778 H         1 UNK         0.0600 
    227 H227       -0.8136  -23.4740  -56.6535 H         1 UNK         0.0600 
    228 H228       -2.0975  -22.2927  -56.9168 H         1 UNK         0.0600 
    229 H229       -0.5383  -21.7732  -56.2972 H         1 UNK         0.0600 
    230 H230       -0.7252  -25.0398  -54.3324 H         1 UNK         0.3000 
    231 H231        0.9824  -25.9432  -53.2238 H         1 UNK         0.0600 
    232 H232       -0.0279  -24.0788  -51.0048 H         1 UNK         0.0600 
    233 H233        0.8937  -25.5647  -50.7669 H         1 UNK         0.0600 
    234 H234       -0.7222  -25.6310  -51.4402 H         1 UNK         0.0600 
    235 H235        2.0949  -23.8257  -50.9532 H         1 UNK         0.3000 
    236 H236        4.6610  -23.4576  -52.1320 H         1 UNK         0.0600 
    237 H237        4.2794  -23.6747  -49.6820 H         1 UNK         0.0600 
    238 H238        5.0927  -22.1599  -50.0388 H         1 UNK         0.0600 
    239 H239        3.3739  -22.1596  -49.6674 H         1 UNK         0.0600 
    240 H240        1.7588  -21.5562  -52.4291 H         1 UNK         0.3000 
    241 H241        3.1843  -19.0768  -53.1575 H         1 UNK         0.0600 
    242 H242        2.4583  -21.9107  -54.8757 H         1 UNK         0.3800 
    243 H243        2.2800  -21.1601  -56.4433 H         1 UNK         0.3800 
    244 H244        0.9392  -18.0488  -53.2385 H         1 UNK         0.0800 
    245 H245        0.1825  -19.5846  -52.9227 H         1 UNK         0.0800 
    246 H246        1.4568  -16.6134  -49.8333 H         1 UNK         0.0800 
    247 H247        1.7746  -16.4649  -51.5394 H         1 UNK         0.0800 
@<TRIPOS>BOND
     1    1    2 1    
     2    1  127 1    
     3    1  128 1    
     4    1  129 1    
     5    2    3 2    
     6    2    4 am   BACKBONE|DICT|INTERRES
     7    4    5 1    
     8    4  130 1    
     9    5    6 1    
    10    5   65 1    
    11    5  131 1    
    12    6    7 1    
    13    6  132 1    
    14    6  133 1    
    15    7    8 1    
    16    8    9 1    
    17    8  134 1    
    18    8  135 1    
    19    9   10 ar   
    20    9   14 ar   
    21   10   11 ar   
    22   10  136 1    
    23   11   12 ar   
    24   11  126 1    
    25   12   13 ar   
    26   12  137 1    
    27   13   14 ar   
    28   13   15 1    
    29   14  138 1    
    30   15   16 1    
    31   15  139 1    
    32   15  140 1    
    33   16   17 1    
    34   17   18 1    
    35   17  141 1    
    36   17  142 1    
    37   18   19 1    
    38   18   67 1    
    39   18  143 1    
    40   19   20 am   BACKBONE|DICT|INTERRES
    41   19  144 1    
    42   20   21 2    
    43   20   22 1    
    44   22   23 1    
    45   22   24 1    
    46   22  145 1    
    47   23  146 1    
    48   23  147 1    
    49   23  148 1    
    50   24   25 am   BACKBONE|DICT|INTERRES
    51   24  149 1    
    52   25   26 2    
    53   25   27 1    
    54   27   28 1    
    55   27   29 1    
    56   27  150 1    
    57   28  151 1    
    58   28  152 1    
    59   28  153 1    
    60   29   30 am   BACKBONE|DICT|INTERRES
    61   29  154 1    
    62   30   31 2    
    63   30   32 1    
    64   32   33 1    
    65   32   34 1    
    66   32  155 1    
    67   33  156 1    
    68   33  157 1    
    69   33  158 1    
    70   34   35 am   BACKBONE|DICT|INTERRES
    71   34  159 1    
    72   35   36 2    
    73   35   37 1    
    74   37   38 1    
    75   37   39 1    
    76   37  160 1    
    77   38  161 1    
    78   38  162 1    
    79   38  163 1    
    80   39   40 am   BACKBONE|DICT|INTERRES
    81   39  164 1    
    82   40   41 2    
    83   40   42 1    
    84   42   43 1    
    85   42   44 1    
    86   42  165 1    
    87   43  166 1    
    88   43  167 1    
    89   43  168 1    
    90   44   45 am   BACKBONE|DICT|INTERRES
    91   44  169 1    
    92   45   46 2    
    93   45   47 1    
    94   47   48 1    
    95   47   49 1    
    96   47  170 1    
    97   48  171 1    
    98   48  172 1    
    99   48  173 1    
   100   49   50 am   BACKBONE|DICT|INTERRES
   101   49  174 1    
   102   50   51 2    
   103   50   52 1    
   104   52   53 1    
   105   52   54 1    
   106   52  175 1    
   107   53  176 1    
   108   53  177 1    
   109   53  178 1    
   110   54   55 am   BACKBONE|DICT|INTERRES
   111   54  179 1    
   112   55   56 2    
   113   55   57 1    
   114   57   58 1    
   115   57   59 1    
   116   57  180 1    
   117   58  181 1    
   118   58  182 1    
   119   58  183 1    
   120   59   60 am   BACKBONE|DICT|INTERRES
   121   59  184 1    
   122   60   61 2    
   123   60   62 1    
   124   62   63 1    
   125   62   64 1    
   126   62  185 1    
   127   63  186 1    
   128   63  187 1    
   129   63  188 1    
   130   64   65 am   BACKBONE|DICT|INTERRES
   131   64  189 1    
   132   65   66 2    
   133   67   68 2    
   134   67   69 am   BACKBONE|DICT|INTERRES
   135   69   70 1    
   136   69  190 1    
   137   70   71 1    
   138   70   72 1    
   139   70  191 1    
   140   71  192 1    
   141   71  193 1    
   142   71  194 1    
   143   72   73 2    
   144   72   74 am   BACKBONE|DICT|INTERRES
   145   74   75 1    
   146   74  195 1    
   147   75   76 1    
   148   75   77 1    
   149   75  196 1    
   150   76  197 1    
   151   76  198 1    
   152   76  199 1    
   153   77   78 2    
   154   77   79 am   BACKBONE|DICT|INTERRES
   155   79   80 1    
   156   79  200 1    
   157   80   81 1    
   158   80   82 1    
   159   80  201 1    
   160   81  202 1    
   161   81  203 1    
   162   81  204 1    
   163   82   83 2    
   164   82   84 am   BACKBONE|DICT|INTERRES
   165   84   85 1    
   166   84  205 1    
   167   85   86 1    
   168   85   87 1    
   169   85  206 1    
   170   86  207 1    
   171   86  208 1    
   172   86  209 1    
   173   87   88 2    
   174   87   89 am   BACKBONE|DICT|INTERRES
   175   89   90 1    
   176   89  210 1    
   177   90   91 1    
   178   90   92 1    
   179   90  211 1    
   180   91  212 1    
   181   91  213 1    
   182   91  214 1    
   183   92   93 2    
   184   92   94 am   BACKBONE|DICT|INTERRES
   185   94   95 1    
   186   94  215 1    
   187   95   96 1    
   188   95   97 1    
   189   95  216 1    
   190   96  217 1    
   191   96  218 1    
   192   96  219 1    
   193   97   98 2    
   194   97   99 am   BACKBONE|DICT|INTERRES
   195   99  100 1    
   196   99  220 1    
   197  100  101 1    
   198  100  102 1    
   199  100  221 1    
   200  101  222 1    
   201  101  223 1    
   202  101  224 1    
   203  102  103 2    
   204  102  104 am   BACKBONE|DICT|INTERRES
   205  104  105 1    
   206  104  225 1    
   207  105  106 1    
   208  105  107 1    
   209  105  226 1    
   210  106  227 1    
   211  106  228 1    
   212  106  229 1    
   213  107  108 2    
   214  107  109 am   BACKBONE|DICT|INTERRES
   215  109  110 1    
   216  109  230 1    
   217  110  111 1    
   218  110  112 1    
   219  110  231 1    
   220  111  232 1    
   221  111  233 1    
   222  111  234 1    
   223  112  113 2    
   224  112  114 am   BACKBONE|DICT|INTERRES
   225  114  115 1    
   226  114  235 1    
   227  115  116 1    
   228  115  117 1    
   229  115  236 1    
   230  116  237 1    
   231  116  238 1    
   232  116  239 1    
   233  117  118 2    
   234  117  119 am   BACKBONE|DICT|INTERRES
   235  119  120 1    
   236  119  240 1    
   237  120  121 1    
   238  120  124 1    
   239  120  241 1    
   240  121  122 am   BACKBONE|DICT|INTERRES
   241  121  123 2    
   242  122  242 1    
   243  122  243 1    
   244  124  125 1    
   245  124  244 1    
   246  124  245 1    
   247  125  126 1    
   248  126  246 1    
   249  126  247 1    
@<TRIPOS>SUBSTRUCTURE
     1 UNK         1 GROUP             0       ****    0 ROOT    
