@<TRIPOS>MOLECULE
3R540
247   249    1
SMALL
USER_CHARGES


@<TRIPOS>ATOM
      1 CA          4.0011  -14.7288  -49.5142 C.3       0 UNK        -0.1800 
      2 C           3.2954  -14.4018  -48.2069 C.2       0 UNK         0.5000 
      3 O           3.8172  -14.7045  -47.1341 O.2       0 UNK        -0.5000 
      4 N           2.1143  -13.7742  -48.2878 N.am      1 UNK        -0.5000 
      5 CA          1.2437  -13.4556  -47.1455 C.3       1 UNK         0.1400 
      6 C6         -0.1714  -12.9748  -47.5734 C.3       23 UNK        -0.0398 
      7 S7         -0.9004  -13.8572  -48.9976 S.3       23 UNK        -0.2404 
      8 C8         -1.3207  -15.4829  -48.2995 C.3       23 UNK        -0.0205 
      9 C9         -0.8913  -16.5808  -49.2559 C.ar      23 UNK        -0.0193 
     10 C10        -1.7589  -17.0295  -50.2547 C.ar      23 UNK        -0.1150 
     11 C11        -1.3374  -17.9865  -51.1829 C.ar      23 UNK        -0.0193 
     12 C12        -0.0468  -18.5161  -51.0894 C.ar      23 UNK        -0.1150 
     13 C13         0.8264  -18.0783  -50.0885 C.ar      23 UNK        -0.0193 
     14 C14         0.3979  -17.1109  -49.1753 C.ar      23 UNK        -0.1150 
     15 C15         2.2481  -18.6147  -50.0155 C.3       23 UNK        -0.0205 
     16 S16         2.3211  -20.3212  -49.3907 S.3       23 UNK        -0.2404 
     17 C17         1.6634  -20.1359  -47.6973 C.3       23 UNK        -0.0398 
     18 CA          0.7376  -21.3029  -47.2894 C.3       11 UNK         0.1400 
     19 N           0.5409  -21.3533  -45.8411 N.am      11 UNK        -0.5000 
     20 C           0.0542  -22.4132  -45.1837 C.2       10 UNK         0.5000 
     21 O          -0.2767  -23.4633  -45.7331 O.2       10 UNK        -0.5000 
     22 CA         -0.1224  -22.2672  -43.6629 C.3       10 UNK         0.1400 
     23 CB          1.2249  -22.4230  -42.9422 C.3       10 UNK        -0.1800 
     24 N          -0.7434  -20.9984  -43.2824 N.am      10 UNK        -0.5000 
     25 C          -1.9838  -20.6284  -43.6323 C.2       9 UNK         0.5000 
     26 O          -2.7407  -21.3233  -44.3093 O.2       9 UNK        -0.5000 
     27 CA         -2.4454  -19.2308  -43.1864 C.3       9 UNK         0.1400 
     28 CB         -2.8212  -19.2260  -41.6971 C.3       9 UNK        -0.1800 
     29 N          -1.4460  -18.1959  -43.4445 N.am      9 UNK        -0.5000 
     30 C          -0.9882  -17.8643  -44.6605 C.2       8 UNK         0.5000 
     31 O          -1.3621  -18.3871  -45.7088 O.2       8 UNK        -0.5000 
     32 CA          0.1143  -16.7972  -44.7060 C.3       8 UNK         0.1400 
     33 CB         -0.4689  -15.4122  -44.3824 C.3       8 UNK        -0.1800 
     34 N           1.2084  -17.0969  -43.7858 N.am      8 UNK        -0.5000 
     35 C           1.9565  -18.2092  -43.8050 C.2       7 UNK         0.5000 
     36 O           1.8462  -19.1002  -44.6461 O.2       7 UNK        -0.5000 
     37 CA          2.9589  -18.3811  -42.6526 C.3       7 UNK         0.1400 
     38 CB          4.2392  -17.5726  -42.9115 C.3       7 UNK        -0.1800 
     39 N           2.3802  -18.0004  -41.3634 N.am      7 UNK        -0.5000 
     40 C           1.3777  -18.6549  -40.7584 C.2       6 UNK         0.5000 
     41 O           0.8513  -19.6722  -41.2081 O.2       6 UNK        -0.5000 
     42 CA          0.8483  -18.0419  -39.4501 C.3       6 UNK         0.1400 
     43 CB          1.7453  -18.4299  -38.2651 C.3       6 UNK        -0.1800 
     44 N           0.7433  -16.5845  -39.5255 N.am      6 UNK        -0.5000 
     45 C          -0.1296  -15.9304  -40.3050 C.2       5 UNK         0.5000 
     46 O          -0.9700  -16.4903  -41.0093 O.2       5 UNK        -0.5000 
     47 CA         -0.0039  -14.3946  -40.3368 C.3       5 UNK         0.1400 
     48 CB         -0.7755  -13.7631  -39.1686 C.3       5 UNK        -0.1800 
     49 N           1.3889  -13.9326  -40.3110 N.am      5 UNK        -0.5000 
     50 C           2.2789  -14.1911  -41.2772 C.2       4 UNK         0.5000 
     51 O           2.0148  -14.8480  -42.2863 O.2       4 UNK        -0.5000 
     52 CA          3.7123  -13.6906  -41.0649 C.3       4 UNK         0.1400 
     53 CB          4.4727  -14.6748  -40.1506 C.3       4 UNK        -0.1800 
     54 N           4.3353  -13.5902  -42.3825 N.am      4 UNK        -0.5000 
     55 C           5.5781  -13.1933  -42.6741 C.2       3 UNK         0.5000 
     56 O           6.4097  -12.8413  -41.8367 O.2       3 UNK        -0.5000 
     57 CA          5.9430  -13.1592  -44.1708 C.3       3 UNK         0.1400 
     58 CB          6.1833  -14.5793  -44.7072 C.3       3 UNK        -0.1800 
     59 N           4.9363  -12.4893  -44.9999 N.am      3 UNK        -0.5000 
     60 C           4.5981  -11.1940  -44.8918 C.2       2 UNK         0.5000 
     61 O           5.0945  -10.4305  -44.0624 O.2       2 UNK        -0.5000 
     62 CA          3.5587  -10.6293  -45.8826 C.3       2 UNK         0.1400 
     63 CB          4.2306   -9.6675  -46.8761 C.3       2 UNK        -0.1800 
     64 N           2.8406  -11.6506  -46.6439 N.am      2 UNK        -0.5000 
     65 C           1.8684  -12.4365  -46.1626 C.2       1 UNK         0.5000 
     66 O           1.4614  -12.3752  -45.0033 O.2       1 UNK        -0.5000 
     67 C          -0.6043  -21.3121  -48.0536 C.2       11 UNK         0.5000 
     68 O          -0.7232  -22.0332  -49.0437 O.2       11 UNK        -0.5000 
     69 N          -1.6143  -20.5829  -47.5545 N.am      12 UNK        -0.5000 
     70 CA         -2.9751  -20.6076  -48.0936 C.3       12 UNK         0.1400 
     71 CB         -3.8285  -19.5162  -47.4338 C.3       12 UNK        -0.1800 
     72 C          -3.6412  -21.9884  -47.9494 C.2       12 UNK         0.5000 
     73 O          -4.2823  -22.4468  -48.8950 O.2       12 UNK        -0.5000 
     74 N          -3.4474  -22.6475  -46.7974 N.am      13 UNK        -0.5000 
     75 CA         -3.9055  -24.0134  -46.5355 C.3       13 UNK         0.1400 
     76 CB         -3.7087  -24.3605  -45.0527 C.3       13 UNK        -0.1800 
     77 C          -3.2189  -25.0523  -47.4407 C.2       13 UNK         0.5000 
     78 O          -3.9018  -25.9215  -47.9829 O.2       13 UNK        -0.5000 
     79 N          -1.8991  -24.9143  -47.6392 N.am      14 UNK        -0.5000 
     80 CA         -1.1058  -25.7173  -48.5768 C.3       14 UNK         0.1400 
     81 CB          0.3857  -25.3963  -48.4008 C.3       14 UNK        -0.1800 
     82 C          -1.5383  -25.5248  -50.0444 C.2       14 UNK         0.5000 
     83 O          -1.5008  -26.4784  -50.8216 O.2       14 UNK        -0.5000 
     84 N          -2.0079  -24.3149  -50.3745 N.am      15 UNK        -0.5000 
     85 CA         -2.6528  -23.9527  -51.6359 C.3       15 UNK         0.1400 
     86 CB         -2.4851  -22.4403  -51.8656 C.3       15 UNK        -0.1800 
     87 C          -4.1379  -24.3758  -51.7121 C.2       15 UNK         0.5000 
     88 O          -4.8564  -23.8668  -52.5723 O.2       15 UNK        -0.5000 
     89 N          -4.5873  -25.2850  -50.8344 N.am      16 UNK        -0.5000 
     90 CA         -5.9310  -25.8707  -50.7679 C.3       16 UNK         0.1400 
     91 CB         -6.2316  -26.6958  -52.0378 C.3       16 UNK        -0.1800 
     92 C          -7.0214  -24.8284  -50.4493 C.2       16 UNK         0.5000 
     93 O          -8.0902  -24.8450  -51.0604 O.2       16 UNK        -0.5000 
     94 N          -6.7101  -23.9326  -49.5017 N.am      17 UNK        -0.5000 
     95 CA         -7.4811  -22.7474  -49.1109 C.3       17 UNK         0.1400 
     96 CB         -8.8749  -23.1214  -48.5630 C.3       17 UNK        -0.1800 
     97 C          -7.5146  -21.7046  -50.2464 C.2       17 UNK         0.5000 
     98 O          -8.5717  -21.1495  -50.5514 O.2       17 UNK        -0.5000 
     99 N          -6.3347  -21.4735  -50.8435 N.am      18 UNK        -0.5000 
    100 CA        -6.0597  -20.5728  -51.9676 C.3       18 UNK         0.1400 
    101 CB        -6.1962  -19.1029  -51.5181 C.3       18 UNK        -0.1800 
    102 C         -6.8960  -20.9125  -53.2218 C.2       18 UNK         0.5000 
    103 O         -7.5760  -20.0424  -53.7708 O.2       18 UNK        -0.5000 
    104 N         -6.8432  -22.1864  -53.6301 N.am      19 UNK        -0.5000 
    105 CA        -7.5528  -22.7313  -54.7880 C.3       19 UNK         0.1400 
    106 CB        -8.6477  -23.6936  -54.3032 C.3       19 UNK        -0.1800 
    107 C         -6.6030  -23.4464  -55.7642 C.2       19 UNK         0.5000 
    108 O         -6.8065  -23.3511  -56.9751 O.2       19 UNK        -0.5000 
    109 N         -5.5838  -24.1436  -55.2414 N.am      20 UNK        -0.5000 
    110 CA        -4.5552  -24.8290  -56.0309 C.3       20 UNK         0.1400 
    111 CB        -3.9736  -25.9886  -55.2072 C.3       20 UNK        -0.1800 
    112 C         -3.4364  -23.8711  -56.4833 C.2       20 UNK         0.5000 
    113 O         -2.7494  -24.1548  -57.4653 O.2       20 UNK        -0.5000 
    114 N         -3.2913  -22.7502  -55.7722 N.am      21 UNK        -0.5000 
    115 CA        -2.4558  -21.6070  -56.1096 C.3       21 UNK         0.1400 
    116 CB        -1.0773  -21.7419  -55.4409 C.3       21 UNK        -0.1800 
    117 C         -3.2007  -20.3516  -55.6359 C.2       21 UNK         0.5000 
    118 O         -4.0829  -20.4597  -54.7797 O.2       21 UNK        -0.5000 
    119 N         -2.8350  -19.1961  -56.2011 N.am      22 UNK        -0.5000 
    120 CA        -3.5322  -17.9043  -56.0567 C.3       22 UNK         0.1400 
    121 C         -4.8972  -17.8599  -56.8145 C.2       22 UNK         0.5000 
    122 N         -5.6351  -16.7599  -56.7334 N.am      22 UNK        -0.7600 
    123 O         -5.2852  -18.7911  -57.5174 O.2       22 UNK        -0.5000 
    124 C124       -3.6520  -17.4112  -54.5839 C.3       23 UNK        -0.0398 
    125 S125       -2.0446  -17.2727  -53.7326 S.3       23 UNK        -0.2404 
    126 C126       -2.2620  -18.3970  -52.3164 C.3       23 UNK        -0.0205 
    127 H127        4.2234  -15.7945  -49.5635 H         1 UNK         0.0600 
    128 H128        4.9405  -14.1801  -49.5804 H         1 UNK         0.0600 
    129 H129        3.3908  -14.4693  -50.3796 H         1 UNK         0.0600 
    130 H130        1.7261  -13.5587  -49.1958 H         1 UNK         0.3000 
    131 H131        1.1241  -14.3874  -46.5919 H         1 UNK         0.0600 
    132 H132       -0.8626  -13.0385  -46.7311 H         1 UNK         0.0800 
    133 H133       -0.1421  -11.9200  -47.8543 H         1 UNK         0.0800 
    134 H134       -0.8304  -15.6262  -47.3391 H         1 UNK         0.0800 
    135 H135       -2.3939  -15.5354  -48.1104 H         1 UNK         0.0800 
    136 H136       -2.7489  -16.6029  -50.3352 H         1 UNK         0.1150 
    137 H137        0.2871  -19.2507  -51.8088 H         1 UNK         0.1150 
    138 H138        1.0749  -16.7526  -48.4126 H         1 UNK         0.1150 
    139 H139        2.6934  -18.5846  -51.0109 H         1 UNK         0.0800 
    140 H140        2.8708  -17.9785  -49.3846 H         1 UNK         0.0800 
    141 H141        1.1532  -19.1822  -47.5655 H         1 UNK         0.0800 
    142 H142        2.5276  -20.1028  -47.0328 H         1 UNK         0.0800 
    143 H143        1.2555  -22.2268  -47.5566 H         1 UNK         0.0600 
    144 H144        0.8184  -20.5264  -45.3174 H         1 UNK         0.3000 
    145 H145       -0.7801  -23.0719  -43.3281 H         1 UNK         0.0600 
    146 H146        1.0946  -22.4193  -41.8599 H         1 UNK         0.0600 
    147 H147        1.7050  -23.3654  -43.2088 H         1 UNK         0.0600 
    148 H148        1.9140  -21.6175  -43.1982 H         1 UNK         0.0600 
    149 H149       -0.1897  -20.3799  -42.6962 H         1 UNK         0.3000 
    150 H150       -3.3380  -18.9784  -43.7624 H         1 UNK         0.0600 
    151 H151       -3.5730  -19.9859  -41.4808 H         1 UNK         0.0600 
    152 H152       -3.2365  -18.2630  -41.3997 H         1 UNK         0.0600 
    153 H153       -1.9575  -19.4262  -41.0622 H         1 UNK         0.0600 
    154 H154       -1.0942  -17.6941  -42.6351 H         1 UNK         0.3000 
    155 H155        0.5306  -16.7780  -45.7148 H         1 UNK         0.0600 
    156 H156       -0.9230  -15.3836  -43.3930 H         1 UNK         0.0600 
    157 H157       -1.2413  -15.1287  -45.0969 H         1 UNK         0.0600 
    158 H158        0.3012  -14.6443  -44.4044 H         1 UNK         0.0600 
    159 H159        1.4130  -16.3859  -43.0874 H         1 UNK         0.3000 
    160 H160        3.2298  -19.4378  -42.6017 H         1 UNK         0.0600 
    161 H161        4.0397  -16.5026  -42.9618 H         1 UNK         0.0600 
    162 H162        4.6977  -17.8627  -43.8577 H         1 UNK         0.0600 
    163 H163        4.9782  -17.7407  -42.1282 H         1 UNK         0.0600 
    164 H164        2.7225  -17.1500  -40.9448 H         1 UNK         0.3000 
    165 H165       -0.1495  -18.4483  -39.2707 H         1 UNK         0.0600 
    166 H166        1.3357  -18.0617  -37.3243 H         1 UNK         0.0600 
    167 H167        1.8298  -19.5141  -38.1793 H         1 UNK         0.0600 
    168 H168        2.7541  -18.0292  -38.3720 H         1 UNK         0.0600 
    169 H169        1.3960  -16.0473  -38.9746 H         1 UNK         0.3000 
    170 H170       -0.4545  -14.0469  -41.2689 H         1 UNK         0.0600 
    171 H171       -1.8200  -14.0779  -39.1758 H         1 UNK         0.0600 
    172 H172       -0.3533  -14.0478  -38.2041 H         1 UNK         0.0600 
    173 H173       -0.7655  -12.6748  -39.2321 H         1 UNK         0.0600 
    174 H174        1.6737  -13.3936  -39.5056 H         1 UNK         0.3000 
    175 H175        3.6821  -12.6988  -40.6105 H         1 UNK         0.0600 
    176 H176        4.5987  -15.6490  -40.6227 H         1 UNK         0.0600 
    177 H177        5.4624  -14.3016  -39.8902 H         1 UNK         0.0600 
    178 H178        3.9418  -14.8319  -39.2109 H         1 UNK         0.0600 
    179 H179        3.7124  -13.8526  -43.1374 H         1 UNK         0.3000 
    180 H180        6.8765  -12.6011  -44.2687 H         1 UNK         0.0600 
    181 H181        5.2684  -15.1728  -44.7022 H         1 UNK         0.0600 
    182 H182        6.9223  -15.1078  -44.1035 H         1 UNK         0.0600 
    183 H183        6.5564  -14.5549  -45.7312 H         1 UNK         0.0600 
    184 H184        4.4843  -13.0543  -45.7084 H         1 UNK         0.3000 
    185 H185        2.8315  -10.0612  -45.2985 H         1 UNK         0.0600 
    186 H186        4.7453   -8.8597  -46.3541 H         1 UNK         0.0600 
    187 H187        4.9677  -10.1799  -47.4955 H         1 UNK         0.0600 
    188 H188        3.4967   -9.2067  -47.5377 H         1 UNK         0.0600 
    189 H189        3.1171  -11.7752  -47.6069 H         1 UNK         0.3000 
    190 H190       -1.4524  -19.9728  -46.7571 H         1 UNK         0.3000 
    191 H191       -2.9119  -20.3794  -49.1595 H         1 UNK         0.0600 
    192 H192       -3.4098  -18.5267  -47.6195 H         1 UNK         0.0600 
    193 H193       -4.8439  -19.5195  -47.8323 H         1 UNK         0.0600 
    194 H194       -3.8954  -19.6549  -46.3542 H         1 UNK         0.0600 
    195 H195       -2.9563  -22.1813  -46.0395 H         1 UNK         0.3000 
    196 H196       -4.9761  -24.0490  -46.7471 H         1 UNK         0.0600 
    197 H197       -4.0554  -25.3721  -44.8386 H         1 UNK         0.0600 
    198 H198       -4.2723  -23.6818  -44.4125 H         1 UNK         0.0600 
    199 H199       -2.6607  -24.3030  -44.7589 H         1 UNK         0.0600 
    200 H200       -1.3960  -24.2086  -47.1076 H         1 UNK         0.3000 
    201 H201       -1.2589  -26.7682  -48.3233 H         1 UNK         0.0600 
    202 H202        0.7114  -25.5815  -47.3771 H         1 UNK         0.0600 
    203 H203        0.6047  -24.3558  -48.6391 H         1 UNK         0.0600 
    204 H204        0.9981  -26.0180  -49.0550 H         1 UNK         0.0600 
    205 H205       -1.9313  -23.5719  -49.6877 H         1 UNK         0.3000 
    206 H206       -2.1384  -24.4689  -52.4484 H         1 UNK         0.0600 
    207 H207       -1.4326  -22.1564  -51.8679 H         1 UNK         0.0600 
    208 H208       -2.9058  -22.1354  -52.8234 H         1 UNK         0.0600 
    209 H209       -2.9826  -21.8553  -51.0943 H         1 UNK         0.0600 
    210 H210       -3.9499  -25.6055  -50.1159 H         1 UNK         0.3000 
    211 H211       -5.9186  -26.5625  -49.9245 H         1 UNK         0.0600 
    212 H212       -6.3343  -26.0644  -52.9203 H         1 UNK         0.0600 
    213 H213       -7.1623  -27.2535  -51.9284 H         1 UNK         0.0600 
    214 H214       -5.4411  -27.4200  -52.2341 H         1 UNK         0.0600 
    215 H215       -5.7697  -23.9633  -49.1263 H         1 UNK         0.3000 
    216 H216       -6.9312  -22.2839  -48.2907 H         1 UNK         0.0600 
    217 H217       -9.3679  -22.2485  -48.1340 H         1 UNK         0.0600 
    218 H218       -8.8009  -23.8718  -47.7761 H         1 UNK         0.0600 
    219 H219       -9.5313  -23.5124  -49.3405 H         1 UNK         0.0600 
    220 H220       -5.5355  -21.9822  -50.4820 H         1 UNK         0.3000 
    221 H221       -5.0170  -20.7339  -52.2430 H         1 UNK         0.0600 
    222 H222       -7.2168  -18.8632  -51.2192 H         1 UNK         0.0600 
    223 H223       -5.5403  -18.8873  -50.6745 H         1 UNK         0.0600 
    224 H224       -5.9261  -18.4200  -52.3231 H         1 UNK         0.0600 
    225 H225       -6.2331  -22.8246  -53.1251 H         1 UNK         0.3000 
    226 H226       -8.0340  -21.9269  -55.3479 H         1 UNK         0.0600 
    227 H227       -9.3426  -23.1923  -53.6292 H         1 UNK         0.0600 
    228 H228       -9.2268  -24.0820  -55.1418 H         1 UNK         0.0600 
    229 H229       -8.2256  -24.5470  -53.7718 H         1 UNK         0.0600 
    230 H230       -5.4489  -24.1519  -54.2334 H         1 UNK         0.3000 
    231 H231       -5.0151  -25.2506  -56.9271 H         1 UNK         0.0600 
    232 H232       -3.4550  -25.6336  -54.3173 H         1 UNK         0.0600 
    233 H233       -3.2552  -26.5605  -55.7957 H         1 UNK         0.0600 
    234 H234       -4.7549  -26.6789  -54.8894 H         1 UNK         0.0600 
    235 H235       -3.9484  -22.5609  -55.0251 H         1 UNK         0.3000 
    236 H236       -2.3354  -21.5480  -57.1934 H         1 UNK         0.0600 
    237 H237       -0.5790  -22.6619  -55.7469 H         1 UNK         0.0600 
    238 H238       -0.4269  -20.9120  -55.7187 H         1 UNK         0.0600 
    239 H239       -1.1508  -21.7471  -54.3543 H         1 UNK         0.0600 
    240 H240       -2.1017  -19.2102  -56.8947 H         1 UNK         0.3000 
    241 H241       -2.9007  -17.1904  -56.5867 H         1 UNK         0.0600 
    242 H242       -6.5091  -16.7257  -57.2354 H         1 UNK         0.3800 
    243 H243       -5.3415  -15.9540  -56.2044 H         1 UNK         0.3800 
    244 H244       -4.0988  -16.4174  -54.5490 H         1 UNK         0.0800 
    245 H245       -4.3269  -18.0521  -54.0185 H         1 UNK         0.0800 
    246 H246       -3.2946  -18.3716  -51.9671 H         1 UNK         0.0800 
    247 H247       -2.0636  -19.4234  -52.6289 H         1 UNK         0.0800 
@<TRIPOS>BOND
     1    1    2 1    
     2    1  127 1    
     3    1  128 1    
     4    1  129 1    
     5    2    3 2    
     6    2    4 am   BACKBONE|DICT|INTERRES
     7    4    5 1    
     8    4  130 1    
     9    5    6 1    
    10    5   65 1    
    11    5  131 1    
    12    6    7 1    
    13    6  132 1    
    14    6  133 1    
    15    7    8 1    
    16    8    9 1    
    17    8  134 1    
    18    8  135 1    
    19    9   10 ar   
    20    9   14 ar   
    21   10   11 ar   
    22   10  136 1    
    23   11   12 ar   
    24   11  126 1    
    25   12   13 ar   
    26   12  137 1    
    27   13   14 ar   
    28   13   15 1    
    29   14  138 1    
    30   15   16 1    
    31   15  139 1    
    32   15  140 1    
    33   16   17 1    
    34   17   18 1    
    35   17  141 1    
    36   17  142 1    
    37   18   19 1    
    38   18   67 1    
    39   18  143 1    
    40   19   20 am   BACKBONE|DICT|INTERRES
    41   19  144 1    
    42   20   21 2    
    43   20   22 1    
    44   22   23 1    
    45   22   24 1    
    46   22  145 1    
    47   23  146 1    
    48   23  147 1    
    49   23  148 1    
    50   24   25 am   BACKBONE|DICT|INTERRES
    51   24  149 1    
    52   25   26 2    
    53   25   27 1    
    54   27   28 1    
    55   27   29 1    
    56   27  150 1    
    57   28  151 1    
    58   28  152 1    
    59   28  153 1    
    60   29   30 am   BACKBONE|DICT|INTERRES
    61   29  154 1    
    62   30   31 2    
    63   30   32 1    
    64   32   33 1    
    65   32   34 1    
    66   32  155 1    
    67   33  156 1    
    68   33  157 1    
    69   33  158 1    
    70   34   35 am   BACKBONE|DICT|INTERRES
    71   34  159 1    
    72   35   36 2    
    73   35   37 1    
    74   37   38 1    
    75   37   39 1    
    76   37  160 1    
    77   38  161 1    
    78   38  162 1    
    79   38  163 1    
    80   39   40 am   BACKBONE|DICT|INTERRES
    81   39  164 1    
    82   40   41 2    
    83   40   42 1    
    84   42   43 1    
    85   42   44 1    
    86   42  165 1    
    87   43  166 1    
    88   43  167 1    
    89   43  168 1    
    90   44   45 am   BACKBONE|DICT|INTERRES
    91   44  169 1    
    92   45   46 2    
    93   45   47 1    
    94   47   48 1    
    95   47   49 1    
    96   47  170 1    
    97   48  171 1    
    98   48  172 1    
    99   48  173 1    
   100   49   50 am   BACKBONE|DICT|INTERRES
   101   49  174 1    
   102   50   51 2    
   103   50   52 1    
   104   52   53 1    
   105   52   54 1    
   106   52  175 1    
   107   53  176 1    
   108   53  177 1    
   109   53  178 1    
   110   54   55 am   BACKBONE|DICT|INTERRES
   111   54  179 1    
   112   55   56 2    
   113   55   57 1    
   114   57   58 1    
   115   57   59 1    
   116   57  180 1    
   117   58  181 1    
   118   58  182 1    
   119   58  183 1    
   120   59   60 am   BACKBONE|DICT|INTERRES
   121   59  184 1    
   122   60   61 2    
   123   60   62 1    
   124   62   63 1    
   125   62   64 1    
   126   62  185 1    
   127   63  186 1    
   128   63  187 1    
   129   63  188 1    
   130   64   65 am   BACKBONE|DICT|INTERRES
   131   64  189 1    
   132   65   66 2    
   133   67   68 2    
   134   67   69 am   BACKBONE|DICT|INTERRES
   135   69   70 1    
   136   69  190 1    
   137   70   71 1    
   138   70   72 1    
   139   70  191 1    
   140   71  192 1    
   141   71  193 1    
   142   71  194 1    
   143   72   73 2    
   144   72   74 am   BACKBONE|DICT|INTERRES
   145   74   75 1    
   146   74  195 1    
   147   75   76 1    
   148   75   77 1    
   149   75  196 1    
   150   76  197 1    
   151   76  198 1    
   152   76  199 1    
   153   77   78 2    
   154   77   79 am   BACKBONE|DICT|INTERRES
   155   79   80 1    
   156   79  200 1    
   157   80   81 1    
   158   80   82 1    
   159   80  201 1    
   160   81  202 1    
   161   81  203 1    
   162   81  204 1    
   163   82   83 2    
   164   82   84 am   BACKBONE|DICT|INTERRES
   165   84   85 1    
   166   84  205 1    
   167   85   86 1    
   168   85   87 1    
   169   85  206 1    
   170   86  207 1    
   171   86  208 1    
   172   86  209 1    
   173   87   88 2    
   174   87   89 am   BACKBONE|DICT|INTERRES
   175   89   90 1    
   176   89  210 1    
   177   90   91 1    
   178   90   92 1    
   179   90  211 1    
   180   91  212 1    
   181   91  213 1    
   182   91  214 1    
   183   92   93 2    
   184   92   94 am   BACKBONE|DICT|INTERRES
   185   94   95 1    
   186   94  215 1    
   187   95   96 1    
   188   95   97 1    
   189   95  216 1    
   190   96  217 1    
   191   96  218 1    
   192   96  219 1    
   193   97   98 2    
   194   97   99 am   BACKBONE|DICT|INTERRES
   195   99  100 1    
   196   99  220 1    
   197  100  101 1    
   198  100  102 1    
   199  100  221 1    
   200  101  222 1    
   201  101  223 1    
   202  101  224 1    
   203  102  103 2    
   204  102  104 am   BACKBONE|DICT|INTERRES
   205  104  105 1    
   206  104  225 1    
   207  105  106 1    
   208  105  107 1    
   209  105  226 1    
   210  106  227 1    
   211  106  228 1    
   212  106  229 1    
   213  107  108 2    
   214  107  109 am   BACKBONE|DICT|INTERRES
   215  109  110 1    
   216  109  230 1    
   217  110  111 1    
   218  110  112 1    
   219  110  231 1    
   220  111  232 1    
   221  111  233 1    
   222  111  234 1    
   223  112  113 2    
   224  112  114 am   BACKBONE|DICT|INTERRES
   225  114  115 1    
   226  114  235 1    
   227  115  116 1    
   228  115  117 1    
   229  115  236 1    
   230  116  237 1    
   231  116  238 1    
   232  116  239 1    
   233  117  118 2    
   234  117  119 am   BACKBONE|DICT|INTERRES
   235  119  120 1    
   236  119  240 1    
   237  120  121 1    
   238  120  124 1    
   239  120  241 1    
   240  121  122 am   BACKBONE|DICT|INTERRES
   241  121  123 2    
   242  122  242 1    
   243  122  243 1    
   244  124  125 1    
   245  124  244 1    
   246  124  245 1    
   247  125  126 1    
   248  126  246 1    
   249  126  247 1    
@<TRIPOS>SUBSTRUCTURE
     1 UNK         1 GROUP             0       ****    0 ROOT    
