@<TRIPOS>MOLECULE
3R540
247   249    1
SMALL
USER_CHARGES


@<TRIPOS>ATOM
      1 CA          3.8792  -13.5882  -49.9424 C.3       0 UNK        -0.1800 
      2 C           3.0993  -14.7798  -49.4070 C.2       0 UNK         0.5000 
      3 O           2.3321  -15.3904  -50.1508 O.2       0 UNK        -0.5000 
      4 N           3.2868  -15.1031  -48.1197 N.am      1 UNK        -0.5000 
      5 CA          2.6774  -16.2037  -47.3536 C.3       1 UNK         0.1400 
      6 C6          2.9154  -17.6200  -47.9422 C.3       23 UNK        -0.0398 
      7 S7          4.6615  -18.0312  -48.2933 S.3       23 UNK        -0.2404 
      8 C8          4.6727  -18.1951  -50.1150 C.3       23 UNK        -0.0205 
      9 C9          3.7210  -19.2800  -50.6023 C.ar      23 UNK        -0.0193 
     10 C10         2.4834  -18.9335  -51.1542 C.ar      23 UNK        -0.1150 
     11 C11         1.5684  -19.9222  -51.5179 C.ar      23 UNK        -0.0193 
     12 C12         1.9063  -21.2660  -51.3448 C.ar      23 UNK        -0.1150 
     13 C13         3.1459  -21.6325  -50.8127 C.ar      23 UNK        -0.0193 
     14 C14         4.0606  -20.6295  -50.4674 C.ar      23 UNK        -0.1150 
     15 C15         3.4535  -23.1187  -50.6316 C.3       23 UNK        -0.0205 
     16 S16         4.4920  -23.5606  -49.1915 S.3       23 UNK        -0.2404 
     17 C17         3.7545  -22.6537  -47.7886 C.3       23 UNK        -0.0398 
     18 CA          2.4902  -23.3103  -47.1756 C.3       11 UNK         0.1400 
     19 N           2.4529  -23.0944  -45.7269 N.am      11 UNK        -0.5000 
     20 C           1.4727  -23.4508  -44.8879 C.2       10 UNK         0.5000 
     21 O           0.5199  -24.1562  -45.2140 O.2       10 UNK        -0.5000 
     22 CA          1.5296  -22.8827  -43.4566 C.3       10 UNK         0.1400 
     23 CB          1.9034  -23.9853  -42.4554 C.3       10 UNK        -0.1800 
     24 N           2.4297  -21.7406  -43.2574 N.am      10 UNK        -0.5000 
     25 C           2.4201  -20.5701  -43.9111 C.2       9 UNK         0.5000 
     26 O           1.7140  -20.3336  -44.8949 O.2       9 UNK        -0.5000 
     27 CA          3.3618  -19.4908  -43.3435 C.3       9 UNK         0.1400 
     28 CB          3.4258  -18.2318  -44.2251 C.3       9 UNK        -0.1800 
     29 N           2.9418  -19.1045  -41.9983 N.am      9 UNK        -0.5000 
     30 C           3.2017  -19.7758  -40.8682 C.2       8 UNK         0.5000 
     31 O           3.8726  -20.8083  -40.8296 O.2       8 UNK        -0.5000 
     32 CA          2.5706  -19.2245  -39.5803 C.3       8 UNK         0.1400 
     33 CB          3.3123  -17.9644  -39.1065 C.3       8 UNK        -0.1800 
     34 N           1.1637  -18.8999  -39.8085 N.am      8 UNK        -0.5000 
     35 C           0.1264  -19.6640  -39.4408 C.2       7 UNK         0.5000 
     36 O           0.2352  -20.6965  -38.7783 O.2       7 UNK        -0.5000 
     37 CA         -1.2745  -19.2043  -39.8976 C.3       7 UNK         0.1400 
     38 CB         -1.9209  -18.3071  -38.8314 C.3       7 UNK        -0.1800 
     39 N          -1.2541  -18.4883  -41.1745 N.am      7 UNK        -0.5000 
     40 C          -0.9422  -19.0454  -42.3525 C.2       6 UNK         0.5000 
     41 O          -0.7571  -20.2523  -42.5021 O.2       6 UNK        -0.5000 
     42 CA         -0.7880  -18.1042  -43.5642 C.3       6 UNK         0.1400 
     43 CB         -2.0178  -18.2008  -44.4801 C.3       6 UNK        -0.1800 
     44 N          -0.5386  -16.6916  -43.2516 N.am      6 UNK        -0.5000 
     45 C           0.4752  -16.1932  -42.5279 C.2       5 UNK         0.5000 
     46 O           1.2541  -16.8909  -41.8794 O.2       5 UNK        -0.5000 
     47 CA          0.6692  -14.6656  -42.5233 C.3       5 UNK         0.1400 
     48 CB          2.0333  -14.2915  -43.1264 C.3       5 UNK        -0.1800 
     49 N          -0.3792  -13.9515  -43.2534 N.am      5 UNK        -0.5000 
     50 C          -1.5401  -13.5412  -42.7280 C.2       4 UNK         0.5000 
     51 O          -1.8622  -13.7625  -41.5600 O.2       4 UNK        -0.5000 
     52 CA         -2.5280  -12.7926  -43.6509 C.3       4 UNK         0.1400 
     53 CB         -2.9439  -11.4328  -43.0539 C.3       4 UNK        -0.1800 
     54 N          -2.0940  -12.6430  -45.0480 N.am      4 UNK        -0.5000 
     55 C          -1.0889  -11.9110  -45.5485 C.2       3 UNK         0.5000 
     56 O          -0.3122  -11.2516  -44.8568 O.2       3 UNK        -0.5000 
     57 CA         -0.9086  -11.9696  -47.0822 C.3       3 UNK         0.1400 
     58 CB          0.2310  -11.0627  -47.5812 C.3       3 UNK        -0.1800 
     59 N          -0.6584  -13.3303  -47.5627 N.am      3 UNK        -0.5000 
     60 C          -1.5573  -14.3191  -47.6633 C.2       2 UNK         0.5000 
     61 O          -2.7427  -14.1906  -47.3542 O.2       2 UNK        -0.5000 
     62 CA         -1.0572  -15.6798  -48.1838 C.3       2 UNK         0.1400 
     63 CB         -1.5577  -15.9300  -49.6130 C.3       2 UNK        -0.1800 
     64 N           0.3987  -15.8162  -48.1791 N.am      2 UNK        -0.5000 
     65 C           1.1691  -15.9911  -47.0999 C.2       1 UNK         0.5000 
     66 O           0.7337  -15.9866  -45.9510 O.2       1 UNK        -0.5000 
     67 C           1.2102  -22.7889  -47.8685 C.2       11 UNK         0.5000 
     68 O           0.6152  -23.5077  -48.6707 O.2       11 UNK        -0.5000 
     69 N           0.7796  -21.5702  -47.5039 N.am      12 UNK        -0.5000 
     70 CA         -0.4252  -20.9377  -48.0425 C.3       12 UNK         0.1400 
     71 CB         -0.4129  -19.4373  -47.7183 C.3       12 UNK        -0.1800 
     72 C          -1.7222  -21.5970  -47.5440 C.2       12 UNK         0.5000 
     73 O          -2.6879  -21.6841  -48.3037 O.2       12 UNK        -0.5000 
     74 N          -1.7175  -22.0735  -46.2919 N.am      13 UNK        -0.5000 
     75 CA         -2.8282  -22.8175  -45.6984 C.3       13 UNK         0.1400 
     76 CB         -2.6350  -22.9218  -44.1782 C.3       13 UNK        -0.1800 
     77 C          -2.9910  -24.2074  -46.3393 C.2       13 UNK         0.5000 
     78 O          -4.1123  -24.5952  -46.6667 O.2       13 UNK        -0.5000 
     79 N          -1.8666  -24.9062  -46.5512 N.am      14 UNK        -0.5000 
     80 CA         -1.7932  -26.2041  -47.2239 C.3       14 UNK         0.1400 
     81 CB         -0.3733  -26.7723  -47.0787 C.3       14 UNK        -0.1800 
     82 C          -2.2011  -26.1329  -48.7067 C.2       14 UNK         0.5000 
     83 O          -2.8896  -27.0318  -49.1910 O.2       14 UNK        -0.5000 
     84 N          -1.7948  -25.0545  -49.3910 N.am      15 UNK        -0.5000 
     85 CA         -2.1630  -24.7613  -50.7773 C.3       15 UNK         0.1400 
     86 CB         -1.2188  -23.6793  -51.3254 C.3       15 UNK        -0.1800 
     87 C          -3.6287  -24.3158  -50.9494 C.2       15 UNK         0.5000 
     88 O          -4.1293  -24.3568  -52.0731 O.2       15 UNK        -0.5000 
     89 N          -4.2706  -23.8786  -49.8533 N.am      16 UNK        -0.5000 
     90 CA         -5.5902  -23.2409  -49.7871 C.3       16 UNK         0.1400 
     91 CB         -6.7103  -24.2275  -50.1762 C.3       16 UNK        -0.1800 
     92 C          -5.6078  -21.9427  -50.6164 C.2       16 UNK         0.5000 
     93 O          -6.4369  -21.7791  -51.5135 O.2       16 UNK        -0.5000 
     94 N          -4.6381  -21.0647  -50.3249 N.am      17 UNK        -0.5000 
     95 CA         -4.2372  -19.9164  -51.1385 C.3       17 UNK         0.1400 
     96 CB         -3.1017  -19.1723  -50.4267 C.3       17 UNK        -0.1800 
     97 C          -5.3489  -18.9300  -51.5335 C.2       17 UNK         0.5000 
     98 O          -5.2626  -18.3387  -52.6114 O.2       17 UNK        -0.5000 
     99 N          -6.3654  -18.7790  -50.6762 N.am      18 UNK        -0.5000 
    100 CA        -7.5356  -17.9362  -50.9251 C.3       18 UNK         0.1400 
    101 CB        -8.2902  -17.7224  -49.6043 C.3       18 UNK        -0.1800 
    102 C         -8.4789  -18.5141  -51.9984 C.2       18 UNK         0.5000 
    103 O         -9.1082  -17.7450  -52.7254 O.2       18 UNK        -0.5000 
    104 N         -8.5555  -19.8488  -52.0849 N.am      19 UNK        -0.5000 
    105 CA        -9.3538  -20.5727  -53.0743 C.3       19 UNK         0.1400 
    106 CB        -9.8308  -21.9015  -52.4669 C.3       19 UNK        -0.1800 
    107 C         -8.5506  -20.8232  -54.3610 C.2       19 UNK         0.5000 
    108 O         -9.1078  -20.7350  -55.4554 O.2       19 UNK        -0.5000 
    109 N         -7.2516  -21.1136  -54.2059 N.am      20 UNK        -0.5000 
    110 CA        -6.3101  -21.3765  -55.2962 C.3       20 UNK         0.1400 
    111 CB        -5.0757  -22.0823  -54.7135 C.3       20 UNK        -0.1800 
    112 C         -5.8860  -20.1155  -56.0770 C.2       20 UNK         0.5000 
    113 O         -5.2946  -20.2502  -57.1487 O.2       20 UNK        -0.5000 
    114 N         -6.1652  -18.9265  -55.5197 N.am      21 UNK        -0.5000 
    115 CA        -5.7689  -17.5965  -56.0034 C.3       21 UNK         0.1400 
    116 CB        -6.3864  -17.2884  -57.3835 C.3       21 UNK        -0.1800 
    117 C         -4.2411  -17.3706  -55.9529 C.2       21 UNK         0.5000 
    118 O         -3.6950  -16.5990  -56.7434 O.2       21 UNK        -0.5000 
    119 N         -3.5893  -18.0446  -55.0002 N.am      22 UNK        -0.5000 
    120 CA        -2.1753  -17.8824  -54.6382 C.3       22 UNK         0.1400 
    121 C         -1.9642  -16.7259  -53.6140 C.2       22 UNK         0.5000 
    122 N         -2.9816  -16.3162  -52.8625 N.am      22 UNK        -0.7600 
    123 O         -0.8770  -16.1643  -53.5253 O.2       22 UNK        -0.5000 
    124 C124       -1.6170  -19.2434  -54.1470 C.3       23 UNK        -0.0398 
    125 S125        0.1835  -19.3306  -53.8521 S.3       23 UNK        -0.2404 
    126 C126        0.1949  -19.5443  -52.0451 C.3       23 UNK        -0.0205 
    127 H127        4.5098  -13.8985  -50.7755 H         1 UNK         0.0600 
    128 H128        4.5182  -13.1441  -49.1788 H         1 UNK         0.0600 
    129 H129        3.1923  -12.8213  -50.3001 H         1 UNK         0.0600 
    130 H130        3.9288  -14.5370  -47.5828 H         1 UNK         0.3000 
    131 H131        3.1619  -16.1739  -46.3766 H         1 UNK         0.0600 
    132 H132        2.3272  -17.7401  -48.8476 H         1 UNK         0.0800 
    133 H133        2.5416  -18.3782  -47.2518 H         1 UNK         0.0800 
    134 H134        4.4233  -17.2346  -50.5672 H         1 UNK         0.0800 
    135 H135        5.6864  -18.4302  -50.4421 H         1 UNK         0.0800 
    136 H136        2.2162  -17.8919  -51.2690 H         1 UNK         0.1150 
    137 H137        1.1937  -22.0310  -51.6171 H         1 UNK         0.1150 
    138 H138        5.0228  -20.8934  -50.0521 H         1 UNK         0.1150 
    139 H139        2.5245  -23.6858  -50.5587 H         1 UNK         0.0800 
    140 H140        3.9516  -23.4749  -51.5339 H         1 UNK         0.0800 
    141 H141        3.5894  -21.6054  -48.0388 H         1 UNK         0.0800 
    142 H142        4.5481  -22.6274  -47.0404 H         1 UNK         0.0800 
    143 H143        2.5359  -24.3907  -47.3266 H         1 UNK         0.0600 
    144 H144        3.1798  -22.5073  -45.3472 H         1 UNK         0.3000 
    145 H145        0.5224  -22.5373  -43.2186 H         1 UNK         0.0600 
    146 H146        1.2321  -24.8408  -42.5439 H         1 UNK         0.0600 
    147 H147        2.9199  -24.3459  -42.6173 H         1 UNK         0.0600 
    148 H148        1.8333  -23.6253  -41.4286 H         1 UNK         0.0600 
    149 H149        3.0368  -21.7971  -42.4469 H         1 UNK         0.3000 
    150 H150        4.3668  -19.9151  -43.2961 H         1 UNK         0.0600 
    151 H151        4.0764  -17.4749  -43.7870 H         1 UNK         0.0600 
    152 H152        2.4426  -17.7825  -44.3683 H         1 UNK         0.0600 
    153 H153        3.8281  -18.4733  -45.2086 H         1 UNK         0.0600 
    154 H154        2.3555  -18.2740  -41.9427 H         1 UNK         0.3000 
    155 H155        2.6669  -19.9857  -38.8033 H         1 UNK         0.0600 
    156 H156        4.3689  -18.1745  -38.9361 H         1 UNK         0.0600 
    157 H157        2.8983  -17.5965  -38.1676 H         1 UNK         0.0600 
    158 H158        3.2506  -17.1567  -39.8370 H         1 UNK         0.0600 
    159 H159        0.9857  -18.0929  -40.3981 H         1 UNK         0.3000 
    160 H160       -1.8937  -20.0959  -40.0173 H         1 UNK         0.0600 
    161 H161       -1.9737  -18.8195  -37.8698 H         1 UNK         0.0600 
    162 H162       -2.9392  -18.0345  -39.1094 H         1 UNK         0.0600 
    163 H163       -1.3548  -17.3867  -38.6825 H         1 UNK         0.0600 
    164 H164       -1.3956  -17.4893  -41.1424 H         1 UNK         0.3000 
    165 H165        0.0756  -18.4544  -44.1294 H         1 UNK         0.0600 
    166 H166       -1.8737  -17.6250  -45.3941 H         1 UNK         0.0600 
    167 H167       -2.2061  -19.2340  -44.7763 H         1 UNK         0.0600 
    168 H168       -2.9163  -17.8300  -43.9858 H         1 UNK         0.0600 
    169 H169       -1.0964  -16.0250  -43.7628 H         1 UNK         0.3000 
    170 H170        0.6664  -14.3449  -41.4796 H         1 UNK         0.0600 
    171 H171        2.2023  -13.2156  -43.0780 H         1 UNK         0.0600 
    172 H172        2.8484  -14.7717  -42.5834 H         1 UNK         0.0600 
    173 H173        2.1130  -14.5953  -44.1700 H         1 UNK         0.0600 
    174 H174       -0.1873  -13.7355  -44.2209 H         1 UNK         0.3000 
    175 H175       -3.4221  -13.4163  -43.6903 H         1 UNK         0.0600 
    176 H176       -2.0903  -10.7675  -42.9224 H         1 UNK         0.0600 
    177 H177       -3.6697  -10.9273  -43.6910 H         1 UNK         0.0600 
    178 H178       -3.4079  -11.5607  -42.0752 H         1 UNK         0.0600 
    179 H179       -2.6208  -13.1907  -45.7243 H         1 UNK         0.3000 
    180 H180       -1.8382  -11.6101  -47.5285 H         1 UNK         0.0600 
    181 H181        0.2954  -11.0730  -48.6694 H         1 UNK         0.0600 
    182 H182        1.1983  -11.3752  -47.1854 H         1 UNK         0.0600 
    183 H183        0.0695  -10.0275  -47.2777 H         1 UNK         0.0600 
    184 H184        0.2934  -13.5439  -47.8199 H         1 UNK         0.3000 
    185 H185       -1.4741  -16.4510  -47.5338 H         1 UNK         0.0600 
    186 H186       -1.2052  -15.1616  -50.3024 H         1 UNK         0.0600 
    187 H187       -1.2079  -16.8922  -49.9854 H         1 UNK         0.0600 
    188 H188       -2.6477  -15.9386  -49.6528 H         1 UNK         0.0600 
    189 H189        0.8683  -15.7706  -49.0813 H         1 UNK         0.3000 
    190 H190        1.2691  -21.0709  -46.7679 H         1 UNK         0.3000 
    191 H191       -0.4074  -21.0444  -49.1289 H         1 UNK         0.0600 
    192 H192       -0.2204  -19.2505  -46.6615 H         1 UNK         0.0600 
    193 H193       -1.3651  -18.9680  -47.9666 H         1 UNK         0.0600 
    194 H194        0.3532  -18.9265  -48.2981 H         1 UNK         0.0600 
    195 H195       -0.8757  -21.9866  -45.7422 H         1 UNK         0.3000 
    196 H196       -3.7474  -22.2565  -45.8810 H         1 UNK         0.0600 
    197 H197       -3.4762  -23.4384  -43.7148 H         1 UNK         0.0600 
    198 H198       -2.5700  -21.9343  -43.7214 H         1 UNK         0.0600 
    199 H199       -1.7313  -23.4722  -43.9176 H         1 UNK         0.0600 
    200 H200       -0.9869  -24.5306  -46.2032 H         1 UNK         0.3000 
    201 H201       -2.4856  -26.8816  -46.7201 H         1 UNK         0.0600 
    202 H202       -0.1057  -26.8994  -46.0296 H         1 UNK         0.0600 
    203 H203        0.3704  -26.1178  -47.5351 H         1 UNK         0.0600 
    204 H204       -0.2912  -27.7491  -47.5569 H         1 UNK         0.0600 
    205 H205       -1.1589  -24.4010  -48.9442 H         1 UNK         0.3000 
    206 H206       -2.0237  -25.6679  -51.3698 H         1 UNK         0.0600 
    207 H207       -1.4493  -23.4430  -52.3650 H         1 UNK         0.0600 
    208 H208       -1.2955  -22.7539  -50.7535 H         1 UNK         0.0600 
    209 H209       -0.1816  -24.0122  -51.2912 H         1 UNK         0.0600 
    210 H210       -3.7516  -23.8801  -48.9854 H         1 UNK         0.3000 
    211 H211       -5.7457  -22.9530  -48.7464 H         1 UNK         0.0600 
    212 H212       -6.6492  -24.5252  -51.2233 H         1 UNK         0.0600 
    213 H213       -7.6923  -23.7782  -50.0241 H         1 UNK         0.0600 
    214 H214       -6.6670  -25.1305  -49.5674 H         1 UNK         0.0600 
    215 H215       -4.0017  -21.3034  -49.5666 H         1 UNK         0.3000 
    216 H216       -3.8462  -20.3336  -52.0650 H         1 UNK         0.0600 
    217 H217       -2.7413  -18.3407  -51.0294 H         1 UNK         0.0600 
    218 H218       -2.2537  -19.8296  -50.2465 H         1 UNK         0.0600 
    219 H219       -3.4252  -18.7699  -49.4660 H         1 UNK         0.0600 
    220 H220       -6.3510  -19.3058  -49.8155 H         1 UNK         0.3000 
    221 H221       -7.1877  -16.9634  -51.2796 H         1 UNK         0.0600 
    222 H222       -8.6488  -18.6647  -49.1880 H         1 UNK         0.0600 
    223 H223       -7.6532  -17.2459  -48.8589 H         1 UNK         0.0600 
    224 H224       -9.1572  -17.0766  -49.7501 H         1 UNK         0.0600 
    225 H225       -7.9452  -20.4131  -51.5047 H         1 UNK         0.3000 
    226 H226      -10.2371  -19.9856  -53.3350 H         1 UNK         0.0600 
    227 H227      -10.4321  -21.7320  -51.5737 H         1 UNK         0.0600 
    228 H228      -10.4491  -22.4539  -53.1755 H         1 UNK         0.0600 
    229 H229       -8.9948  -22.5451  -52.1901 H         1 UNK         0.0600 
    230 H230       -6.8955  -21.2314  -53.2608 H         1 UNK         0.3000 
    231 H231       -6.7877  -22.0548  -56.0061 H         1 UNK         0.0600 
    232 H232       -4.5486  -21.4483  -54.0014 H         1 UNK         0.0600 
    233 H233       -5.3544  -23.0018  -54.1982 H         1 UNK         0.0600 
    234 H234       -4.3686  -22.3523  -55.4987 H         1 UNK         0.0600 
    235 H235       -6.6223  -18.9382  -54.6182 H         1 UNK         0.3000 
    236 H236       -6.1948  -16.8866  -55.2929 H         1 UNK         0.0600 
    237 H237       -5.9441  -17.8958  -58.1733 H         1 UNK         0.0600 
    238 H238       -7.4615  -17.4678  -57.3830 H         1 UNK         0.0600 
    239 H239       -6.2329  -16.2432  -57.6540 H         1 UNK         0.0600 
    240 H240       -4.1564  -18.5786  -54.3540 H         1 UNK         0.3000 
    241 H241       -1.6202  -17.6071  -55.5369 H         1 UNK         0.0600 
    242 H242       -2.8452  -15.5447  -52.2308 H         1 UNK         0.3800 
    243 H243       -3.8821  -16.7739  -52.9154 H         1 UNK         0.3800 
    244 H244       -2.1433  -19.5527  -53.2477 H         1 UNK         0.0800 
    245 H245       -1.8434  -20.0091  -54.8906 H         1 UNK         0.0800 
    246 H246       -0.1492  -18.6241  -51.5700 H         1 UNK         0.0800 
    247 H247       -0.5167  -20.3236  -51.7701 H         1 UNK         0.0800 
@<TRIPOS>BOND
     1    1    2 1    
     2    1  127 1    
     3    1  128 1    
     4    1  129 1    
     5    2    3 2    
     6    2    4 am   BACKBONE|DICT|INTERRES
     7    4    5 1    
     8    4  130 1    
     9    5    6 1    
    10    5   65 1    
    11    5  131 1    
    12    6    7 1    
    13    6  132 1    
    14    6  133 1    
    15    7    8 1    
    16    8    9 1    
    17    8  134 1    
    18    8  135 1    
    19    9   10 ar   
    20    9   14 ar   
    21   10   11 ar   
    22   10  136 1    
    23   11   12 ar   
    24   11  126 1    
    25   12   13 ar   
    26   12  137 1    
    27   13   14 ar   
    28   13   15 1    
    29   14  138 1    
    30   15   16 1    
    31   15  139 1    
    32   15  140 1    
    33   16   17 1    
    34   17   18 1    
    35   17  141 1    
    36   17  142 1    
    37   18   19 1    
    38   18   67 1    
    39   18  143 1    
    40   19   20 am   BACKBONE|DICT|INTERRES
    41   19  144 1    
    42   20   21 2    
    43   20   22 1    
    44   22   23 1    
    45   22   24 1    
    46   22  145 1    
    47   23  146 1    
    48   23  147 1    
    49   23  148 1    
    50   24   25 am   BACKBONE|DICT|INTERRES
    51   24  149 1    
    52   25   26 2    
    53   25   27 1    
    54   27   28 1    
    55   27   29 1    
    56   27  150 1    
    57   28  151 1    
    58   28  152 1    
    59   28  153 1    
    60   29   30 am   BACKBONE|DICT|INTERRES
    61   29  154 1    
    62   30   31 2    
    63   30   32 1    
    64   32   33 1    
    65   32   34 1    
    66   32  155 1    
    67   33  156 1    
    68   33  157 1    
    69   33  158 1    
    70   34   35 am   BACKBONE|DICT|INTERRES
    71   34  159 1    
    72   35   36 2    
    73   35   37 1    
    74   37   38 1    
    75   37   39 1    
    76   37  160 1    
    77   38  161 1    
    78   38  162 1    
    79   38  163 1    
    80   39   40 am   BACKBONE|DICT|INTERRES
    81   39  164 1    
    82   40   41 2    
    83   40   42 1    
    84   42   43 1    
    85   42   44 1    
    86   42  165 1    
    87   43  166 1    
    88   43  167 1    
    89   43  168 1    
    90   44   45 am   BACKBONE|DICT|INTERRES
    91   44  169 1    
    92   45   46 2    
    93   45   47 1    
    94   47   48 1    
    95   47   49 1    
    96   47  170 1    
    97   48  171 1    
    98   48  172 1    
    99   48  173 1    
   100   49   50 am   BACKBONE|DICT|INTERRES
   101   49  174 1    
   102   50   51 2    
   103   50   52 1    
   104   52   53 1    
   105   52   54 1    
   106   52  175 1    
   107   53  176 1    
   108   53  177 1    
   109   53  178 1    
   110   54   55 am   BACKBONE|DICT|INTERRES
   111   54  179 1    
   112   55   56 2    
   113   55   57 1    
   114   57   58 1    
   115   57   59 1    
   116   57  180 1    
   117   58  181 1    
   118   58  182 1    
   119   58  183 1    
   120   59   60 am   BACKBONE|DICT|INTERRES
   121   59  184 1    
   122   60   61 2    
   123   60   62 1    
   124   62   63 1    
   125   62   64 1    
   126   62  185 1    
   127   63  186 1    
   128   63  187 1    
   129   63  188 1    
   130   64   65 am   BACKBONE|DICT|INTERRES
   131   64  189 1    
   132   65   66 2    
   133   67   68 2    
   134   67   69 am   BACKBONE|DICT|INTERRES
   135   69   70 1    
   136   69  190 1    
   137   70   71 1    
   138   70   72 1    
   139   70  191 1    
   140   71  192 1    
   141   71  193 1    
   142   71  194 1    
   143   72   73 2    
   144   72   74 am   BACKBONE|DICT|INTERRES
   145   74   75 1    
   146   74  195 1    
   147   75   76 1    
   148   75   77 1    
   149   75  196 1    
   150   76  197 1    
   151   76  198 1    
   152   76  199 1    
   153   77   78 2    
   154   77   79 am   BACKBONE|DICT|INTERRES
   155   79   80 1    
   156   79  200 1    
   157   80   81 1    
   158   80   82 1    
   159   80  201 1    
   160   81  202 1    
   161   81  203 1    
   162   81  204 1    
   163   82   83 2    
   164   82   84 am   BACKBONE|DICT|INTERRES
   165   84   85 1    
   166   84  205 1    
   167   85   86 1    
   168   85   87 1    
   169   85  206 1    
   170   86  207 1    
   171   86  208 1    
   172   86  209 1    
   173   87   88 2    
   174   87   89 am   BACKBONE|DICT|INTERRES
   175   89   90 1    
   176   89  210 1    
   177   90   91 1    
   178   90   92 1    
   179   90  211 1    
   180   91  212 1    
   181   91  213 1    
   182   91  214 1    
   183   92   93 2    
   184   92   94 am   BACKBONE|DICT|INTERRES
   185   94   95 1    
   186   94  215 1    
   187   95   96 1    
   188   95   97 1    
   189   95  216 1    
   190   96  217 1    
   191   96  218 1    
   192   96  219 1    
   193   97   98 2    
   194   97   99 am   BACKBONE|DICT|INTERRES
   195   99  100 1    
   196   99  220 1    
   197  100  101 1    
   198  100  102 1    
   199  100  221 1    
   200  101  222 1    
   201  101  223 1    
   202  101  224 1    
   203  102  103 2    
   204  102  104 am   BACKBONE|DICT|INTERRES
   205  104  105 1    
   206  104  225 1    
   207  105  106 1    
   208  105  107 1    
   209  105  226 1    
   210  106  227 1    
   211  106  228 1    
   212  106  229 1    
   213  107  108 2    
   214  107  109 am   BACKBONE|DICT|INTERRES
   215  109  110 1    
   216  109  230 1    
   217  110  111 1    
   218  110  112 1    
   219  110  231 1    
   220  111  232 1    
   221  111  233 1    
   222  111  234 1    
   223  112  113 2    
   224  112  114 am   BACKBONE|DICT|INTERRES
   225  114  115 1    
   226  114  235 1    
   227  115  116 1    
   228  115  117 1    
   229  115  236 1    
   230  116  237 1    
   231  116  238 1    
   232  116  239 1    
   233  117  118 2    
   234  117  119 am   BACKBONE|DICT|INTERRES
   235  119  120 1    
   236  119  240 1    
   237  120  121 1    
   238  120  124 1    
   239  120  241 1    
   240  121  122 am   BACKBONE|DICT|INTERRES
   241  121  123 2    
   242  122  242 1    
   243  122  243 1    
   244  124  125 1    
   245  124  244 1    
   246  124  245 1    
   247  125  126 1    
   248  126  246 1    
   249  126  247 1    
@<TRIPOS>SUBSTRUCTURE
     1 UNK         1 GROUP             0       ****    0 ROOT    
