@<TRIPOS>MOLECULE
3R540
247   249    1
SMALL
USER_CHARGES


@<TRIPOS>ATOM
      1 CA          1.5287  -10.1568  -46.1256 C.3       0 UNK        -0.1800 
      2 C           2.6645  -11.0759  -46.5498 C.2       0 UNK         0.5000 
      3 O           3.8148  -10.6412  -46.6230 O.2       0 UNK        -0.5000 
      4 N           2.3546  -12.3488  -46.8164 N.am      1 UNK        -0.5000 
      5 CA          3.3018  -13.3878  -47.2304 C.3       1 UNK         0.1400 
      6 C6          2.6322  -14.4635  -48.1220 C.3       23 UNK        -0.0398 
      7 S7          2.0194  -13.7605  -49.6920 S.3       23 UNK        -0.2404 
      8 C8          0.2155  -14.0051  -49.5329 C.3       23 UNK        -0.0205 
      9 C9         -0.3052  -15.4164  -49.8235 C.ar      23 UNK        -0.0193 
     10 C10        -1.6902  -15.6124  -49.8470 C.ar      23 UNK        -0.1150 
     11 C11        -2.2340  -16.8732  -50.1081 C.ar      23 UNK        -0.0193 
     12 C12        -1.3827  -17.9472  -50.3675 C.ar      23 UNK        -0.1150 
     13 C13         0.0030  -17.7780  -50.3313 C.ar      23 UNK        -0.0193 
     14 C14         0.5348  -16.5145  -50.0606 C.ar      23 UNK        -0.1150 
     15 C15         0.9279  -18.9606  -50.5770 C.3       23 UNK        -0.0205 
     16 S16         1.4952  -19.7158  -49.0184 S.3       23 UNK        -0.2404 
     17 C17        -0.0498  -20.4412  -48.3731 C.3       23 UNK        -0.0398 
     18 CA         -0.5375  -19.8179  -47.0410 C.3       11 UNK         0.1400 
     19 N          -0.5909  -18.3546  -47.0626 N.am      11 UNK        -0.5000 
     20 C          -0.6830  -17.6067  -45.9588 C.2       10 UNK         0.5000 
     21 O          -0.5912  -18.0580  -44.8139 O.2       10 UNK        -0.5000 
     22 CA         -0.9695  -16.1157  -46.1562 C.3       10 UNK         0.1400 
     23 CB         -2.4508  -15.8875  -46.5042 C.3       10 UNK        -0.1800 
     24 N          -0.6735  -15.4198  -44.9129 N.am      10 UNK        -0.5000 
     25 C          -0.2831  -14.1490  -44.7946 C.2       9 UNK         0.5000 
     26 O          -0.0600  -13.4186  -45.7610 O.2       9 UNK        -0.5000 
     27 CA         -0.1347  -13.5995  -43.3625 C.3       9 UNK         0.1400 
     28 CB         -0.5921  -12.1319  -43.2535 C.3       9 UNK        -0.1800 
     29 N          -0.8641  -14.4238  -42.3941 N.am      9 UNK        -0.5000 
     30 C          -0.5961  -14.5167  -41.0888 C.2       8 UNK         0.5000 
     31 O           0.3189  -13.9022  -40.5400 O.2       8 UNK        -0.5000 
     32 CA         -1.4857  -15.4470  -40.2387 C.3       8 UNK         0.1400 
     33 CB         -2.7651  -14.7173  -39.7870 C.3       8 UNK        -0.1800 
     34 N          -1.8021  -16.7559  -40.8326 N.am      8 UNK        -0.5000 
     35 C          -2.5554  -17.0454  -41.9029 C.2       7 UNK         0.5000 
     36 O          -3.0259  -16.1949  -42.6602 O.2       7 UNK        -0.5000 
     37 CA         -2.7708  -18.5439  -42.1792 C.3       7 UNK         0.1400 
     38 CB         -3.6933  -18.8068  -43.3834 C.3       7 UNK        -0.1800 
     39 N          -1.4754  -19.1626  -42.4325 N.am      7 UNK        -0.5000 
     40 C          -0.8474  -20.0411  -41.6431 C.2       6 UNK         0.5000 
     41 O          -1.3234  -20.4899  -40.6002 O.2       6 UNK        -0.5000 
     42 CA          0.5696  -20.4635  -42.0785 C.3       6 UNK         0.1400 
     43 CB          0.5096  -21.6690  -43.0275 C.3       6 UNK        -0.1800 
     44 N           1.3033  -19.3788  -42.7322 N.am      6 UNK        -0.5000 
     45 C           1.7416  -18.2694  -42.1284 C.2       5 UNK         0.5000 
     46 O           1.6486  -18.0812  -40.9140 O.2       5 UNK        -0.5000 
     47 CA          2.3758  -17.1956  -43.0394 C.3       5 UNK         0.1400 
     48 CB          2.8195  -15.9452  -42.2645 C.3       5 UNK        -0.1800 
     49 N           3.5170  -17.6742  -43.8201 N.am      5 UNK        -0.5000 
     50 C           3.4695  -18.4720  -44.8949 C.2       4 UNK         0.5000 
     51 O           2.4370  -19.0071  -45.2984 O.2       4 UNK        -0.5000 
     52 CA          4.7960  -18.6971  -45.6418 C.3       4 UNK         0.1400 
     53 CB          4.5911  -19.0519  -47.1256 C.3       4 UNK        -0.1800 
     54 N           5.6586  -17.5184  -45.5440 N.am      4 UNK        -0.5000 
     55 C           6.9861  -17.5531  -45.3675 C.2       3 UNK         0.5000 
     56 O           7.6244  -18.5974  -45.2273 O.2       3 UNK        -0.5000 
     57 CA          7.7483  -16.2108  -45.3585 C.3       3 UNK         0.1400 
     58 CB          8.5145  -16.0240  -46.6776 C.3       3 UNK        -0.1800 
     59 N           6.9009  -15.0370  -45.1438 N.am      3 UNK        -0.5000 
     60 C           6.2997  -14.7186  -43.9903 C.2       2 UNK         0.5000 
     61 O           6.3970  -15.3869  -42.9610 O.2       2 UNK        -0.5000 
     62 CA          5.4183  -13.4534  -43.9973 C.3       2 UNK         0.1400 
     63 CB          6.2443  -12.2273  -43.5809 C.3       2 UNK        -0.1800 
     64 N           4.7556  -13.1649  -45.2749 N.am      2 UNK        -0.5000 
     65 C           3.9747  -13.9939  -45.9830 C.2       1 UNK         0.5000 
     66 O           3.7697  -15.1686  -45.6767 O.2       1 UNK        -0.5000 
     67 C          -1.9342  -20.3702  -46.6915 C.2       11 UNK         0.5000 
     68 O          -2.9412  -19.8116  -47.1357 O.2       11 UNK        -0.5000 
     69 N          -1.9716  -21.4698  -45.9324 N.am      12 UNK        -0.5000 
     70 CA         -3.1961  -22.2078  -45.6304 C.3       12 UNK         0.1400 
     71 CB         -2.9190  -23.1537  -44.4517 C.3       12 UNK        -0.1800 
     72 C          -3.6824  -22.9987  -46.8582 C.2       12 UNK         0.5000 
     73 O          -2.8761  -23.3449  -47.7238 O.2       12 UNK        -0.5000 
     74 N          -4.9799  -23.3315  -46.8842 N.am      13 UNK        -0.5000 
     75 CA         -5.6338  -24.0996  -47.9536 C.3       13 UNK         0.1400 
     76 CB         -7.1444  -24.1490  -47.6778 C.3       13 UNK        -0.1800 
     77 C          -5.0717  -25.5242  -48.1558 C.2       13 UNK         0.5000 
     78 O          -5.2686  -26.1105  -49.2194 O.2       13 UNK        -0.5000 
     79 N          -4.3552  -26.0430  -47.1491 N.am      14 UNK        -0.5000 
     80 CA         -3.5892  -27.2866  -47.2106 C.3       14 UNK         0.1400 
     81 CB         -3.0919  -27.6307  -45.7984 C.3       14 UNK        -0.1800 
     82 C          -2.4048  -27.2339  -48.1991 C.2       14 UNK         0.5000 
     83 O          -1.9853  -28.2855  -48.6834 O.2       14 UNK        -0.5000 
     84 N          -1.8968  -26.0311  -48.5116 N.am      15 UNK        -0.5000 
     85 CA         -0.7873  -25.7921  -49.4391 C.3       15 UNK         0.1400 
     86 CB         -0.0754  -24.4846  -49.0466 C.3       15 UNK        -0.1800 
     87 C          -1.2335  -25.8091  -50.9189 C.2       15 UNK         0.5000 
     88 O          -0.8730  -24.9097  -51.6812 O.2       15 UNK        -0.5000 
     89 N          -2.0018  -26.8436  -51.2917 N.am      16 UNK        -0.5000 
     90 CA         -2.4692  -27.2081  -52.6327 C.3       16 UNK         0.1400 
     91 CB         -1.3325  -27.9265  -53.3921 C.3       16 UNK        -0.1800 
     92 C          -3.0798  -26.0283  -53.4181 C.2       16 UNK         0.5000 
     93 O          -4.2311  -25.6623  -53.1745 O.2       16 UNK        -0.5000 
     94 N          -2.2871  -25.4444  -54.3282 N.am      17 UNK        -0.5000 
     95 CA         -2.6340  -24.3183  -55.1958 C.3       17 UNK         0.1400 
     96 CB         -1.4531  -24.0312  -56.1348 C.3       17 UNK        -0.1800 
     97 C          -3.0534  -23.0348  -54.4548 C.2       17 UNK         0.5000 
     98 O          -3.7354  -22.2061  -55.0553 O.2       17 UNK        -0.5000 
     99 N          -2.6909  -22.8991  -53.1701 N.am      18 UNK        -0.5000 
    100 CA        -3.1313  -21.8130  -52.2904 C.3       18 UNK         0.1400 
    101 CB        -2.5003  -21.9954  -50.9039 C.3       18 UNK        -0.1800 
    102 C         -4.6641  -21.7101  -52.1664 C.2       18 UNK         0.5000 
    103 O         -5.1949  -20.5997  -52.1476 O.2       18 UNK        -0.5000 
    104 N         -5.3499  -22.8631  -52.1325 N.am      19 UNK        -0.5000 
    105 CA        -6.8109  -22.9425  -52.0979 C.3       19 UNK         0.1400 
    106 CB        -7.2407  -24.3762  -51.7575 C.3       19 UNK        -0.1800 
    107 C         -7.4564  -22.4910  -53.4194 C.2       19 UNK         0.5000 
    108 O         -8.4919  -21.8264  -53.3943 O.2       19 UNK        -0.5000 
    109 N         -6.8257  -22.8422  -54.5479 N.am      20 UNK        -0.5000 
    110 CA        -7.2619  -22.4509  -55.8880 C.3       20 UNK         0.1400 
    111 CB        -6.5486  -23.3224  -56.9337 C.3       20 UNK        -0.1800 
    112 C         -7.0228  -20.9553  -56.1615 C.2       20 UNK         0.5000 
    113 O         -7.8755  -20.3038  -56.7657 O.2       20 UNK        -0.5000 
    114 N         -5.8724  -20.4435  -55.7055 N.am      21 UNK        -0.5000 
    115 CA        -5.4605  -19.0508  -55.8491 C.3       21 UNK         0.1400 
    116 CB        -3.9658  -18.9247  -55.5114 C.3       21 UNK        -0.1800 
    117 C         -6.2951  -18.0890  -54.9872 C.2       21 UNK         0.5000 
    118 O         -6.7855  -17.0855  -55.5080 O.2       21 UNK        -0.5000 
    119 N         -6.4217  -18.3989  -53.6911 N.am      22 UNK        -0.5000 
    120 CA        -7.0304  -17.5082  -52.6882 C.3       22 UNK         0.1400 
    121 C         -8.5117  -17.8386  -52.3522 C.2       22 UNK         0.5000 
    122 N         -9.0811  -18.9437  -52.8150 N.am      22 UNK        -0.7600 
    123 O         -9.1709  -17.0610  -51.6671 O.2       22 UNK        -0.5000 
    124 C124       -6.1714  -17.4299  -51.4008 C.3       23 UNK        -0.0398 
    125 S125       -4.4621  -16.8815  -51.7335 S.3       23 UNK        -0.2404 
    126 C126       -3.7378  -17.0898  -50.0834 C.3       23 UNK        -0.0205 
    127 H127        1.6612   -9.8502  -45.0881 H         1 UNK         0.0600 
    128 H128        0.5587  -10.6461  -46.2183 H         1 UNK         0.0600 
    129 H129        1.5165   -9.2627  -46.7486 H         1 UNK         0.0600 
    130 H130        1.4038  -12.6705  -46.6474 H         1 UNK         0.3000 
    131 H131        4.0964  -12.9289  -47.8228 H         1 UNK         0.0600 
    132 H132        1.8192  -14.9565  -47.5877 H         1 UNK         0.0800 
    133 H133        3.3476  -15.2483  -48.3743 H         1 UNK         0.0800 
    134 H134       -0.2681  -13.3158  -50.2265 H         1 UNK         0.0800 
    135 H135       -0.1012  -13.7014  -48.5342 H         1 UNK         0.0800 
    136 H136       -2.3515  -14.7791  -49.6537 H         1 UNK         0.1150 
    137 H137       -1.8056  -18.9171  -50.5860 H         1 UNK         0.1150 
    138 H138        1.6086  -16.4054  -50.0394 H         1 UNK         0.1150 
    139 H139        1.7991  -18.6300  -51.1443 H         1 UNK         0.0800 
    140 H140        0.4349  -19.7151  -51.1922 H         1 UNK         0.0800 
    141 H141       -0.8225  -20.3775  -49.1364 H         1 UNK         0.0800 
    142 H142        0.1292  -21.5080  -48.2319 H         1 UNK         0.0800 
    143 H143        0.1624  -20.1168  -46.2579 H         1 UNK         0.0600 
    144 H144       -0.6895  -17.9278  -47.9729 H         1 UNK         0.3000 
    145 H145       -0.3309  -15.7482  -46.9598 H         1 UNK         0.0600 
    146 H146       -2.7682  -16.5177  -47.3335 H         1 UNK         0.0600 
    147 H147       -2.6327  -14.8512  -46.7890 H         1 UNK         0.0600 
    148 H148       -3.0994  -16.1222  -45.6591 H         1 UNK         0.0600 
    149 H149       -0.7734  -15.9980  -44.0900 H         1 UNK         0.3000 
    150 H150        0.9308  -13.6460  -43.1303 H         1 UNK         0.0600 
    151 H151       -0.0272  -11.4907  -43.9298 H         1 UNK         0.0600 
    152 H152       -0.4434  -11.7410  -42.2471 H         1 UNK         0.0600 
    153 H153       -1.6485  -12.0251  -43.5018 H         1 UNK         0.0600 
    154 H154       -1.6764  -14.9312  -42.7404 H         1 UNK         0.3000 
    155 H155       -0.9119  -15.6750  -39.3389 H         1 UNK         0.0600 
    156 H156       -3.3541  -15.3364  -39.1102 H         1 UNK         0.0600 
    157 H157       -3.3996  -14.4446  -40.6307 H         1 UNK         0.0600 
    158 H158       -2.5204  -13.7972  -39.2549 H         1 UNK         0.0600 
    159 H159       -1.4085  -17.5423  -40.3337 H         1 UNK         0.3000 
    160 H160       -3.2422  -18.9742  -41.2934 H         1 UNK         0.0600 
    161 H161       -3.2815  -18.4031  -44.3088 H         1 UNK         0.0600 
    162 H162       -4.6731  -18.3524  -43.2328 H         1 UNK         0.0600 
    163 H163       -3.8491  -19.8754  -43.5270 H         1 UNK         0.0600 
    164 H164       -0.9982  -18.8307  -43.2707 H         1 UNK         0.3000 
    165 H165        1.1200  -20.7583  -41.1827 H         1 UNK         0.0600 
    166 H166        0.0147  -21.4130  -43.9631 H         1 UNK         0.0600 
    167 H167        1.5095  -22.0317  -43.2664 H         1 UNK         0.0600 
    168 H168       -0.0393  -22.4972  -42.5773 H         1 UNK         0.0600 
    169 H169        1.4310  -19.4375  -43.7397 H         1 UNK         0.3000 
    170 H170        1.5980  -16.8825  -43.7373 H         1 UNK         0.0600 
    171 H171        2.0413  -15.5939  -41.5904 H         1 UNK         0.0600 
    172 H172        3.7103  -16.1340  -41.6644 H         1 UNK         0.0600 
    173 H173        3.0360  -15.1296  -42.9509 H         1 UNK         0.0600 
    174 H174        4.4179  -17.3040  -43.5533 H         1 UNK         0.3000 
    175 H175        5.2709  -19.5482  -45.1499 H         1 UNK         0.0600 
    176 H176        4.0601  -18.2597  -47.6550 H         1 UNK         0.0600 
    177 H177        5.5436  -19.2137  -47.6301 H         1 UNK         0.0600 
    178 H178        4.0103  -19.9685  -47.2329 H         1 UNK         0.0600 
    179 H179        5.1854  -16.6227  -45.6237 H         1 UNK         0.3000 
    180 H180        8.4756  -16.2569  -44.5452 H         1 UNK         0.0600 
    181 H181        7.8368  -15.9577  -47.5298 H         1 UNK         0.0600 
    182 H182        9.1904  -16.8605  -46.8605 H         1 UNK         0.0600 
    183 H183        9.1208  -15.1182  -46.6578 H         1 UNK         0.0600 
    184 H184        6.7566  -14.4316  -45.9383 H         1 UNK         0.3000 
    185 H185        4.6377  -13.5935  -43.2499 H         1 UNK         0.0600 
    186 H186        6.7319  -12.3912  -42.6189 H         1 UNK         0.0600 
    187 H187        7.0232  -12.0010  -44.3102 H         1 UNK         0.0600 
    188 H188        5.6144  -11.3435  -43.4775 H         1 UNK         0.0600 
    189 H189        4.8236  -12.2090  -45.6065 H         1 UNK         0.3000 
    190 H190       -1.1078  -21.9088  -45.6529 H         1 UNK         0.3000 
    191 H191       -3.9753  -21.4999  -45.3408 H         1 UNK         0.0600 
    192 H192       -3.8164  -23.7054  -44.1692 H         1 UNK         0.0600 
    193 H193       -2.5926  -22.5986  -43.5717 H         1 UNK         0.0600 
    194 H194       -2.1460  -23.8847  -44.6933 H         1 UNK         0.0600 
    195 H195       -5.5766  -23.0285  -46.1276 H         1 UNK         0.3000 
    196 H196       -5.4743  -23.5599  -48.8897 H         1 UNK         0.0600 
    197 H197       -7.3630  -24.6385  -46.7280 H         1 UNK         0.0600 
    198 H198       -7.6703  -24.7006  -48.4581 H         1 UNK         0.0600 
    199 H199       -7.5729  -23.1470  -47.6473 H         1 UNK         0.0600 
    200 H200       -4.2563  -25.4938  -46.3090 H         1 UNK         0.3000 
    201 H201       -4.2603  -28.0811  -47.5431 H         1 UNK         0.0600 
    202 H202       -3.9241  -27.7466  -45.1037 H         1 UNK         0.0600 
    203 H203       -2.4302  -26.8575  -45.4054 H         1 UNK         0.0600 
    204 H204       -2.5367  -28.5697  -45.7974 H         1 UNK         0.0600 
    205 H205       -2.3268  -25.1974  -48.1219 H         1 UNK         0.3000 
    206 H206       -0.0606  -26.5989  -49.3241 H         1 UNK         0.0600 
    207 H207        0.2337  -24.4997  -48.0014 H         1 UNK         0.0600 
    208 H208        0.8212  -24.3303  -49.6480 H         1 UNK         0.0600 
    209 H209       -0.7186  -23.6181  -49.1926 H         1 UNK         0.0600 
    210 H210       -2.2412  -27.5029  -50.5595 H         1 UNK         0.3000 
    211 H211       -3.2771  -27.9278  -52.4933 H         1 UNK         0.0600 
    212 H212       -0.4380  -27.3084  -53.4778 H         1 UNK         0.0600 
    213 H213       -1.6447  -28.2074  -54.3990 H         1 UNK         0.0600 
    214 H214       -1.0456  -28.8448  -52.8795 H         1 UNK         0.0600 
    215 H215       -1.3429  -25.7915  -54.4125 H         1 UNK         0.3000 
    216 H216       -3.4863  -24.6280  -55.8036 H         1 UNK         0.0600 
    217 H217       -0.5588  -23.7470  -55.5787 H         1 UNK         0.0600 
    218 H218       -1.6870  -23.2152  -56.8201 H         1 UNK         0.0600 
    219 H219       -1.2096  -24.9030  -56.7422 H         1 UNK         0.0600 
    220 H220       -2.1142  -23.6218  -52.7511 H         1 UNK         0.3000 
    221 H221       -2.7695  -20.8736  -52.7131 H         1 UNK         0.0600 
    222 H222       -1.4123  -21.9593  -50.9596 H         1 UNK         0.0600 
    223 H223       -2.8239  -21.2118  -50.2175 H         1 UNK         0.0600 
    224 H224       -2.7817  -22.9514  -50.4607 H         1 UNK         0.0600 
    225 H225       -4.8464  -23.7392  -52.2097 H         1 UNK         0.3000 
    226 H226       -7.1705  -22.2816  -51.3062 H         1 UNK         0.0600 
    227 H227       -6.8426  -24.6875  -50.7941 H         1 UNK         0.0600 
    228 H228       -8.3270  -24.4559  -51.7003 H         1 UNK         0.0600 
    229 H229       -6.8969  -25.0904  -52.5066 H         1 UNK         0.0600 
    230 H230       -5.9606  -23.3573  -54.4789 H         1 UNK         0.3000 
    231 H231       -8.3349  -22.6385  -55.9677 H         1 UNK         0.0600 
    232 H232       -6.7514  -24.3809  -56.7699 H         1 UNK         0.0600 
    233 H233       -5.4679  -23.1805  -56.9125 H         1 UNK         0.0600 
    234 H234       -6.8902  -23.0782  -57.9404 H         1 UNK         0.0600 
    235 H235       -5.1967  -21.0726  -55.2787 H         1 UNK         0.3000 
    236 H236       -5.5940  -18.7651  -56.8946 H         1 UNK         0.0600 
    237 H237       -3.7558  -19.2364  -54.4873 H         1 UNK         0.0600 
    238 H238       -3.3585  -19.5381  -56.1772 H         1 UNK         0.0600 
    239 H239       -3.6262  -17.8936  -55.6167 H         1 UNK         0.0600 
    240 H240       -5.9817  -19.2384  -53.3254 H         1 UNK         0.3000 
    241 H241       -7.0588  -16.4950  -53.0934 H         1 UNK         0.0600 
    242 H242       -8.5572  -19.6331  -53.3366 H         1 UNK         0.3800 
    243 H243      -10.0446  -19.1308  -52.5880 H         1 UNK         0.3800 
    244 H244       -6.6128  -16.7330  -50.6861 H         1 UNK         0.0800 
    245 H245       -6.1419  -18.4022  -50.9065 H         1 UNK         0.0800 
    246 H246       -4.2103  -16.3909  -49.3915 H         1 UNK         0.0800 
    247 H247       -3.9583  -18.0915  -49.7094 H         1 UNK         0.0800 
@<TRIPOS>BOND
     1    1    2 1    
     2    1  127 1    
     3    1  128 1    
     4    1  129 1    
     5    2    3 2    
     6    2    4 am   BACKBONE|DICT|INTERRES
     7    4    5 1    
     8    4  130 1    
     9    5    6 1    
    10    5   65 1    
    11    5  131 1    
    12    6    7 1    
    13    6  132 1    
    14    6  133 1    
    15    7    8 1    
    16    8    9 1    
    17    8  134 1    
    18    8  135 1    
    19    9   10 ar   
    20    9   14 ar   
    21   10   11 ar   
    22   10  136 1    
    23   11   12 ar   
    24   11  126 1    
    25   12   13 ar   
    26   12  137 1    
    27   13   14 ar   
    28   13   15 1    
    29   14  138 1    
    30   15   16 1    
    31   15  139 1    
    32   15  140 1    
    33   16   17 1    
    34   17   18 1    
    35   17  141 1    
    36   17  142 1    
    37   18   19 1    
    38   18   67 1    
    39   18  143 1    
    40   19   20 am   BACKBONE|DICT|INTERRES
    41   19  144 1    
    42   20   21 2    
    43   20   22 1    
    44   22   23 1    
    45   22   24 1    
    46   22  145 1    
    47   23  146 1    
    48   23  147 1    
    49   23  148 1    
    50   24   25 am   BACKBONE|DICT|INTERRES
    51   24  149 1    
    52   25   26 2    
    53   25   27 1    
    54   27   28 1    
    55   27   29 1    
    56   27  150 1    
    57   28  151 1    
    58   28  152 1    
    59   28  153 1    
    60   29   30 am   BACKBONE|DICT|INTERRES
    61   29  154 1    
    62   30   31 2    
    63   30   32 1    
    64   32   33 1    
    65   32   34 1    
    66   32  155 1    
    67   33  156 1    
    68   33  157 1    
    69   33  158 1    
    70   34   35 am   BACKBONE|DICT|INTERRES
    71   34  159 1    
    72   35   36 2    
    73   35   37 1    
    74   37   38 1    
    75   37   39 1    
    76   37  160 1    
    77   38  161 1    
    78   38  162 1    
    79   38  163 1    
    80   39   40 am   BACKBONE|DICT|INTERRES
    81   39  164 1    
    82   40   41 2    
    83   40   42 1    
    84   42   43 1    
    85   42   44 1    
    86   42  165 1    
    87   43  166 1    
    88   43  167 1    
    89   43  168 1    
    90   44   45 am   BACKBONE|DICT|INTERRES
    91   44  169 1    
    92   45   46 2    
    93   45   47 1    
    94   47   48 1    
    95   47   49 1    
    96   47  170 1    
    97   48  171 1    
    98   48  172 1    
    99   48  173 1    
   100   49   50 am   BACKBONE|DICT|INTERRES
   101   49  174 1    
   102   50   51 2    
   103   50   52 1    
   104   52   53 1    
   105   52   54 1    
   106   52  175 1    
   107   53  176 1    
   108   53  177 1    
   109   53  178 1    
   110   54   55 am   BACKBONE|DICT|INTERRES
   111   54  179 1    
   112   55   56 2    
   113   55   57 1    
   114   57   58 1    
   115   57   59 1    
   116   57  180 1    
   117   58  181 1    
   118   58  182 1    
   119   58  183 1    
   120   59   60 am   BACKBONE|DICT|INTERRES
   121   59  184 1    
   122   60   61 2    
   123   60   62 1    
   124   62   63 1    
   125   62   64 1    
   126   62  185 1    
   127   63  186 1    
   128   63  187 1    
   129   63  188 1    
   130   64   65 am   BACKBONE|DICT|INTERRES
   131   64  189 1    
   132   65   66 2    
   133   67   68 2    
   134   67   69 am   BACKBONE|DICT|INTERRES
   135   69   70 1    
   136   69  190 1    
   137   70   71 1    
   138   70   72 1    
   139   70  191 1    
   140   71  192 1    
   141   71  193 1    
   142   71  194 1    
   143   72   73 2    
   144   72   74 am   BACKBONE|DICT|INTERRES
   145   74   75 1    
   146   74  195 1    
   147   75   76 1    
   148   75   77 1    
   149   75  196 1    
   150   76  197 1    
   151   76  198 1    
   152   76  199 1    
   153   77   78 2    
   154   77   79 am   BACKBONE|DICT|INTERRES
   155   79   80 1    
   156   79  200 1    
   157   80   81 1    
   158   80   82 1    
   159   80  201 1    
   160   81  202 1    
   161   81  203 1    
   162   81  204 1    
   163   82   83 2    
   164   82   84 am   BACKBONE|DICT|INTERRES
   165   84   85 1    
   166   84  205 1    
   167   85   86 1    
   168   85   87 1    
   169   85  206 1    
   170   86  207 1    
   171   86  208 1    
   172   86  209 1    
   173   87   88 2    
   174   87   89 am   BACKBONE|DICT|INTERRES
   175   89   90 1    
   176   89  210 1    
   177   90   91 1    
   178   90   92 1    
   179   90  211 1    
   180   91  212 1    
   181   91  213 1    
   182   91  214 1    
   183   92   93 2    
   184   92   94 am   BACKBONE|DICT|INTERRES
   185   94   95 1    
   186   94  215 1    
   187   95   96 1    
   188   95   97 1    
   189   95  216 1    
   190   96  217 1    
   191   96  218 1    
   192   96  219 1    
   193   97   98 2    
   194   97   99 am   BACKBONE|DICT|INTERRES
   195   99  100 1    
   196   99  220 1    
   197  100  101 1    
   198  100  102 1    
   199  100  221 1    
   200  101  222 1    
   201  101  223 1    
   202  101  224 1    
   203  102  103 2    
   204  102  104 am   BACKBONE|DICT|INTERRES
   205  104  105 1    
   206  104  225 1    
   207  105  106 1    
   208  105  107 1    
   209  105  226 1    
   210  106  227 1    
   211  106  228 1    
   212  106  229 1    
   213  107  108 2    
   214  107  109 am   BACKBONE|DICT|INTERRES
   215  109  110 1    
   216  109  230 1    
   217  110  111 1    
   218  110  112 1    
   219  110  231 1    
   220  111  232 1    
   221  111  233 1    
   222  111  234 1    
   223  112  113 2    
   224  112  114 am   BACKBONE|DICT|INTERRES
   225  114  115 1    
   226  114  235 1    
   227  115  116 1    
   228  115  117 1    
   229  115  236 1    
   230  116  237 1    
   231  116  238 1    
   232  116  239 1    
   233  117  118 2    
   234  117  119 am   BACKBONE|DICT|INTERRES
   235  119  120 1    
   236  119  240 1    
   237  120  121 1    
   238  120  124 1    
   239  120  241 1    
   240  121  122 am   BACKBONE|DICT|INTERRES
   241  121  123 2    
   242  122  242 1    
   243  122  243 1    
   244  124  125 1    
   245  124  244 1    
   246  124  245 1    
   247  125  126 1    
   248  126  246 1    
   249  126  247 1    
@<TRIPOS>SUBSTRUCTURE
     1 UNK         1 GROUP             0       ****    0 ROOT    
