@<TRIPOS>MOLECULE
3R540
247   249    1
SMALL
USER_CHARGES


@<TRIPOS>ATOM
      1 CA         -0.3541  -12.5077  -50.7097 C.3       0 UNK        -0.1800 
      2 C           0.5573  -13.1664  -49.6851 C.2       0 UNK         0.5000 
      3 O           0.0659  -13.7762  -48.7401 O.2       0 UNK        -0.5000 
      4 N           1.8790  -13.0540  -49.8699 N.am      1 UNK        -0.5000 
      5 CA          2.9167  -13.5534  -48.9581 C.3       1 UNK         0.1400 
      6 C6          2.8415  -15.0933  -48.7406 C.3       23 UNK        -0.0398 
      7 S7          4.4709  -15.8539  -48.4204 S.3       23 UNK        -0.2404 
      8 C8          4.9203  -16.5018  -50.0608 C.3       23 UNK        -0.0205 
      9 C9          4.1087  -17.7332  -50.4353 C.ar      23 UNK        -0.0193 
     10 C10         3.0955  -17.6483  -51.3939 C.ar      23 UNK        -0.1150 
     11 C11         2.3532  -18.7789  -51.7506 C.ar      23 UNK        -0.0193 
     12 C12         2.6457  -20.0066  -51.1467 C.ar      23 UNK        -0.1150 
     13 C13         3.6699  -20.1085  -50.2001 C.ar      23 UNK        -0.0193 
     14 C14         4.3921  -18.9666  -49.8434 C.ar      23 UNK        -0.1150 
     15 C15         4.0262  -21.4549  -49.5877 C.3       23 UNK        -0.0205 
     16 S16         3.1718  -21.7323  -48.0071 S.3       23 UNK        -0.2404 
     17 C17         1.4835  -22.1264  -48.5718 C.3       23 UNK        -0.0398 
     18 CA          0.7310  -23.0074  -47.5482 C.3       11 UNK         0.1400 
     19 N           0.4178  -22.2922  -46.3065 N.am      11 UNK        -0.5000 
     20 C          -0.0698  -22.8719  -45.2005 C.2       10 UNK         0.5000 
     21 O          -0.2473  -24.0854  -45.0893 O.2       10 UNK        -0.5000 
     22 CA         -0.4838  -21.9389  -44.0473 C.3       10 UNK         0.1400 
     23 CB          0.7348  -21.5078  -43.2179 C.3       10 UNK        -0.1800 
     24 N          -1.2133  -20.7594  -44.5177 N.am      10 UNK        -0.5000 
     25 C          -2.4138  -20.8047  -45.1140 C.2       9 UNK         0.5000 
     26 O          -3.0574  -21.8422  -45.2654 O.2       9 UNK        -0.5000 
     27 CA         -2.9706  -19.4856  -45.6823 C.3       9 UNK         0.1400 
     28 CB         -3.6677  -18.6647  -44.5884 C.3       9 UNK        -0.1800 
     29 N          -1.9435  -18.6727  -46.3330 N.am      9 UNK        -0.5000 
     30 C          -1.2554  -19.0467  -47.4212 C.2       8 UNK         0.5000 
     31 O          -1.4630  -20.0928  -48.0327 O.2       8 UNK        -0.5000 
     32 CA         -0.1075  -18.1285  -47.8718 C.3       8 UNK         0.1400 
     33 CB         -0.6372  -16.9819  -48.7352 C.3       8 UNK        -0.1800 
     34 N           0.6529  -17.5948  -46.7423 N.am      8 UNK        -0.5000 
     35 C           1.4113  -18.3502  -45.9357 C.2       7 UNK         0.5000 
     36 O           1.5594  -19.5621  -46.0795 O.2       7 UNK        -0.5000 
     37 CA          2.0545  -17.6486  -44.7272 C.3       7 UNK         0.1400 
     38 CB          3.3449  -16.9213  -45.1224 C.3       7 UNK        -0.1800 
     39 N           1.1400  -16.7072  -44.0832 N.am      7 UNK        -0.5000 
     40 C           0.0385  -17.0788  -43.4169 C.2       6 UNK         0.5000 
     41 O          -0.2937  -18.2508  -43.2420 O.2       6 UNK        -0.5000 
     42 CA         -0.8637  -15.9488  -42.8972 C.3       6 UNK         0.1400 
     43 CB         -0.3752  -15.4530  -41.5286 C.3       6 UNK        -0.1800 
     44 N          -0.9477  -14.8220  -43.8274 N.am      6 UNK        -0.5000 
     45 C          -1.5195  -14.8740  -45.0395 C.2       5 UNK         0.5000 
     46 O          -1.9700  -15.9118  -45.5259 O.2       5 UNK        -0.5000 
     47 CA         -1.5833  -13.5553  -45.8386 C.3       5 UNK         0.1400 
     48 CB         -2.7412  -13.5259  -46.8581 C.3       5 UNK        -0.1800 
     49 N          -1.5936  -12.3561  -44.9959 N.am      5 UNK        -0.5000 
     50 C          -2.4928  -11.9983  -44.0683 C.2       4 UNK         0.5000 
     51 O          -3.5315  -12.6211  -43.8422 O.2       4 UNK        -0.5000 
     52 CA         -2.1213  -10.7629  -43.2160 C.3       4 UNK         0.1400 
     53 CB         -3.0874  -10.5395  -42.0382 C.3       4 UNK        -0.1800 
     54 N          -0.7558  -10.8711  -42.6893 N.am      4 UNK        -0.5000 
     55 C           0.3646  -10.6076  -43.3747 C.2       3 UNK         0.5000 
     56 O           0.3546  -10.1564  -44.5223 O.2       3 UNK        -0.5000 
     57 CA          1.7120  -10.9221  -42.6889 C.3       3 UNK         0.1400 
     58 CB          1.6015  -11.9359  -41.5287 C.3       3 UNK        -0.1800 
     59 N           2.7325  -11.3559  -43.6500 N.am      3 UNK        -0.5000 
     60 C           2.7005  -12.4233  -44.4635 C.2       2 UNK         0.5000 
     61 O           1.7944  -13.2636  -44.4900 O.2       2 UNK        -0.5000 
     62 CA          3.9455  -12.5933  -45.3555 C.3       2 UNK         0.1400 
     63 CB          5.0322  -13.3841  -44.6108 C.3       2 UNK        -0.1800 
     64 N           3.6671  -13.2591  -46.6276 N.am      2 UNK        -0.5000 
     65 C           2.9872  -12.7225  -47.6487 C.2       1 UNK         0.5000 
     66 O           2.4948  -11.5915  -47.6080 O.2       1 UNK        -0.5000 
     67 C          -0.5266  -23.6392  -48.1796 C.2       11 UNK         0.5000 
     68 O          -0.4681  -24.7916  -48.6054 O.2       11 UNK        -0.5000 
     69 N          -1.6486  -22.9063  -48.1927 N.am      12 UNK        -0.5000 
     70 CA         -2.9468  -23.3934  -48.6586 C.3       12 UNK         0.1400 
     71 CB         -3.9469  -22.2317  -48.7326 C.3       12 UNK        -0.1800 
     72 C          -3.5002  -24.5433  -47.7985 C.2       12 UNK         0.5000 
     73 O          -4.0321  -25.5061  -48.3496 O.2       12 UNK        -0.5000 
     74 N          -3.3336  -24.4534  -46.4720 N.am      13 UNK        -0.5000 
     75 CA         -3.6771  -25.5160  -45.5262 C.3       13 UNK         0.1400 
     76 CB         -3.5482  -24.9991  -44.0856 C.3       13 UNK        -0.1800 
     77 C          -2.8302  -26.7837  -45.7426 C.2       13 UNK         0.5000 
     78 O          -3.3871  -27.8808  -45.7926 O.2       13 UNK        -0.5000 
     79 N          -1.5137  -26.6084  -45.9314 N.am      14 UNK        -0.5000 
     80 CA         -0.5655  -27.6793  -46.2556 C.3       14 UNK         0.1400 
     81 CB          0.8666  -27.1261  -46.2075 C.3       14 UNK        -0.1800 
     82 C          -0.8474  -28.3538  -47.6142 C.2       14 UNK         0.5000 
     83 O          -0.6418  -29.5602  -47.7486 O.2       14 UNK        -0.5000 
     84 N          -1.3536  -27.5750  -48.5796 N.am      15 UNK        -0.5000 
     85 CA         -1.8055  -28.0290  -49.8969 C.3       15 UNK         0.1400 
     86 CB         -1.8264  -26.8260  -50.8556 C.3       15 UNK        -0.1800 
     87 C          -3.1789  -28.7377  -49.8814 C.2       15 UNK         0.5000 
     88 O          -3.6214  -29.1883  -50.9389 O.2       15 UNK        -0.5000 
     89 N          -3.8228  -28.8280  -48.7067 N.am      16 UNK        -0.5000 
     90 CA         -5.1461  -29.4076  -48.4560 C.3       16 UNK         0.1400 
     91 CB         -5.1809  -30.9129  -48.7989 C.3       16 UNK        -0.1800 
     92 C          -6.2748  -28.5913  -49.1190 C.2       16 UNK         0.5000 
     93 O          -7.1408  -29.1572  -49.7891 O.2       16 UNK        -0.5000 
     94 N          -6.2295  -27.2737  -48.8775 N.am      17 UNK        -0.5000 
     95 CA         -7.0953  -26.1948  -49.3577 C.3       17 UNK         0.1400 
     96 CB         -8.5983  -26.5289  -49.2776 C.3       17 UNK        -0.1800 
     97 C          -6.6783  -25.7074  -50.7552 C.2       17 UNK         0.5000 
     98 O          -6.4935  -26.5070  -51.6749 O.2       17 UNK        -0.5000 
     99 N          -6.5593  -24.3831  -50.8794 N.am      18 UNK        -0.5000 
    100 CA        -6.1937  -23.6288  -52.0729 C.3       18 UNK         0.1400 
    101 CB        -4.6971  -23.8211  -52.3944 C.3       18 UNK        -0.1800 
    102 C         -6.5170  -22.1503  -51.7957 C.2       18 UNK         0.5000 
    103 O         -6.8868  -21.8042  -50.6683 O.2       18 UNK        -0.5000 
    104 N         -6.3652  -21.2951  -52.8129 N.am      19 UNK        -0.5000 
    105 CA        -6.4759  -19.8441  -52.6673 C.3       19 UNK         0.1400 
    106 CB        -6.6821  -19.2079  -54.0525 C.3       19 UNK        -0.1800 
    107 C         -5.2162  -19.2733  -51.9884 C.2       19 UNK         0.5000 
    108 O         -4.1030  -19.5998  -52.4073 O.2       19 UNK        -0.5000 
    109 N         -5.4143  -18.4085  -50.9839 N.am      20 UNK        -0.5000 
    110 CA        -4.3423  -17.6914  -50.2815 C.3       20 UNK         0.1400 
    111 CB        -4.7635  -17.4663  -48.8186 C.3       20 UNK        -0.1800 
    112 C         -3.9733  -16.3556  -50.9650 C.2       20 UNK         0.5000 
    113 O         -3.0655  -15.6649  -50.5022 O.2       20 UNK        -0.5000 
    114 N         -4.6663  -16.0030  -52.0571 N.am      21 UNK        -0.5000 
    115 CA        -4.4320  -14.8141  -52.8808 C.3       21 UNK         0.1400 
    116 CB        -5.7216  -14.4983  -53.6606 C.3       21 UNK        -0.1800 
    117 C         -3.2020  -14.9818  -53.8022 C.2       21 UNK         0.5000 
    118 O         -3.3204  -14.8882  -55.0257 O.2       21 UNK        -0.5000 
    119 N         -2.0480  -15.2640  -53.1909 N.am      22 UNK        -0.5000 
    120 CA        -0.7444  -15.4439  -53.8424 C.3       22 UNK         0.1400 
    121 C         -0.2092  -14.1446  -54.5092 C.2       22 UNK         0.5000 
    122 N          0.5696  -14.2671  -55.5758 N.am      22 UNK        -0.7600 
    123 O         -0.4575  -13.0315  -54.0516 O.2       22 UNK        -0.5000 
    124 C124        0.2945  -16.0180  -52.8470 C.3       23 UNK        -0.0398 
    125 S125       -0.1598  -17.6924  -52.2699 S.3       23 UNK        -0.2404 
    126 C126        1.2642  -18.6905  -52.8135 C.3       23 UNK        -0.0205 
    127 H127       -1.0187  -13.2500  -51.1518 H         1 UNK         0.0600 
    128 H128        0.2124  -12.0351  -51.5123 H         1 UNK         0.0600 
    129 H129       -0.9672  -11.7454  -50.2293 H         1 UNK         0.0600 
    130 H130        2.2187  -12.5084  -50.6494 H         1 UNK         0.3000 
    131 H131        3.8506  -13.3406  -49.4807 H         1 UNK         0.0600 
    132 H132        2.1627  -15.3415  -47.9237 H         1 UNK         0.0800 
    133 H133        2.4128  -15.5714  -49.6209 H         1 UNK         0.0800 
    134 H134        4.8047  -15.7148  -50.8076 H         1 UNK         0.0800 
    135 H135        5.9798  -16.7617  -50.0560 H         1 UNK         0.0800 
    136 H136        2.8895  -16.6984  -51.8627 H         1 UNK         0.1150 
    137 H137        2.0883  -20.8894  -51.4263 H         1 UNK         0.1150 
    138 H138        5.1823  -19.0383  -49.1091 H         1 UNK         0.1150 
    139 H139        3.8027  -22.2659  -50.2825 H         1 UNK         0.0800 
    140 H140        5.1022  -21.5001  -49.4127 H         1 UNK         0.0800 
    141 H141        1.5575  -22.6409  -49.5317 H         1 UNK         0.0800 
    142 H142        0.9453  -21.1965  -48.7603 H         1 UNK         0.0800 
    143 H143        1.3880  -23.8378  -47.2801 H         1 UNK         0.0600 
    144 H144        0.6014  -21.2930  -46.2995 H         1 UNK         0.3000 
    145 H145       -1.1519  -22.5016  -43.3919 H         1 UNK         0.0600 
    146 H146        0.4346  -20.9008  -42.3636 H         1 UNK         0.0600 
    147 H147        1.2678  -22.3764  -42.8292 H         1 UNK         0.0600 
    148 H148        1.4428  -20.9264  -43.8077 H         1 UNK         0.0600 
    149 H149       -0.7686  -19.8587  -44.3744 H         1 UNK         0.3000 
    150 H150       -3.7165  -19.7387  -46.4378 H         1 UNK         0.0600 
    151 H151       -4.4648  -19.2408  -44.1170 H         1 UNK         0.0600 
    152 H152       -4.1180  -17.7615  -45.0010 H         1 UNK         0.0600 
    153 H153       -2.9724  -18.3639  -43.8050 H         1 UNK         0.0600 
    154 H154       -1.7630  -17.7575  -45.9284 H         1 UNK         0.3000 
    155 H155        0.5714  -18.7230  -48.4875 H         1 UNK         0.0600 
    156 H156       -1.2417  -16.2795  -48.1616 H         1 UNK         0.0600 
    157 H157        0.1771  -16.4297  -49.2011 H         1 UNK         0.0600 
    158 H158       -1.2606  -17.3677  -49.5404 H         1 UNK         0.0600 
    159 H159        0.5242  -16.6186  -46.5246 H         1 UNK         0.3000 
    160 H160        2.3156  -18.4229  -44.0023 H         1 UNK         0.0600 
    161 H161        3.1367  -16.0332  -45.7176 H         1 UNK         0.0600 
    162 H162        4.0010  -17.5686  -45.7064 H         1 UNK         0.0600 
    163 H163        3.8999  -16.6114  -44.2375 H         1 UNK         0.0600 
    164 H164        1.3353  -15.7199  -44.1884 H         1 UNK         0.3000 
    165 H165       -1.8707  -16.3526  -42.7735 H         1 UNK         0.0600 
    166 H166       -0.9921  -14.6343  -41.1572 H         1 UNK         0.0600 
    167 H167       -0.4196  -16.2544  -40.7899 H         1 UNK         0.0600 
    168 H168        0.6584  -15.1090  -41.5703 H         1 UNK         0.0600 
    169 H169       -0.5439  -13.9461  -43.5299 H         1 UNK         0.3000 
    170 H170       -0.6436  -13.5067  -46.3850 H         1 UNK         0.0600 
    171 H171       -3.7118  -13.6315  -46.3730 H         1 UNK         0.0600 
    172 H172       -2.7439  -12.5938  -47.4229 H         1 UNK         0.0600 
    173 H173       -2.6470  -14.3368  -47.5819 H         1 UNK         0.0600 
    174 H174       -0.7764  -11.7606  -45.0860 H         1 UNK         0.3000 
    175 H175       -2.1864   -9.8895  -43.8685 H         1 UNK         0.0600 
    176 H176       -2.8198   -9.6464  -41.4727 H         1 UNK         0.0600 
    177 H177       -3.0861  -11.3856  -41.3497 H         1 UNK         0.0600 
    178 H178       -4.1107  -10.4027  -42.3910 H         1 UNK         0.0600 
    179 H179       -0.6692  -11.2521  -41.7581 H         1 UNK         0.3000 
    180 H180        2.0666   -9.9783  -42.2719 H         1 UNK         0.0600 
    181 H181        1.1541  -12.8733  -41.8560 H         1 UNK         0.0600 
    182 H182        0.9978  -11.5435  -40.7095 H         1 UNK         0.0600 
    183 H183        2.5837  -12.1660  -41.1150 H         1 UNK         0.0600 
    184 H184        3.5230  -10.7320  -43.7301 H         1 UNK         0.3000 
    185 H185        4.3432  -11.6020  -45.5843 H         1 UNK         0.0600 
    186 H186        5.3178  -12.8821  -43.6854 H         1 UNK         0.0600 
    187 H187        4.6915  -14.3843  -44.3455 H         1 UNK         0.0600 
    188 H188        5.9341  -13.4851  -45.2153 H         1 UNK         0.0600 
    189 H189        4.0530  -14.1859  -46.7436 H         1 UNK         0.3000 
    190 H190       -1.6074  -21.9351  -47.8915 H         1 UNK         0.3000 
    191 H191       -2.8060  -23.7831  -49.6677 H         1 UNK         0.0600 
    192 H192       -3.6229  -21.4734  -49.4462 H         1 UNK         0.0600 
    193 H193       -4.9261  -22.5850  -49.0530 H         1 UNK         0.0600 
    194 H194       -4.0777  -21.7483  -47.7655 H         1 UNK         0.0600 
    195 H195       -2.9539  -23.5956  -46.0812 H         1 UNK         0.3000 
    196 H196       -4.7225  -25.7836  -45.6937 H         1 UNK         0.0600 
    197 H197       -3.8327  -25.7697  -43.3682 H         1 UNK         0.0600 
    198 H198       -4.1985  -24.1407  -43.9166 H         1 UNK         0.0600 
    199 H199       -2.5282  -24.6948  -43.8526 H         1 UNK         0.0600 
    200 H200       -1.1281  -25.6727  -45.8372 H         1 UNK         0.3000 
    201 H201       -0.6582  -28.4460  -45.4837 H         1 UNK         0.0600 
    202 H202        1.0940  -26.7051  -45.2279 H         1 UNK         0.0600 
    203 H203        1.0218  -26.3444  -46.9509 H         1 UNK         0.0600 
    204 H204        1.5962  -27.9131  -46.4016 H         1 UNK         0.0600 
    205 H205       -1.4130  -26.5769  -48.4067 H         1 UNK         0.3000 
    206 H206       -1.0784  -28.7492  -50.2775 H         1 UNK         0.0600 
    207 H207       -0.8515  -26.3404  -50.9029 H         1 UNK         0.0600 
    208 H208       -2.0823  -27.1348  -51.8698 H         1 UNK         0.0600 
    209 H209       -2.5593  -26.0802  -50.5484 H         1 UNK         0.0600 
    210 H210       -3.3795  -28.4128  -47.8960 H         1 UNK         0.3000 
    211 H211       -5.3080  -29.3231  -47.3802 H         1 UNK         0.0600 
    212 H212       -5.0925  -31.0926  -49.8706 H         1 UNK         0.0600 
    213 H213       -6.1190  -31.3625  -48.4720 H         1 UNK         0.0600 
    214 H214       -4.3735  -31.4492  -48.3001 H         1 UNK         0.0600 
    215 H215       -5.3965  -26.9255  -48.4113 H         1 UNK         0.3000 
    216 H216       -6.9186  -25.3774  -48.6558 H         1 UNK         0.0600 
    217 H217       -9.1997  -25.6359  -49.4536 H         1 UNK         0.0600 
    218 H218       -8.8683  -26.9149  -48.2943 H         1 UNK         0.0600 
    219 H219       -8.8947  -27.2652  -50.0253 H         1 UNK         0.0600 
    220 H220       -6.7860  -23.7793  -50.0972 H         1 UNK         0.3000 
    221 H221       -6.8043  -23.9700  -52.9111 H         1 UNK         0.0600 
    222 H222       -4.0645  -23.4142  -51.6062 H         1 UNK         0.0600 
    223 H223       -4.4406  -24.8737  -52.5183 H         1 UNK         0.0600 
    224 H224       -4.4256  -23.3158  -53.3222 H         1 UNK         0.0600 
    225 H225       -6.0238  -21.6347  -53.7006 H         1 UNK         0.3000 
    226 H226       -7.3523  -19.6146  -52.0551 H         1 UNK         0.0600 
    227 H227       -7.5844  -19.5897  -54.5315 H         1 UNK         0.0600 
    228 H228       -6.7914  -18.1252  -53.9738 H         1 UNK         0.0600 
    229 H229       -5.8397  -19.4057  -54.7180 H         1 UNK         0.0600 
    230 H230       -6.3593  -18.1984  -50.6902 H         1 UNK         0.3000 
    231 H231       -3.4398  -18.3077  -50.2751 H         1 UNK         0.0600 
    232 H232       -5.6509  -16.8354  -48.7452 H         1 UNK         0.0600 
    233 H233       -3.9669  -16.9807  -48.2511 H         1 UNK         0.0600 
    234 H234       -4.9804  -18.4133  -48.3224 H         1 UNK         0.0600 
    235 H235       -5.3777  -16.6382  -52.3848 H         1 UNK         0.3000 
    236 H236       -4.2269  -13.9665  -52.2229 H         1 UNK         0.0600 
    237 H237       -6.5600  -14.3287  -52.9840 H         1 UNK         0.0600 
    238 H238       -5.6045  -13.5951  -54.2615 H         1 UNK         0.0600 
    239 H239       -5.9941  -15.3109  -54.3358 H         1 UNK         0.0600 
    240 H240       -2.0633  -15.3503  -52.1799 H         1 UNK         0.3000 
    241 H241       -0.8888  -16.1761  -54.6396 H         1 UNK         0.0600 
    242 H242        0.7911  -15.1672  -55.9732 H         1 UNK         0.3800 
    243 H243        0.9337  -13.4337  -56.0116 H         1 UNK         0.3800 
    244 H244        1.2785  -16.0527  -53.3153 H         1 UNK         0.0800 
    245 H245        0.3960  -15.3679  -51.9765 H         1 UNK         0.0800 
    246 H246        0.8976  -19.6887  -53.0575 H         1 UNK         0.0800 
    247 H247        1.6811  -18.2940  -53.7401 H         1 UNK         0.0800 
@<TRIPOS>BOND
     1    1    2 1    
     2    1  127 1    
     3    1  128 1    
     4    1  129 1    
     5    2    3 2    
     6    2    4 am   BACKBONE|DICT|INTERRES
     7    4    5 1    
     8    4  130 1    
     9    5    6 1    
    10    5   65 1    
    11    5  131 1    
    12    6    7 1    
    13    6  132 1    
    14    6  133 1    
    15    7    8 1    
    16    8    9 1    
    17    8  134 1    
    18    8  135 1    
    19    9   10 ar   
    20    9   14 ar   
    21   10   11 ar   
    22   10  136 1    
    23   11   12 ar   
    24   11  126 1    
    25   12   13 ar   
    26   12  137 1    
    27   13   14 ar   
    28   13   15 1    
    29   14  138 1    
    30   15   16 1    
    31   15  139 1    
    32   15  140 1    
    33   16   17 1    
    34   17   18 1    
    35   17  141 1    
    36   17  142 1    
    37   18   19 1    
    38   18   67 1    
    39   18  143 1    
    40   19   20 am   BACKBONE|DICT|INTERRES
    41   19  144 1    
    42   20   21 2    
    43   20   22 1    
    44   22   23 1    
    45   22   24 1    
    46   22  145 1    
    47   23  146 1    
    48   23  147 1    
    49   23  148 1    
    50   24   25 am   BACKBONE|DICT|INTERRES
    51   24  149 1    
    52   25   26 2    
    53   25   27 1    
    54   27   28 1    
    55   27   29 1    
    56   27  150 1    
    57   28  151 1    
    58   28  152 1    
    59   28  153 1    
    60   29   30 am   BACKBONE|DICT|INTERRES
    61   29  154 1    
    62   30   31 2    
    63   30   32 1    
    64   32   33 1    
    65   32   34 1    
    66   32  155 1    
    67   33  156 1    
    68   33  157 1    
    69   33  158 1    
    70   34   35 am   BACKBONE|DICT|INTERRES
    71   34  159 1    
    72   35   36 2    
    73   35   37 1    
    74   37   38 1    
    75   37   39 1    
    76   37  160 1    
    77   38  161 1    
    78   38  162 1    
    79   38  163 1    
    80   39   40 am   BACKBONE|DICT|INTERRES
    81   39  164 1    
    82   40   41 2    
    83   40   42 1    
    84   42   43 1    
    85   42   44 1    
    86   42  165 1    
    87   43  166 1    
    88   43  167 1    
    89   43  168 1    
    90   44   45 am   BACKBONE|DICT|INTERRES
    91   44  169 1    
    92   45   46 2    
    93   45   47 1    
    94   47   48 1    
    95   47   49 1    
    96   47  170 1    
    97   48  171 1    
    98   48  172 1    
    99   48  173 1    
   100   49   50 am   BACKBONE|DICT|INTERRES
   101   49  174 1    
   102   50   51 2    
   103   50   52 1    
   104   52   53 1    
   105   52   54 1    
   106   52  175 1    
   107   53  176 1    
   108   53  177 1    
   109   53  178 1    
   110   54   55 am   BACKBONE|DICT|INTERRES
   111   54  179 1    
   112   55   56 2    
   113   55   57 1    
   114   57   58 1    
   115   57   59 1    
   116   57  180 1    
   117   58  181 1    
   118   58  182 1    
   119   58  183 1    
   120   59   60 am   BACKBONE|DICT|INTERRES
   121   59  184 1    
   122   60   61 2    
   123   60   62 1    
   124   62   63 1    
   125   62   64 1    
   126   62  185 1    
   127   63  186 1    
   128   63  187 1    
   129   63  188 1    
   130   64   65 am   BACKBONE|DICT|INTERRES
   131   64  189 1    
   132   65   66 2    
   133   67   68 2    
   134   67   69 am   BACKBONE|DICT|INTERRES
   135   69   70 1    
   136   69  190 1    
   137   70   71 1    
   138   70   72 1    
   139   70  191 1    
   140   71  192 1    
   141   71  193 1    
   142   71  194 1    
   143   72   73 2    
   144   72   74 am   BACKBONE|DICT|INTERRES
   145   74   75 1    
   146   74  195 1    
   147   75   76 1    
   148   75   77 1    
   149   75  196 1    
   150   76  197 1    
   151   76  198 1    
   152   76  199 1    
   153   77   78 2    
   154   77   79 am   BACKBONE|DICT|INTERRES
   155   79   80 1    
   156   79  200 1    
   157   80   81 1    
   158   80   82 1    
   159   80  201 1    
   160   81  202 1    
   161   81  203 1    
   162   81  204 1    
   163   82   83 2    
   164   82   84 am   BACKBONE|DICT|INTERRES
   165   84   85 1    
   166   84  205 1    
   167   85   86 1    
   168   85   87 1    
   169   85  206 1    
   170   86  207 1    
   171   86  208 1    
   172   86  209 1    
   173   87   88 2    
   174   87   89 am   BACKBONE|DICT|INTERRES
   175   89   90 1    
   176   89  210 1    
   177   90   91 1    
   178   90   92 1    
   179   90  211 1    
   180   91  212 1    
   181   91  213 1    
   182   91  214 1    
   183   92   93 2    
   184   92   94 am   BACKBONE|DICT|INTERRES
   185   94   95 1    
   186   94  215 1    
   187   95   96 1    
   188   95   97 1    
   189   95  216 1    
   190   96  217 1    
   191   96  218 1    
   192   96  219 1    
   193   97   98 2    
   194   97   99 am   BACKBONE|DICT|INTERRES
   195   99  100 1    
   196   99  220 1    
   197  100  101 1    
   198  100  102 1    
   199  100  221 1    
   200  101  222 1    
   201  101  223 1    
   202  101  224 1    
   203  102  103 2    
   204  102  104 am   BACKBONE|DICT|INTERRES
   205  104  105 1    
   206  104  225 1    
   207  105  106 1    
   208  105  107 1    
   209  105  226 1    
   210  106  227 1    
   211  106  228 1    
   212  106  229 1    
   213  107  108 2    
   214  107  109 am   BACKBONE|DICT|INTERRES
   215  109  110 1    
   216  109  230 1    
   217  110  111 1    
   218  110  112 1    
   219  110  231 1    
   220  111  232 1    
   221  111  233 1    
   222  111  234 1    
   223  112  113 2    
   224  112  114 am   BACKBONE|DICT|INTERRES
   225  114  115 1    
   226  114  235 1    
   227  115  116 1    
   228  115  117 1    
   229  115  236 1    
   230  116  237 1    
   231  116  238 1    
   232  116  239 1    
   233  117  118 2    
   234  117  119 am   BACKBONE|DICT|INTERRES
   235  119  120 1    
   236  119  240 1    
   237  120  121 1    
   238  120  124 1    
   239  120  241 1    
   240  121  122 am   BACKBONE|DICT|INTERRES
   241  121  123 2    
   242  122  242 1    
   243  122  243 1    
   244  124  125 1    
   245  124  244 1    
   246  124  245 1    
   247  125  126 1    
   248  126  246 1    
   249  126  247 1    
@<TRIPOS>SUBSTRUCTURE
     1 UNK         1 GROUP             0       ****    0 ROOT    
