@<TRIPOS>MOLECULE
3R540
247   249    1
SMALL
USER_CHARGES


@<TRIPOS>ATOM
      1 CA         -2.8426  -12.0066  -51.2400 C.3       0 UNK        -0.1800 
      2 C          -3.1167  -13.4498  -50.8418 C.2       0 UNK         0.5000 
      3 O          -4.1913  -13.9721  -51.1355 O.2       0 UNK        -0.5000 
      4 N          -2.1505  -14.0932  -50.1796 N.am      1 UNK        -0.5000 
      5 CA         -2.2145  -15.4937  -49.7601 C.3       1 UNK         0.1400 
      6 C6         -3.0005  -15.6963  -48.4381 C.3       23 UNK        -0.0398 
      7 S7         -3.8048  -17.3263  -48.3515 S.3       23 UNK        -0.2404 
      8 C8         -5.0348  -17.0131  -47.0491 C.3       23 UNK        -0.0205 
      9 C9         -5.9354  -18.2188  -46.8361 C.ar      23 UNK        -0.0193 
     10 C10        -7.2110  -18.2423  -47.4014 C.ar      23 UNK        -0.1150 
     11 C11        -8.0444  -19.3515  -47.2416 C.ar      23 UNK        -0.0193 
     12 C12        -7.6070  -20.4264  -46.4619 C.ar      23 UNK        -0.1150 
     13 C13        -6.3377  -20.4109  -45.8705 C.ar      23 UNK        -0.0193 
     14 C14        -5.5046  -19.3042  -46.0686 C.ar      23 UNK        -0.1150 
     15 C15        -5.8636  -21.5599  -44.9858 C.3       23 UNK        -0.0205 
     16 S16        -6.2346  -23.2342  -45.6220 S.3       23 UNK        -0.2404 
     17 C17        -5.6158  -23.2132  -47.3469 C.3       23 UNK        -0.0398 
     18 CA         -4.1132  -23.5401  -47.5178 C.3       11 UNK         0.1400 
     19 N          -3.2744  -22.5075  -46.9101 N.am      11 UNK        -0.5000 
     20 C          -1.9694  -22.3449  -47.1452 C.2       10 UNK         0.5000 
     21 O          -1.3245  -23.0412  -47.9261 O.2       10 UNK        -0.5000 
     22 CA         -1.2540  -21.2409  -46.3526 C.3       10 UNK         0.1400 
     23 CB         -1.2654  -19.9396  -47.1582 C.3       10 UNK        -0.1800 
     24 N          -1.7786  -20.9814  -45.0072 N.am      10 UNK        -0.5000 
     25 C          -1.9327  -21.8899  -44.0312 C.2       9 UNK         0.5000 
     26 O          -1.8188  -23.1017  -44.2152 O.2       9 UNK        -0.5000 
     27 CA         -2.2598  -21.3828  -42.6154 C.3       9 UNK         0.1400 
     28 CB         -1.2818  -21.9800  -41.5892 C.3       9 UNK        -0.1800 
     29 N          -2.1854  -19.9255  -42.5267 N.am      9 UNK        -0.5000 
     30 C          -3.2081  -19.1090  -42.2442 C.2       8 UNK         0.5000 
     31 O          -4.3562  -19.5012  -42.0341 O.2       8 UNK        -0.5000 
     32 CA         -2.9070  -17.5956  -42.1786 C.3       8 UNK         0.1400 
     33 CB         -2.7708  -17.1410  -40.7174 C.3       8 UNK        -0.1800 
     34 N          -1.7061  -17.1839  -42.9111 N.am      8 UNK        -0.5000 
     35 C          -1.5592  -17.2666  -44.2398 C.2       7 UNK         0.5000 
     36 O          -2.4192  -17.7204  -44.9903 O.2       7 UNK        -0.5000 
     37 CA         -0.2048  -16.8238  -44.8232 C.3       7 UNK         0.1400 
     38 CB         -0.1965  -15.2999  -45.0176 C.3       7 UNK        -0.1800 
     39 N           0.9726  -17.2197  -44.0393 N.am      7 UNK        -0.5000 
     40 C           1.2243  -18.4286  -43.5062 C.2       6 UNK         0.5000 
     41 O           0.4653  -19.3905  -43.6134 O.2       6 UNK        -0.5000 
     42 CA          2.5298  -18.6169  -42.7039 C.3       6 UNK         0.1400 
     43 CB          3.4646  -19.5966  -43.4314 C.3       6 UNK        -0.1800 
     44 N           3.2649  -17.3794  -42.4434 N.am      6 UNK        -0.5000 
     45 C           2.8622  -16.3613  -41.6697 C.2       5 UNK         0.5000 
     46 O           1.8344  -16.3855  -40.9923 O.2       5 UNK        -0.5000 
     47 CA          3.7341  -15.0857  -41.6929 C.3       5 UNK         0.1400 
     48 CB          4.5440  -14.9649  -40.3930 C.3       5 UNK        -0.1800 
     49 N           4.6553  -15.0068  -42.8360 N.am      5 UNK        -0.5000 
     50 C           4.2895  -14.9562  -44.1245 C.2       4 UNK         0.5000 
     51 O           3.1150  -14.9635  -44.4993 O.2       4 UNK        -0.5000 
     52 CA          5.4326  -15.0064  -45.1533 C.3       4 UNK         0.1400 
     53 CB          5.9554  -16.4466  -45.2897 C.3       4 UNK        -0.1800 
     54 N           4.9946  -14.5540  -46.4709 N.am      4 UNK        -0.5000 
     55 C           4.8537  -13.2755  -46.8434 C.2       3 UNK         0.5000 
     56 O           5.1339  -12.3166  -46.1227 O.2       3 UNK        -0.5000 
     57 CA          4.3241  -13.0285  -48.2701 C.3       3 UNK         0.1400 
     58 CB          5.4917  -12.8055  -49.2441 C.3       3 UNK        -0.1800 
     59 N           3.4997  -14.1377  -48.7601 N.am      3 UNK        -0.5000 
     60 C           2.2118  -14.3060  -48.4389 C.2       2 UNK         0.5000 
     61 O           1.5594  -13.5046  -47.7641 O.2       2 UNK        -0.5000 
     62 CA          1.5418  -15.5884  -48.9497 C.3       2 UNK         0.1400 
     63 CB          1.9072  -16.7939  -48.0618 C.3       2 UNK        -0.1800 
     64 N           0.0988  -15.3676  -48.9621 N.am      2 UNK        -0.5000 
     65 C          -0.7819  -16.0472  -49.7077 C.2       1 UNK         0.5000 
     66 O          -0.4821  -17.0182  -50.3980 O.2       1 UNK        -0.5000 
     67 C          -3.7531  -24.9744  -47.0593 C.2       11 UNK         0.5000 
     68 O          -4.0330  -25.9236  -47.7927 O.2       11 UNK        -0.5000 
     69 N          -3.1299  -25.1062  -45.8794 N.am      12 UNK        -0.5000 
     70 CA         -2.6472  -26.3665  -45.3167 C.3       12 UNK         0.1400 
     71 CB         -3.1115  -26.4707  -43.8552 C.3       12 UNK        -0.1800 
     72 C          -1.1142  -26.4593  -45.4009 C.2       12 UNK         0.5000 
     73 O          -0.5870  -27.5259  -45.7175 O.2       12 UNK        -0.5000 
     74 N          -0.4251  -25.3436  -45.1220 N.am      13 UNK        -0.5000 
     75 CA          1.0355  -25.2327  -45.1113 C.3       13 UNK         0.1400 
     76 CB          1.4262  -23.9623  -44.3369 C.3       13 UNK        -0.1800 
     77 C           1.6701  -25.2167  -46.5158 C.2       13 UNK         0.5000 
     78 O           2.8707  -25.4624  -46.6324 O.2       13 UNK        -0.5000 
     79 N           0.8659  -24.9006  -47.5417 N.am      14 UNK        -0.5000 
     80 CA          1.2211  -24.7409  -48.9568 C.3       14 UNK         0.1400 
     81 CB          1.8112  -26.0393  -49.5450 C.3       14 UNK        -0.1800 
     82 C           2.0966  -23.5025  -49.2442 C.2       14 UNK         0.5000 
     83 O           2.6766  -23.4118  -50.3281 O.2       14 UNK        -0.5000 
     84 N           2.1550  -22.5546  -48.2953 N.am      15 UNK        -0.5000 
     85 CA          2.8729  -21.2819  -48.3933 C.3       15 UNK         0.1400 
     86 CB          2.7521  -20.5224  -47.0611 C.3       15 UNK        -0.1800 
     87 C           2.3378  -20.4447  -49.5674 C.2       15 UNK         0.5000 
     88 O           1.1829  -20.0193  -49.5305 O.2       15 UNK        -0.5000 
     89 N           3.1516  -20.3196  -50.6269 N.am      16 UNK        -0.5000 
     90 CA          2.8238  -19.7068  -51.9236 C.3       16 UNK         0.1400 
     91 CB          2.7201  -18.1761  -51.7738 C.3       16 UNK        -0.1800 
     92 C           1.5746  -20.3171  -52.6055 C.2       16 UNK         0.5000 
     93 O           0.9151  -19.6412  -53.3973 O.2       16 UNK        -0.5000 
     94 N           1.2470  -21.5703  -52.2475 N.am      17 UNK        -0.5000 
     95 CA          0.0457  -22.3265  -52.6153 C.3       17 UNK         0.1400 
     96 CB          0.1204  -22.7462  -54.0982 C.3       17 UNK        -0.1800 
     97 C          -1.2813  -21.6075  -52.2743 C.2       17 UNK         0.5000 
     98 O          -2.2754  -21.8285  -52.9664 O.2       17 UNK        -0.5000 
     99 N          -1.2728  -20.7250  -51.2595 N.am      18 UNK        -0.5000 
    100 CA        -2.3672  -19.8141  -50.8878 C.3       18 UNK         0.1400 
    101 CB        -3.5607  -20.5983  -50.3039 C.3       18 UNK        -0.1800 
    102 C         -2.7833  -18.8776  -52.0453 C.2       18 UNK         0.5000 
    103 O         -3.9693  -18.5948  -52.2236 O.2       18 UNK        -0.5000 
    104 N         -1.8009  -18.4632  -52.8602 N.am      19 UNK        -0.5000 
    105 CA        -1.9476  -17.7017  -54.1053 C.3       19 UNK         0.1400 
    106 CB        -2.4716  -16.2783  -53.8200 C.3       19 UNK        -0.1800 
    107 C         -2.7756  -18.4526  -55.1743 C.2       19 UNK         0.5000 
    108 O         -3.4065  -17.8197  -56.0220 O.2       19 UNK        -0.5000 
    109 N         -2.7599  -19.7931  -55.0980 N.am      20 UNK        -0.5000 
    110 CA        -3.5071  -20.7622  -55.9045 C.3       20 UNK         0.1400 
    111 CB        -3.1225  -20.6627  -57.3957 C.3       20 UNK        -0.1800 
    112 C         -5.0339  -20.7248  -55.6724 C.2       20 UNK         0.5000 
    113 O         -5.7821  -21.2369  -56.5076 O.2       20 UNK        -0.5000 
    114 N         -5.4793  -20.1462  -54.5491 N.am      21 UNK        -0.5000 
    115 CA        -6.8831  -20.0183  -54.1727 C.3       21 UNK         0.1400 
    116 CB        -7.5656  -18.9182  -55.0198 C.3       21 UNK        -0.1800 
    117 C         -6.9679  -19.7892  -52.6544 C.2       21 UNK         0.5000 
    118 O         -6.7306  -20.7242  -51.8897 O.2       21 UNK        -0.5000 
    119 N         -7.2961  -18.5565  -52.2599 N.am      22 UNK        -0.5000 
    120 CA        -7.4086  -18.0641  -50.8813 C.3       22 UNK         0.1400 
    121 C         -6.7566  -16.6533  -50.7705 C.2       22 UNK         0.5000 
    122 N         -5.6112  -16.4294  -51.3993 N.am      22 UNK        -0.7600 
    123 O         -7.2844  -15.7494  -50.1282 O.2       22 UNK        -0.5000 
    124 C124       -8.8834  -18.1193  -50.3779 C.3       23 UNK        -0.0398 
    125 S125       -9.3393  -19.7450  -49.6802 S.3       23 UNK        -0.2404 
    126 C126       -9.4216  -19.3808  -47.8923 C.3       23 UNK        -0.0205 
    127 H127       -2.8901  -11.9021  -52.3240 H         1 UNK         0.0600 
    128 H128       -1.8590  -11.6729  -50.9085 H         1 UNK         0.0600 
    129 H129       -3.5914  -11.3480  -50.7999 H         1 UNK         0.0600 
    130 H130       -1.2706  -13.6263  -50.0112 H         1 UNK         0.3000 
    131 H131       -2.7256  -16.0427  -50.5550 H         1 UNK         0.0600 
    132 H132       -3.7892  -14.9464  -48.3633 H         1 UNK         0.0800 
    133 H133       -2.3717  -15.5561  -47.5581 H         1 UNK         0.0800 
    134 H134       -4.5309  -16.7574  -46.1172 H         1 UNK         0.0800 
    135 H135       -5.6332  -16.1429  -47.3234 H         1 UNK         0.0800 
    136 H136       -7.5488  -17.3928  -47.9741 H         1 UNK         0.1150 
    137 H137       -8.2562  -21.2778  -46.3142 H         1 UNK         0.1150 
    138 H138       -4.5218  -19.2753  -45.6188 H         1 UNK         0.1150 
    139 H139       -4.7941  -21.4827  -44.7972 H         1 UNK         0.0800 
    140 H140       -6.3409  -21.4533  -44.0108 H         1 UNK         0.0800 
    141 H141       -5.8333  -22.2479  -47.8047 H         1 UNK         0.0800 
    142 H142       -6.2102  -23.9311  -47.9145 H         1 UNK         0.0800 
    143 H143       -3.9088  -23.5139  -48.5905 H         1 UNK         0.0600 
    144 H144       -3.7258  -21.8931  -46.2512 H         1 UNK         0.3000 
    145 H145       -0.2174  -21.5588  -46.2369 H         1 UNK         0.0600 
    146 H146       -0.5506  -19.2255  -46.7576 H         1 UNK         0.0600 
    147 H147       -0.9899  -20.1172  -48.1961 H         1 UNK         0.0600 
    148 H148       -2.2520  -19.4777  -47.1562 H         1 UNK         0.0600 
    149 H149       -1.9022  -20.0069  -44.7658 H         1 UNK         0.3000 
    150 H150       -3.2648  -21.7367  -42.3787 H         1 UNK         0.0600 
    151 H151       -1.3310  -23.0697  -41.5829 H         1 UNK         0.0600 
    152 H152       -1.5148  -21.6406  -40.5799 H         1 UNK         0.0600 
    153 H153       -0.2508  -21.6983  -41.8084 H         1 UNK         0.0600 
    154 H154       -1.2745  -19.5251  -42.7341 H         1 UNK         0.3000 
    155 H155       -3.7608  -17.0775  -42.6205 H         1 UNK         0.0600 
    156 H156       -1.9134  -17.6075  -40.2305 H         1 UNK         0.0600 
    157 H157       -3.6590  -17.4031  -40.1408 H         1 UNK         0.0600 
    158 H158       -2.6491  -16.0598  -40.6497 H         1 UNK         0.0600 
    159 H159       -0.9364  -16.8272  -42.3627 H         1 UNK         0.3000 
    160 H160       -0.1091  -17.2832  -45.8056 H         1 UNK         0.0600 
    161 H161        0.6775  -14.9758  -45.5806 H         1 UNK         0.0600 
    162 H162       -0.1902  -14.7733  -44.0626 H         1 UNK         0.0600 
    163 H163       -1.0748  -14.9662  -45.5710 H         1 UNK         0.0600 
    164 H164        1.6783  -16.5013  -43.9283 H         1 UNK         0.3000 
    165 H165        2.2543  -19.0539  -41.7422 H         1 UNK         0.0600 
    166 H166        4.3559  -19.8058  -42.8398 H         1 UNK         0.0600 
    167 H167        2.9687  -20.5510  -43.6147 H         1 UNK         0.0600 
    168 H168        3.7859  -19.2030  -44.3966 H         1 UNK         0.0600 
    169 H169        4.1264  -17.2599  -42.9537 H         1 UNK         0.3000 
    170 H170        3.0544  -14.2333  -41.7546 H         1 UNK         0.0600 
    171 H171        3.8898  -14.9866  -39.5203 H         1 UNK         0.0600 
    172 H172        5.2590  -15.7818  -40.2874 H         1 UNK         0.0600 
    173 H173        5.0972  -14.0262  -40.3578 H         1 UNK         0.0600 
    174 H174        5.6401  -15.0153  -42.6108 H         1 UNK         0.3000 
    175 H175        6.2456  -14.3647  -44.8070 H         1 UNK         0.0600 
    176 H176        5.1717  -17.1314  -45.6173 H         1 UNK         0.0600 
    177 H177        6.7705  -16.5023  -46.0115 H         1 UNK         0.0600 
    178 H178        6.3424  -16.8198  -44.3407 H         1 UNK         0.0600 
    179 H179        4.6968  -15.2709  -47.1134 H         1 UNK         0.3000 
    180 H180        3.7234  -12.1165  -48.2484 H         1 UNK         0.0600 
    181 H181        6.1339  -13.6844  -49.3131 H         1 UNK         0.0600 
    182 H182        6.1137  -11.9691  -48.9224 H         1 UNK         0.0600 
    183 H183        5.1303  -12.5732  -50.2461 H         1 UNK         0.0600 
    184 H184        3.9616  -14.8226  -49.3410 H         1 UNK         0.3000 
    185 H185        1.8760  -15.7701  -49.9730 H         1 UNK         0.0600 
    186 H186        2.9428  -17.0937  -48.2233 H         1 UNK         0.0600 
    187 H187        1.7997  -16.5650  -47.0022 H         1 UNK         0.0600 
    188 H188        1.2838  -17.6601  -48.2808 H         1 UNK         0.0600 
    189 H189       -0.1870  -14.5630  -48.4178 H         1 UNK         0.3000 
    190 H190       -2.9076  -24.2695  -45.3505 H         1 UNK         0.3000 
    191 H191       -3.0634  -27.2152  -45.8633 H         1 UNK         0.0600 
    192 H192       -2.7701  -27.4022  -43.4020 H         1 UNK         0.0600 
    193 H193       -4.1994  -26.4552  -43.7880 H         1 UNK         0.0600 
    194 H194       -2.7283  -25.6490  -43.2486 H         1 UNK         0.0600 
    195 H195       -0.9383  -24.5167  -44.8229 H         1 UNK         0.3000 
    196 H196        1.4406  -26.0955  -44.5785 H         1 UNK         0.0600 
    197 H197        2.5100  -23.8664  -44.2607 H         1 UNK         0.0600 
    198 H198        1.0305  -23.9822  -43.3212 H         1 UNK         0.0600 
    199 H199        1.0512  -23.0609  -44.8217 H         1 UNK         0.0600 
    200 H200       -0.0953  -24.6605  -47.3288 H         1 UNK         0.3000 
    201 H201        0.2796  -24.5572  -49.4758 H         1 UNK         0.0600 
    202 H202        1.1769  -26.8972  -49.3219 H         1 UNK         0.0600 
    203 H203        2.8082  -26.2469  -49.1561 H         1 UNK         0.0600 
    204 H204        1.8949  -25.9731  -50.6303 H         1 UNK         0.0600 
    205 H205        1.6132  -22.7034  -47.4592 H         1 UNK         0.3000 
    206 H206        3.9282  -21.5051  -48.5625 H         1 UNK         0.0600 
    207 H207        3.1372  -21.1154  -46.2315 H         1 UNK         0.0600 
    208 H208        3.3241  -19.5943  -47.0904 H         1 UNK         0.0600 
    209 H209        1.7198  -20.2581  -46.8331 H         1 UNK         0.0600 
    210 H210        4.0602  -20.7598  -50.5799 H         1 UNK         0.3000 
    211 H211        3.6629  -19.9200  -52.5871 H         1 UNK         0.0600 
    212 H212        1.8640  -17.8963  -51.1616 H         1 UNK         0.0600 
    213 H213        2.6029  -17.6899  -52.7429 H         1 UNK         0.0600 
    214 H214        3.6145  -17.7620  -51.3088 H         1 UNK         0.0600 
    215 H215        1.8615  -22.0410  -51.5904 H         1 UNK         0.3000 
    216 H216        0.0604  -23.2344  -52.0110 H         1 UNK         0.0600 
    217 H217       -0.6894  -23.4298  -54.3559 H         1 UNK         0.0600 
    218 H218        1.0565  -23.2606  -54.3153 H         1 UNK         0.0600 
    219 H219        0.0475  -21.8864  -54.7652 H         1 UNK         0.0600 
    220 H220       -0.4031  -20.5787  -50.7548 H         1 UNK         0.3000 
    221 H221       -1.9792  -19.1693  -50.1003 H         1 UNK         0.0600 
    222 H222       -4.0446  -21.2227  -51.0551 H         1 UNK         0.0600 
    223 H223       -3.2446  -21.2425  -49.4874 H         1 UNK         0.0600 
    224 H224       -4.3201  -19.9229  -49.9082 H         1 UNK         0.0600 
    225 H225       -0.8549  -18.7691  -52.6582 H         1 UNK         0.3000 
    226 H226       -0.9418  -17.6058  -54.5163 H         1 UNK         0.0600 
    227 H227       -2.4265  -15.6586  -54.7159 H         1 UNK         0.0600 
    228 H228       -3.5079  -16.2848  -53.4822 H         1 UNK         0.0600 
    229 H229       -1.8732  -15.7842  -53.0545 H         1 UNK         0.0600 
    230 H230       -2.2547  -20.2076  -54.3234 H         1 UNK         0.3000 
    231 H231       -3.1836  -21.7436  -55.5557 H         1 UNK         0.0600 
    232 H232       -2.0408  -20.6905  -57.5270 H         1 UNK         0.0600 
    233 H233       -3.4941  -19.7447  -57.8513 H         1 UNK         0.0600 
    234 H234       -3.5373  -21.4968  -57.9626 H         1 UNK         0.0600 
    235 H235       -4.8127  -19.7723  -53.8818 H         1 UNK         0.3000 
    236 H236       -7.3891  -20.9658  -54.3694 H         1 UNK         0.0600 
    237 H237       -7.6001  -19.1976  -56.0727 H         1 UNK         0.0600 
    238 H238       -8.5973  -18.7578  -54.7037 H         1 UNK         0.0600 
    239 H239       -7.0375  -17.9661  -54.9530 H         1 UNK         0.0600 
    240 H240       -7.4176  -17.8480  -52.9692 H         1 UNK         0.3000 
    241 H241       -6.7964  -18.6909  -50.2298 H         1 UNK         0.0600 
    242 H242       -5.1071  -17.1972  -51.8374 H         1 UNK         0.3800 
    243 H243       -5.1729  -15.5145  -51.3205 H         1 UNK         0.3800 
    244 H244       -9.0922  -17.3636  -49.6216 H         1 UNK         0.0800 
    245 H245       -9.5696  -17.8893  -51.1941 H         1 UNK         0.0800 
    246 H246       -9.9369  -18.4345  -47.7219 H         1 UNK         0.0800 
    247 H247      -10.0396  -20.1442  -47.4173 H         1 UNK         0.0800 
@<TRIPOS>BOND
     1    1    2 1    
     2    1  127 1    
     3    1  128 1    
     4    1  129 1    
     5    2    3 2    
     6    2    4 am   BACKBONE|DICT|INTERRES
     7    4    5 1    
     8    4  130 1    
     9    5    6 1    
    10    5   65 1    
    11    5  131 1    
    12    6    7 1    
    13    6  132 1    
    14    6  133 1    
    15    7    8 1    
    16    8    9 1    
    17    8  134 1    
    18    8  135 1    
    19    9   10 ar   
    20    9   14 ar   
    21   10   11 ar   
    22   10  136 1    
    23   11   12 ar   
    24   11  126 1    
    25   12   13 ar   
    26   12  137 1    
    27   13   14 ar   
    28   13   15 1    
    29   14  138 1    
    30   15   16 1    
    31   15  139 1    
    32   15  140 1    
    33   16   17 1    
    34   17   18 1    
    35   17  141 1    
    36   17  142 1    
    37   18   19 1    
    38   18   67 1    
    39   18  143 1    
    40   19   20 am   BACKBONE|DICT|INTERRES
    41   19  144 1    
    42   20   21 2    
    43   20   22 1    
    44   22   23 1    
    45   22   24 1    
    46   22  145 1    
    47   23  146 1    
    48   23  147 1    
    49   23  148 1    
    50   24   25 am   BACKBONE|DICT|INTERRES
    51   24  149 1    
    52   25   26 2    
    53   25   27 1    
    54   27   28 1    
    55   27   29 1    
    56   27  150 1    
    57   28  151 1    
    58   28  152 1    
    59   28  153 1    
    60   29   30 am   BACKBONE|DICT|INTERRES
    61   29  154 1    
    62   30   31 2    
    63   30   32 1    
    64   32   33 1    
    65   32   34 1    
    66   32  155 1    
    67   33  156 1    
    68   33  157 1    
    69   33  158 1    
    70   34   35 am   BACKBONE|DICT|INTERRES
    71   34  159 1    
    72   35   36 2    
    73   35   37 1    
    74   37   38 1    
    75   37   39 1    
    76   37  160 1    
    77   38  161 1    
    78   38  162 1    
    79   38  163 1    
    80   39   40 am   BACKBONE|DICT|INTERRES
    81   39  164 1    
    82   40   41 2    
    83   40   42 1    
    84   42   43 1    
    85   42   44 1    
    86   42  165 1    
    87   43  166 1    
    88   43  167 1    
    89   43  168 1    
    90   44   45 am   BACKBONE|DICT|INTERRES
    91   44  169 1    
    92   45   46 2    
    93   45   47 1    
    94   47   48 1    
    95   47   49 1    
    96   47  170 1    
    97   48  171 1    
    98   48  172 1    
    99   48  173 1    
   100   49   50 am   BACKBONE|DICT|INTERRES
   101   49  174 1    
   102   50   51 2    
   103   50   52 1    
   104   52   53 1    
   105   52   54 1    
   106   52  175 1    
   107   53  176 1    
   108   53  177 1    
   109   53  178 1    
   110   54   55 am   BACKBONE|DICT|INTERRES
   111   54  179 1    
   112   55   56 2    
   113   55   57 1    
   114   57   58 1    
   115   57   59 1    
   116   57  180 1    
   117   58  181 1    
   118   58  182 1    
   119   58  183 1    
   120   59   60 am   BACKBONE|DICT|INTERRES
   121   59  184 1    
   122   60   61 2    
   123   60   62 1    
   124   62   63 1    
   125   62   64 1    
   126   62  185 1    
   127   63  186 1    
   128   63  187 1    
   129   63  188 1    
   130   64   65 am   BACKBONE|DICT|INTERRES
   131   64  189 1    
   132   65   66 2    
   133   67   68 2    
   134   67   69 am   BACKBONE|DICT|INTERRES
   135   69   70 1    
   136   69  190 1    
   137   70   71 1    
   138   70   72 1    
   139   70  191 1    
   140   71  192 1    
   141   71  193 1    
   142   71  194 1    
   143   72   73 2    
   144   72   74 am   BACKBONE|DICT|INTERRES
   145   74   75 1    
   146   74  195 1    
   147   75   76 1    
   148   75   77 1    
   149   75  196 1    
   150   76  197 1    
   151   76  198 1    
   152   76  199 1    
   153   77   78 2    
   154   77   79 am   BACKBONE|DICT|INTERRES
   155   79   80 1    
   156   79  200 1    
   157   80   81 1    
   158   80   82 1    
   159   80  201 1    
   160   81  202 1    
   161   81  203 1    
   162   81  204 1    
   163   82   83 2    
   164   82   84 am   BACKBONE|DICT|INTERRES
   165   84   85 1    
   166   84  205 1    
   167   85   86 1    
   168   85   87 1    
   169   85  206 1    
   170   86  207 1    
   171   86  208 1    
   172   86  209 1    
   173   87   88 2    
   174   87   89 am   BACKBONE|DICT|INTERRES
   175   89   90 1    
   176   89  210 1    
   177   90   91 1    
   178   90   92 1    
   179   90  211 1    
   180   91  212 1    
   181   91  213 1    
   182   91  214 1    
   183   92   93 2    
   184   92   94 am   BACKBONE|DICT|INTERRES
   185   94   95 1    
   186   94  215 1    
   187   95   96 1    
   188   95   97 1    
   189   95  216 1    
   190   96  217 1    
   191   96  218 1    
   192   96  219 1    
   193   97   98 2    
   194   97   99 am   BACKBONE|DICT|INTERRES
   195   99  100 1    
   196   99  220 1    
   197  100  101 1    
   198  100  102 1    
   199  100  221 1    
   200  101  222 1    
   201  101  223 1    
   202  101  224 1    
   203  102  103 2    
   204  102  104 am   BACKBONE|DICT|INTERRES
   205  104  105 1    
   206  104  225 1    
   207  105  106 1    
   208  105  107 1    
   209  105  226 1    
   210  106  227 1    
   211  106  228 1    
   212  106  229 1    
   213  107  108 2    
   214  107  109 am   BACKBONE|DICT|INTERRES
   215  109  110 1    
   216  109  230 1    
   217  110  111 1    
   218  110  112 1    
   219  110  231 1    
   220  111  232 1    
   221  111  233 1    
   222  111  234 1    
   223  112  113 2    
   224  112  114 am   BACKBONE|DICT|INTERRES
   225  114  115 1    
   226  114  235 1    
   227  115  116 1    
   228  115  117 1    
   229  115  236 1    
   230  116  237 1    
   231  116  238 1    
   232  116  239 1    
   233  117  118 2    
   234  117  119 am   BACKBONE|DICT|INTERRES
   235  119  120 1    
   236  119  240 1    
   237  120  121 1    
   238  120  124 1    
   239  120  241 1    
   240  121  122 am   BACKBONE|DICT|INTERRES
   241  121  123 2    
   242  122  242 1    
   243  122  243 1    
   244  124  125 1    
   245  124  244 1    
   246  124  245 1    
   247  125  126 1    
   248  126  246 1    
   249  126  247 1    
@<TRIPOS>SUBSTRUCTURE
     1 UNK         1 GROUP             0       ****    0 ROOT    
