@<TRIPOS>MOLECULE
3R540
247   249    1
SMALL
USER_CHARGES


@<TRIPOS>ATOM
      1 CA         -0.9251  -12.5444  -54.2674 C.3       0 UNK        -0.1800 
      2 C          -0.0767  -12.3814  -53.0148 C.2       0 UNK         0.5000 
      3 O           0.0347  -11.2746  -52.4864 O.2       0 UNK        -0.5000 
      4 N           0.5297  -13.4772  -52.5476 N.am      1 UNK        -0.5000 
      5 CA          1.3249  -13.5440  -51.3214 C.3       1 UNK         0.1400 
      6 C6          2.2361  -14.7943  -51.3491 C.3       23 UNK        -0.0398 
      7 S7          3.6727  -14.6880  -50.2273 S.3       23 UNK        -0.2404 
      8 C8          4.8895  -15.7181  -51.1098 C.3       23 UNK        -0.0205 
      9 C9          4.3349  -17.0934  -51.4558 C.ar      23 UNK        -0.0193 
     10 C10         4.0304  -17.4159  -52.7812 C.ar      23 UNK        -0.1150 
     11 C11         3.5099  -18.6706  -53.1071 C.ar      23 UNK        -0.0193 
     12 C12         3.3026  -19.6097  -52.0917 C.ar      23 UNK        -0.1150 
     13 C13         3.5788  -19.2947  -50.7568 C.ar      23 UNK        -0.0193 
     14 C14         4.1128  -18.0383  -50.4507 C.ar      23 UNK        -0.1150 
     15 C15         3.3480  -20.3283  -49.6579 C.3       23 UNK        -0.0205 
     16 S16         2.4257  -19.6730  -48.2230 S.3       23 UNK        -0.2404 
     17 C17         0.6874  -20.0353  -48.6514 C.3       23 UNK        -0.0398 
     18 CA          0.2034  -21.3624  -48.0166 C.3       11 UNK         0.1400 
     19 N           0.2265  -21.3384  -46.5501 N.am      11 UNK        -0.5000 
     20 C           0.1144  -22.4294  -45.7801 C.2       10 UNK         0.5000 
     21 O           0.0182  -23.5724  -46.2281 O.2       10 UNK        -0.5000 
     22 CA          0.0497  -22.2074  -44.2583 C.3       10 UNK         0.1400 
     23 CB          1.4499  -21.9670  -43.6746 C.3       10 UNK        -0.1800 
     24 N          -0.8449  -21.1092  -43.8880 N.am      10 UNK        -0.5000 
     25 C          -2.1701  -21.1183  -44.0906 C.2       9 UNK         0.5000 
     26 O          -2.7755  -22.0742  -44.5728 O.2       9 UNK        -0.5000 
     27 CA         -2.9526  -19.8421  -43.7313 C.3       9 UNK         0.1400 
     28 CB         -3.2745  -19.8047  -42.2304 C.3       9 UNK        -0.1800 
     29 N          -2.2581  -18.6153  -44.1213 N.am      9 UNK        -0.5000 
     30 C          -1.9719  -18.2739  -45.3870 C.2       8 UNK         0.5000 
     31 O          -2.3008  -18.9396  -46.3677 O.2       8 UNK        -0.5000 
     32 CA         -1.1238  -17.0057  -45.5860 C.3       8 UNK         0.1400 
     33 CB         -1.9882  -15.7436  -45.4424 C.3       8 UNK        -0.1800 
     34 N          -0.0009  -16.9402  -44.6517 N.am      8 UNK        -0.5000 
     35 C           0.9785  -17.8511  -44.5669 C.2       7 UNK         0.5000 
     36 O           1.0586  -18.8383  -45.2960 O.2       7 UNK        -0.5000 
     37 CA          1.9908  -17.6767  -43.4223 C.3       7 UNK         0.1400 
     38 CB          3.0441  -16.6080  -43.7490 C.3       7 UNK        -0.1800 
     39 N           1.3302  -17.3538  -42.1579 N.am      7 UNK        -0.5000 
     40 C           0.5643  -18.2099  -41.4673 C.2       6 UNK         0.5000 
     41 O           0.3618  -19.3742  -41.8095 O.2       6 UNK        -0.5000 
     42 CA         -0.1106  -17.6656  -40.1954 C.3       6 UNK         0.1400 
     43 CB          0.8431  -17.7588  -38.9951 C.3       6 UNK        -0.1800 
     44 N          -0.5659  -16.2832  -40.3462 N.am      6 UNK        -0.5000 
     45 C          -1.5748  -15.9021  -41.1422 C.2       5 UNK         0.5000 
     46 O          -2.2449  -16.6805  -41.8207 O.2       5 UNK        -0.5000 
     47 CA         -1.8382  -14.3862  -41.2330 C.3       5 UNK         0.1400 
     48 CB         -2.6842  -13.9083  -40.0434 C.3       5 UNK        -0.1800 
     49 N          -0.6077  -13.5894  -41.3128 N.am      5 UNK        -0.5000 
     50 C           0.2894  -13.7022  -42.3001 C.2       4 UNK         0.5000 
     51 O           0.1766  -14.5092  -43.2240 O.2       4 UNK        -0.5000 
     52 CA          1.5315  -12.8048  -42.2325 C.3       4 UNK         0.1400 
     53 CB          2.5534  -13.3584  -41.2228 C.3       4 UNK        -0.1800 
     54 N           2.1208  -12.7593  -43.5654 N.am      4 UNK        -0.5000 
     55 C           2.9556  -11.8368  -44.0472 C.2       3 UNK         0.5000 
     56 O           3.3804  -10.8907  -43.3827 O.2       3 UNK        -0.5000 
     57 CA          3.3697  -11.9681  -45.5284 C.3       3 UNK         0.1400 
     58 CB          4.5101  -12.9905  -45.7027 C.3       3 UNK        -0.1800 
     59 N           2.2531  -12.2331  -46.4506 N.am      3 UNK        -0.5000 
     60 C           1.5008  -13.3385  -46.5651 C.2       2 UNK         0.5000 
     61 O           1.6727  -14.3634  -45.9109 O.2       2 UNK        -0.5000 
     62 CA          0.3845  -13.2910  -47.6106 C.3       2 UNK         0.1400 
     63 CB         -0.6229  -12.1564  -47.3418 C.3       2 UNK        -0.1800 
     64 N           0.9936  -13.1660  -48.9282 N.am      2 UNK        -0.5000 
     65 C           0.4149  -13.5383  -50.0728 C.2       1 UNK         0.5000 
     66 O          -0.7624  -13.8964  -50.1564 O.2       1 UNK        -0.5000 
     67 C          -1.1770  -21.7983  -48.5550 C.2       11 UNK         0.5000 
     68 O          -1.2298  -22.5691  -49.5139 O.2       11 UNK        -0.5000 
     69 N          -2.2697  -21.3643  -47.9062 N.am      12 UNK        -0.5000 
     70 CA         -3.6285  -21.8274  -48.1970 C.3       12 UNK         0.1400 
     71 CB         -4.6602  -21.0282  -47.3863 C.3       12 UNK        -0.1800 
     72 C          -3.7980  -23.3319  -47.9311 C.2       12 UNK         0.5000 
     73 O          -4.3332  -24.0358  -48.7835 O.2       12 UNK        -0.5000 
     74 N          -3.3181  -23.8109  -46.7739 N.am      13 UNK        -0.5000 
     75 CA         -3.3355  -25.2220  -46.3788 C.3       13 UNK         0.1400 
     76 CB         -2.8199  -25.3698  -44.9402 C.3       13 UNK        -0.1800 
     77 C          -2.5454  -26.1244  -47.3435 C.2       13 UNK         0.5000 
     78 O          -3.0355  -27.1933  -47.7095 O.2       13 UNK        -0.5000 
     79 N          -1.3750  -25.6488  -47.7927 N.am      14 UNK        -0.5000 
     80 CA         -0.5447  -26.2927  -48.8153 C.3       14 UNK         0.1400 
     81 CB          0.7913  -25.5428  -48.9274 C.3       14 UNK        -0.1800 
     82 C          -1.2306  -26.3901  -50.1948 C.2       14 UNK         0.5000 
     83 O          -0.9397  -27.3162  -50.9520 O.2       14 UNK        -0.5000 
     84 N          -2.1527  -25.4617  -50.4760 N.am      15 UNK        -0.5000 
     85 CA         -2.9983  -25.4138  -51.6681 C.3       15 UNK         0.1400 
     86 CB         -3.0584  -23.9584  -52.1602 C.3       15 UNK        -0.1800 
     87 C          -4.3965  -26.0293  -51.4224 C.2       15 UNK         0.5000 
     88 O          -5.3419  -25.7052  -52.1421 O.2       15 UNK        -0.5000 
     89 N          -4.4947  -26.9340  -50.4352 N.am      16 UNK        -0.5000 
     90 CA         -5.6673  -27.7313  -50.0570 C.3       16 UNK         0.1400 
     91 CB         -6.1509  -28.6176  -51.2253 C.3       16 UNK        -0.1800 
     92 C          -6.7951  -26.9078  -49.4013 C.2       16 UNK         0.5000 
     93 O          -7.9748  -27.1687  -49.6443 O.2       16 UNK        -0.5000 
     94 N          -6.3992  -25.9555  -48.5465 N.am      17 UNK        -0.5000 
     95 CA         -7.2372  -25.0768  -47.7230 C.3       17 UNK         0.1400 
     96 CB         -8.0815  -25.8881  -46.7177 C.3       17 UNK        -0.1800 
     97 C          -8.0618  -24.0820  -48.5623 C.2       17 UNK         0.5000 
     98 O          -9.2359  -23.8435  -48.2720 O.2       17 UNK        -0.5000 
     99 N          -7.4222  -23.5089  -49.5856 N.am      18 UNK        -0.5000 
    100 CA        -7.9883  -22.5279  -50.5046 C.3       18 UNK         0.1400 
    101 CB        -8.8616  -23.2428  -51.5532 C.3       18 UNK        -0.1800 
    102 C         -6.8420  -21.7610  -51.1774 C.2       18 UNK         0.5000 
    103 O         -5.6974  -22.2078  -51.1127 O.2       18 UNK        -0.5000 
    104 N         -7.1771  -20.6385  -51.8307 N.am      19 UNK        -0.5000 
    105 CA        -6.2964  -19.8201  -52.6750 C.3       19 UNK         0.1400 
    106 CB        -5.9727  -20.5707  -53.9842 C.3       19 UNK        -0.1800 
    107 C         -5.0271  -19.3326  -51.9450 C.2       19 UNK         0.5000 
    108 O         -3.9112  -19.5783  -52.4070 O.2       19 UNK        -0.5000 
    109 N         -5.2220  -18.6340  -50.8163 N.am      20 UNK        -0.5000 
    110 CA        -4.1811  -18.1397  -49.8984 C.3       20 UNK         0.1400 
    111 CB        -4.8596  -17.3725  -48.7519 C.3       20 UNK        -0.1800 
    112 C         -3.0695  -17.2732  -50.5310 C.2       20 UNK         0.5000 
    113 O         -2.0105  -17.1206  -49.9233 O.2       20 UNK        -0.5000 
    114 N         -3.3196  -16.7580  -51.7437 N.am      21 UNK        -0.5000 
    115 CA        -2.3658  -16.0691  -52.6124 C.3       21 UNK         0.1400 
    116 CB        -3.0859  -15.6616  -53.9070 C.3       21 UNK        -0.1800 
    117 C         -1.0999  -16.8888  -52.9400 C.2       21 UNK         0.5000 
    118 O         -0.0432  -16.2826  -53.1117 O.2       21 UNK        -0.5000 
    119 N         -1.2261  -18.2232  -52.9980 N.am      22 UNK        -0.5000 
    120 CA        -0.1100  -19.1822  -53.0829 C.3       22 UNK         0.1400 
    121 C         -0.3704  -20.5196  -52.3295 C.2       22 UNK         0.5000 
    122 N         -1.5522  -20.8040  -51.8047 N.am      22 UNK        -0.7600 
    123 O          0.5435  -21.3233  -52.1801 O.2       22 UNK        -0.5000 
    124 C124        0.3850  -19.4409  -54.5357 C.3       23 UNK        -0.0398 
    125 S125        1.6312  -18.2417  -55.1191 S.3       23 UNK        -0.2404 
    126 C126        3.1917  -19.0056  -54.5590 C.3       23 UNK        -0.0205 
    127 H127       -0.6958  -13.4756  -54.7861 H         1 UNK         0.0600 
    128 H128       -1.9835  -12.5448  -54.0070 H         1 UNK         0.0600 
    129 H129       -0.7417  -11.7217  -54.9586 H         1 UNK         0.0600 
    130 H130        0.3532  -14.3782  -52.9838 H         1 UNK         0.3000 
    131 H131        1.9566  -12.6533  -51.2897 H         1 UNK         0.0600 
    132 H132        1.6750  -15.7035  -51.1228 H         1 UNK         0.0800 
    133 H133        2.6216  -14.9291  -52.3607 H         1 UNK         0.0800 
    134 H134        5.2130  -15.1942  -52.0106 H         1 UNK         0.0800 
    135 H135        5.7775  -15.8321  -50.4866 H         1 UNK         0.0800 
    136 H136        4.1912  -16.6877  -53.5639 H         1 UNK         0.1150 
    137 H137        2.9228  -20.5887  -52.3436 H         1 UNK         0.1150 
    138 H138        4.3450  -17.7880  -49.4249 H         1 UNK         0.1150 
    139 H139        2.8322  -21.2072  -50.0487 H         1 UNK         0.0800 
    140 H140        4.3216  -20.6754  -49.3103 H         1 UNK         0.0800 
    141 H141        0.5991  -20.0629  -49.7360 H         1 UNK         0.0800 
    142 H142        0.0656  -19.2032  -48.3157 H         1 UNK         0.0800 
    143 H143        0.9057  -22.1377  -48.3306 H         1 UNK         0.0600 
    144 H144        0.3583  -20.4310  -46.1090 H         1 UNK         0.3000 
    145 H145       -0.3457  -23.1209  -43.8094 H         1 UNK         0.0600 
    146 H146        1.4150  -21.8874  -42.5880 H         1 UNK         0.0600 
    147 H147        2.1204  -22.7916  -43.9192 H         1 UNK         0.0600 
    148 H148        1.8999  -21.0533  -44.0622 H         1 UNK         0.0600 
    149 H149       -0.4189  -20.3042  -43.4409 H         1 UNK         0.3000 
    150 H150       -3.8978  -19.8718  -44.2768 H         1 UNK         0.0600 
    151 H151       -3.8076  -20.7051  -41.9227 H         1 UNK         0.0600 
    152 H152       -3.9079  -18.9522  -41.9848 H         1 UNK         0.0600 
    153 H153       -2.3704  -19.7350  -41.6255 H         1 UNK         0.0600 
    154 H154       -1.9852  -17.9892  -43.3708 H         1 UNK         0.3000 
    155 H155       -0.7125  -17.0286  -46.5975 H         1 UNK         0.0600 
    156 H156       -2.7926  -15.7358  -46.1787 H         1 UNK         0.0600 
    157 H157       -1.3977  -14.8406  -45.5927 H         1 UNK         0.0600 
    158 H158       -2.4434  -15.6775  -44.4537 H         1 UNK         0.0600 
    159 H159        0.0366  -16.1233  -44.0451 H         1 UNK         0.3000 
    160 H160        2.5121  -18.6284  -43.2992 H         1 UNK         0.0600 
    161 H161        3.8364  -16.5944  -43.0007 H         1 UNK         0.0600 
    162 H162        2.6082  -15.6113  -43.7893 H         1 UNK         0.0600 
    163 H163        3.5103  -16.8003  -44.7161 H         1 UNK         0.0600 
    164 H164        1.3989  -16.4001  -41.8386 H         1 UNK         0.3000 
    165 H165       -0.9817  -18.2907  -39.9876 H         1 UNK         0.0600 
    166 H166        0.3495  -17.4473  -38.0744 H         1 UNK         0.0600 
    167 H167        1.1855  -18.7841  -38.8482 H         1 UNK         0.0600 
    168 H168        1.7267  -17.1338  -39.1312 H         1 UNK         0.0600 
    169 H169       -0.0660  -15.5760  -39.8281 H         1 UNK         0.3000 
    170 H170       -2.4081  -14.2085  -42.1476 H         1 UNK         0.0600 
    171 H171       -3.6122  -14.4771  -39.9713 H         1 UNK         0.0600 
    172 H172       -2.1538  -14.0239  -39.0975 H         1 UNK         0.0600 
    173 H173       -2.9563  -12.8580  -40.1500 H         1 UNK         0.0600 
    174 H174       -0.4548  -12.9136  -40.5780 H         1 UNK         0.3000 
    175 H175        1.2209  -11.8000  -41.9394 H         1 UNK         0.0600 
    176 H176        3.4328  -12.7177  -41.1580 H         1 UNK         0.0600 
    177 H177        2.1258  -13.4190  -40.2214 H         1 UNK         0.0600 
    178 H178        2.8905  -14.3581  -41.4988 H         1 UNK         0.0600 
    179 H179        1.7946  -13.4928  -44.1936 H         1 UNK         0.3000 
    180 H180        3.7642  -10.9952  -45.8258 H         1 UNK         0.0600 
    181 H181        4.2186  -13.9908  -45.3817 H         1 UNK         0.0600 
    182 H182        5.3802  -12.7033  -45.1115 H         1 UNK         0.0600 
    183 H183        4.8291  -13.0522  -46.7432 H         1 UNK         0.0600 
    184 H184        1.9956  -11.4423  -47.0244 H         1 UNK         0.3000 
    185 H185       -0.1452  -14.2450  -47.5608 H         1 UNK         0.0600 
    186 H186       -1.4814  -12.2270  -48.0098 H         1 UNK         0.0600 
    187 H187       -1.0041  -12.2080  -46.3211 H         1 UNK         0.0600 
    188 H188       -0.1768  -11.1713  -47.4799 H         1 UNK         0.0600 
    189 H189        1.9802  -12.9421  -48.9316 H         1 UNK         0.3000 
    190 H190       -2.1691  -20.6800  -47.1613 H         1 UNK         0.3000 
    191 H191       -3.8156  -21.6471  -49.2574 H         1 UNK         0.0600 
    192 H192       -4.5911  -21.2366  -46.3193 H         1 UNK         0.0600 
    193 H193       -5.6742  -21.2755  -47.7031 H         1 UNK         0.0600 
    194 H194       -4.5304  -19.9568  -47.5173 H         1 UNK         0.0600 
    195 H195       -2.9358  -23.1570  -46.0945 H         1 UNK         0.3000 
    196 H196       -4.3745  -25.5553  -46.3944 H         1 UNK         0.0600 
    197 H197       -1.7924  -25.0203  -44.8408 H         1 UNK         0.0600 
    198 H198       -2.8447  -26.4126  -44.6214 H         1 UNK         0.0600 
    199 H199       -3.4347  -24.8019  -44.2418 H         1 UNK         0.0600 
    200 H200       -1.0230  -24.7788  -47.4028 H         1 UNK         0.3000 
    201 H201       -0.3371  -27.3107  -48.4798 H         1 UNK         0.0600 
    202 H202        0.6478  -24.5137  -49.2571 H         1 UNK         0.0600 
    203 H203        1.4527  -26.0280  -49.6461 H         1 UNK         0.0600 
    204 H204        1.3123  -25.5180  -47.9701 H         1 UNK         0.0600 
    205 H205       -2.3292  -24.7375  -49.7903 H         1 UNK         0.3000 
    206 H206       -2.5438  -26.0061  -52.4643 H         1 UNK         0.0600 
    207 H207       -2.0732  -23.6156  -52.4765 H         1 UNK         0.0600 
    208 H208       -3.7292  -23.8421  -53.0119 H         1 UNK         0.0600 
    209 H209       -3.4014  -23.2887  -51.3728 H         1 UNK         0.0600 
    210 H210       -3.6732  -27.0897  -49.8645 H         1 UNK         0.3000 
    211 H211       -5.3142  -28.4063  -49.2760 H         1 UNK         0.0600 
    212 H212       -6.5986  -28.0289  -52.0262 H         1 UNK         0.0600 
    213 H213       -6.9044  -29.3298  -50.8872 H         1 UNK         0.0600 
    214 H214       -5.3293  -29.1945  -51.6499 H         1 UNK         0.0600 
    215 H215       -5.4111  -25.7277  -48.5348 H         1 UNK         0.3000 
    216 H216       -6.5500  -24.4661  -47.1367 H         1 UNK         0.0600 
    217 H217       -7.4569  -26.5647  -46.1345 H         1 UNK         0.0600 
    218 H218       -8.5882  -25.2277  -46.0131 H         1 UNK         0.0600 
    219 H219       -8.8485  -26.4823  -47.2147 H         1 UNK         0.0600 
    220 H220       -6.4403  -23.7141  -49.7480 H         1 UNK         0.3000 
    221 H221       -8.5931  -21.8139  -49.9419 H         1 UNK         0.0600 
    222 H222       -8.2821  -23.9716  -52.1219 H         1 UNK         0.0600 
    223 H223       -9.6934  -23.7704  -51.0864 H         1 UNK         0.0600 
    224 H224       -9.2885  -22.5344  -52.2639 H         1 UNK         0.0600 
    225 H225       -8.1434  -20.3440  -51.8045 H         1 UNK         0.3000 
    226 H226       -6.8605  -18.9253  -52.9416 H         1 UNK         0.0600 
    227 H227       -6.8833  -20.8617  -54.5076 H         1 UNK         0.0600 
    228 H228       -5.3948  -19.9425  -54.6632 H         1 UNK         0.0600 
    229 H229       -5.3899  -21.4741  -53.7992 H         1 UNK         0.0600 
    230 H230       -6.1750  -18.4783  -50.5215 H         1 UNK         0.3000 
    231 H231       -3.6835  -19.0170  -49.4823 H         1 UNK         0.0600 
    232 H232       -5.6162  -17.9793  -48.2550 H         1 UNK         0.0600 
    233 H233       -5.3434  -16.4633  -49.1106 H         1 UNK         0.0600 
    234 H234       -4.1307  -17.0812  -47.9941 H         1 UNK         0.0600 
    235 H235       -4.2244  -16.9500  -52.1457 H         1 UNK         0.3000 
    236 H236       -2.0469  -15.1625  -52.0966 H         1 UNK         0.0600 
    237 H237       -2.4037  -15.1687  -54.5997 H         1 UNK         0.0600 
    238 H238       -3.5025  -16.5274  -54.4234 H         1 UNK         0.0600 
    239 H239       -3.9002  -14.9658  -53.7038 H         1 UNK         0.0600 
    240 H240       -2.1433  -18.6264  -52.8476 H         1 UNK         0.3000 
    241 H241        0.7110  -18.7411  -52.5166 H         1 UNK         0.0600 
    242 H242       -2.3966  -20.2666  -51.9908 H         1 UNK         0.3800 
    243 H243       -1.6172  -21.6530  -51.2558 H         1 UNK         0.3800 
    244 H244        0.8209  -20.4351  -54.6487 H         1 UNK         0.0800 
    245 H245       -0.4607  -19.4233  -55.2243 H         1 UNK         0.0800 
    246 H246        4.0017  -18.6396  -55.1916 H         1 UNK         0.0800 
    247 H247        3.1591  -20.0854  -54.7111 H         1 UNK         0.0800 
@<TRIPOS>BOND
     1    1    2 1    
     2    1  127 1    
     3    1  128 1    
     4    1  129 1    
     5    2    3 2    
     6    2    4 am   BACKBONE|DICT|INTERRES
     7    4    5 1    
     8    4  130 1    
     9    5    6 1    
    10    5   65 1    
    11    5  131 1    
    12    6    7 1    
    13    6  132 1    
    14    6  133 1    
    15    7    8 1    
    16    8    9 1    
    17    8  134 1    
    18    8  135 1    
    19    9   10 ar   
    20    9   14 ar   
    21   10   11 ar   
    22   10  136 1    
    23   11   12 ar   
    24   11  126 1    
    25   12   13 ar   
    26   12  137 1    
    27   13   14 ar   
    28   13   15 1    
    29   14  138 1    
    30   15   16 1    
    31   15  139 1    
    32   15  140 1    
    33   16   17 1    
    34   17   18 1    
    35   17  141 1    
    36   17  142 1    
    37   18   19 1    
    38   18   67 1    
    39   18  143 1    
    40   19   20 am   BACKBONE|DICT|INTERRES
    41   19  144 1    
    42   20   21 2    
    43   20   22 1    
    44   22   23 1    
    45   22   24 1    
    46   22  145 1    
    47   23  146 1    
    48   23  147 1    
    49   23  148 1    
    50   24   25 am   BACKBONE|DICT|INTERRES
    51   24  149 1    
    52   25   26 2    
    53   25   27 1    
    54   27   28 1    
    55   27   29 1    
    56   27  150 1    
    57   28  151 1    
    58   28  152 1    
    59   28  153 1    
    60   29   30 am   BACKBONE|DICT|INTERRES
    61   29  154 1    
    62   30   31 2    
    63   30   32 1    
    64   32   33 1    
    65   32   34 1    
    66   32  155 1    
    67   33  156 1    
    68   33  157 1    
    69   33  158 1    
    70   34   35 am   BACKBONE|DICT|INTERRES
    71   34  159 1    
    72   35   36 2    
    73   35   37 1    
    74   37   38 1    
    75   37   39 1    
    76   37  160 1    
    77   38  161 1    
    78   38  162 1    
    79   38  163 1    
    80   39   40 am   BACKBONE|DICT|INTERRES
    81   39  164 1    
    82   40   41 2    
    83   40   42 1    
    84   42   43 1    
    85   42   44 1    
    86   42  165 1    
    87   43  166 1    
    88   43  167 1    
    89   43  168 1    
    90   44   45 am   BACKBONE|DICT|INTERRES
    91   44  169 1    
    92   45   46 2    
    93   45   47 1    
    94   47   48 1    
    95   47   49 1    
    96   47  170 1    
    97   48  171 1    
    98   48  172 1    
    99   48  173 1    
   100   49   50 am   BACKBONE|DICT|INTERRES
   101   49  174 1    
   102   50   51 2    
   103   50   52 1    
   104   52   53 1    
   105   52   54 1    
   106   52  175 1    
   107   53  176 1    
   108   53  177 1    
   109   53  178 1    
   110   54   55 am   BACKBONE|DICT|INTERRES
   111   54  179 1    
   112   55   56 2    
   113   55   57 1    
   114   57   58 1    
   115   57   59 1    
   116   57  180 1    
   117   58  181 1    
   118   58  182 1    
   119   58  183 1    
   120   59   60 am   BACKBONE|DICT|INTERRES
   121   59  184 1    
   122   60   61 2    
   123   60   62 1    
   124   62   63 1    
   125   62   64 1    
   126   62  185 1    
   127   63  186 1    
   128   63  187 1    
   129   63  188 1    
   130   64   65 am   BACKBONE|DICT|INTERRES
   131   64  189 1    
   132   65   66 2    
   133   67   68 2    
   134   67   69 am   BACKBONE|DICT|INTERRES
   135   69   70 1    
   136   69  190 1    
   137   70   71 1    
   138   70   72 1    
   139   70  191 1    
   140   71  192 1    
   141   71  193 1    
   142   71  194 1    
   143   72   73 2    
   144   72   74 am   BACKBONE|DICT|INTERRES
   145   74   75 1    
   146   74  195 1    
   147   75   76 1    
   148   75   77 1    
   149   75  196 1    
   150   76  197 1    
   151   76  198 1    
   152   76  199 1    
   153   77   78 2    
   154   77   79 am   BACKBONE|DICT|INTERRES
   155   79   80 1    
   156   79  200 1    
   157   80   81 1    
   158   80   82 1    
   159   80  201 1    
   160   81  202 1    
   161   81  203 1    
   162   81  204 1    
   163   82   83 2    
   164   82   84 am   BACKBONE|DICT|INTERRES
   165   84   85 1    
   166   84  205 1    
   167   85   86 1    
   168   85   87 1    
   169   85  206 1    
   170   86  207 1    
   171   86  208 1    
   172   86  209 1    
   173   87   88 2    
   174   87   89 am   BACKBONE|DICT|INTERRES
   175   89   90 1    
   176   89  210 1    
   177   90   91 1    
   178   90   92 1    
   179   90  211 1    
   180   91  212 1    
   181   91  213 1    
   182   91  214 1    
   183   92   93 2    
   184   92   94 am   BACKBONE|DICT|INTERRES
   185   94   95 1    
   186   94  215 1    
   187   95   96 1    
   188   95   97 1    
   189   95  216 1    
   190   96  217 1    
   191   96  218 1    
   192   96  219 1    
   193   97   98 2    
   194   97   99 am   BACKBONE|DICT|INTERRES
   195   99  100 1    
   196   99  220 1    
   197  100  101 1    
   198  100  102 1    
   199  100  221 1    
   200  101  222 1    
   201  101  223 1    
   202  101  224 1    
   203  102  103 2    
   204  102  104 am   BACKBONE|DICT|INTERRES
   205  104  105 1    
   206  104  225 1    
   207  105  106 1    
   208  105  107 1    
   209  105  226 1    
   210  106  227 1    
   211  106  228 1    
   212  106  229 1    
   213  107  108 2    
   214  107  109 am   BACKBONE|DICT|INTERRES
   215  109  110 1    
   216  109  230 1    
   217  110  111 1    
   218  110  112 1    
   219  110  231 1    
   220  111  232 1    
   221  111  233 1    
   222  111  234 1    
   223  112  113 2    
   224  112  114 am   BACKBONE|DICT|INTERRES
   225  114  115 1    
   226  114  235 1    
   227  115  116 1    
   228  115  117 1    
   229  115  236 1    
   230  116  237 1    
   231  116  238 1    
   232  116  239 1    
   233  117  118 2    
   234  117  119 am   BACKBONE|DICT|INTERRES
   235  119  120 1    
   236  119  240 1    
   237  120  121 1    
   238  120  124 1    
   239  120  241 1    
   240  121  122 am   BACKBONE|DICT|INTERRES
   241  121  123 2    
   242  122  242 1    
   243  122  243 1    
   244  124  125 1    
   245  124  244 1    
   246  124  245 1    
   247  125  126 1    
   248  126  246 1    
   249  126  247 1    
@<TRIPOS>SUBSTRUCTURE
     1 UNK         1 GROUP             0       ****    0 ROOT    
