@<TRIPOS>MOLECULE
3R540
247   249    1
SMALL
USER_CHARGES


@<TRIPOS>ATOM
      1 CA         -0.2740  -11.5766  -49.7659 C.3       0 UNK        -0.1800 
      2 C           1.1578  -11.6137  -49.2500 C.2       0 UNK         0.5000 
      3 O           1.9377  -10.7051  -49.5383 O.2       0 UNK        -0.5000 
      4 N           1.5043  -12.6671  -48.5022 N.am      1 UNK        -0.5000 
      5 CA          2.8251  -12.8965  -47.9016 C.3       1 UNK         0.1400 
      6 C6          3.0515  -14.3830  -47.4848 C.3       23 UNK        -0.0398 
      7 S7          2.1855  -15.6217  -48.5061 S.3       23 UNK        -0.2404 
      8 C8          3.2887  -15.7352  -49.9424 C.3       23 UNK        -0.0205 
      9 C9          2.7673  -16.7755  -50.9169 C.ar      23 UNK        -0.0193 
     10 C10         1.9538  -16.4006  -51.9907 C.ar      23 UNK        -0.1150 
     11 C11         1.4388  -17.3670  -52.8595 C.ar      23 UNK        -0.0193 
     12 C12         1.7415  -18.7153  -52.6439 C.ar      23 UNK        -0.1150 
     13 C13         2.5480  -19.1015  -51.5689 C.ar      23 UNK        -0.0193 
     14 C14         3.0726  -18.1240  -50.7201 C.ar      23 UNK        -0.1150 
     15 C15         2.8163  -20.5770  -51.2988 C.3       23 UNK        -0.0205 
     16 S16         2.1783  -21.1129  -49.6740 S.3       23 UNK        -0.2404 
     17 C17         0.4899  -20.4265  -49.7159 C.3       23 UNK        -0.0398 
     18 CA         -0.5208  -21.2372  -48.8741 C.3       11 UNK         0.1400 
     19 N          -0.1709  -21.2266  -47.4495 N.am      11 UNK        -0.5000 
     20 C          -0.5469  -22.1062  -46.5106 C.2       10 UNK         0.5000 
     21 O          -1.3065  -23.0513  -46.7384 O.2       10 UNK        -0.5000 
     22 CA         -0.0531  -21.8639  -45.0686 C.3       10 UNK         0.1400 
     23 CB          0.4981  -23.1466  -44.4163 C.3       10 UNK        -0.1800 
     24 N           0.8790  -20.7348  -44.9451 N.am      10 UNK        -0.5000 
     25 C           2.1514  -20.6520  -45.3623 C.2       9 UNK         0.5000 
     26 O           2.7803  -21.5867  -45.8567 O.2       9 UNK        -0.5000 
     27 CA          2.8243  -19.2714  -45.2453 C.3       9 UNK         0.1400 
     28 CB          2.7537  -18.5329  -46.5890 C.3       9 UNK        -0.1800 
     29 N           2.2329  -18.4208  -44.2106 N.am      9 UNK        -0.5000 
     30 C           2.4315  -18.5876  -42.8960 C.2       8 UNK         0.5000 
     31 O           3.1342  -19.4767  -42.4144 O.2       8 UNK        -0.5000 
     32 CA          1.7094  -17.6012  -41.9665 C.3       8 UNK         0.1400 
     33 CB          2.4239  -16.2390  -41.9565 C.3       8 UNK        -0.1800 
     34 N           0.3084  -17.4377  -42.3592 N.am      8 UNK        -0.5000 
     35 C          -0.6761  -18.2705  -41.9876 C.2       7 UNK         0.5000 
     36 O          -0.5079  -19.2224  -41.2253 O.2       7 UNK        -0.5000 
     37 CA         -2.0853  -18.0158  -42.5589 C.3       7 UNK         0.1400 
     38 CB         -2.9521  -17.2503  -41.5489 C.3       7 UNK        -0.1800 
     39 N          -2.0625  -17.2848  -43.8255 N.am      7 UNK        -0.5000 
     40 C          -1.7824  -17.8482  -45.0092 C.2       6 UNK         0.5000 
     41 O          -1.5719  -19.0505  -45.1572 O.2       6 UNK        -0.5000 
     42 CA         -1.6758  -16.9161  -46.2305 C.3       6 UNK         0.1400 
     43 CB         -3.0030  -16.8784  -46.9978 C.3       6 UNK        -0.1800 
     44 N          -1.2807  -15.5483  -45.8991 N.am      6 UNK        -0.5000 
     45 C          -0.1283  -15.2041  -45.3131 C.2       5 UNK         0.5000 
     46 O           0.7284  -16.0206  -44.9680 O.2       5 UNK        -0.5000 
     47 CA          0.1028  -13.7095  -45.0359 C.3       5 UNK         0.1400 
     48 CB         -0.9534  -12.7651  -45.6536 C.3       5 UNK        -0.1800 
     49 N           0.2710  -13.4485  -43.6085 N.am      5 UNK        -0.5000 
     50 C          -0.6283  -13.6418  -42.6332 C.2       4 UNK         0.5000 
     51 O          -1.7342  -14.1495  -42.8265 O.2       4 UNK        -0.5000 
     52 CA         -0.2365  -13.2042  -41.2029 C.3       4 UNK         0.1400 
     53 CB         -0.5760  -14.2876  -40.1644 C.3       4 UNK        -0.1800 
     54 N           1.1769  -12.8356  -41.0671 N.am      4 UNK        -0.5000 
     55 C           1.7068  -11.6532  -41.4085 C.2       3 UNK         0.5000 
     56 O           1.0444  -10.7142  -41.8524 O.2       3 UNK        -0.5000 
     57 CA          3.2343  -11.4854  -41.2557 C.3       3 UNK         0.1400 
     58 CB          3.9403  -12.6730  -40.5605 C.3       3 UNK        -0.1800 
     59 N           3.8778  -11.1875  -42.5409 N.am      3 UNK        -0.5000 
     60 C           3.8611  -11.9478  -43.6453 C.2       2 UNK         0.5000 
     61 O           3.2858  -13.0375  -43.7200 O.2       2 UNK        -0.5000 
     62 CA          4.6537  -11.4019  -44.8542 C.3       2 UNK         0.1400 
     63 CB          6.1640  -11.5860  -44.6330 C.3       2 UNK        -0.1800 
     64 N           4.2879  -12.0594  -46.1117 N.am      2 UNK        -0.5000 
     65 C           3.0956  -11.9418  -46.7103 C.2       1 UNK         0.5000 
     66 O           2.2252  -11.1585  -46.3196 O.2       1 UNK        -0.5000 
     67 C          -1.9763  -20.7693  -49.1053 C.2       11 UNK         0.5000 
     68 O          -2.2244  -19.8176  -49.8517 O.2       11 UNK        -0.5000 
     69 N          -2.8962  -21.4667  -48.4389 N.am      12 UNK        -0.5000 
     70 CA         -4.3467  -21.3968  -48.5335 C.3       12 UNK         0.1400 
     71 CB         -4.9007  -20.0395  -48.0644 C.3       12 UNK        -0.1800 
     72 C          -4.9067  -22.5450  -47.6882 C.2       12 UNK         0.5000 
     73 O          -5.6572  -23.3690  -48.2050 O.2       12 UNK        -0.5000 
     74 N          -4.4823  -22.6034  -46.4172 N.am      13 UNK        -0.5000 
     75 CA         -4.8933  -23.6039  -45.4322 C.3       13 UNK         0.1400 
     76 CB         -4.3994  -23.1741  -44.0409 C.3       13 UNK        -0.1800 
     77 C          -4.4080  -25.0233  -45.7763 C.2       13 UNK         0.5000 
     78 O          -5.2273  -25.9328  -45.9096 O.2       13 UNK        -0.5000 
     79 N          -3.0878  -25.1828  -45.9433 N.am      14 UNK        -0.5000 
     80 CA         -2.4522  -26.4531  -46.3092 C.3       14 UNK         0.1400 
     81 CB         -0.9692  -26.4128  -45.9107 C.3       14 UNK        -0.1800 
     82 C          -2.6016  -26.7616  -47.8094 C.2       14 UNK         0.5000 
     83 O          -2.5826  -27.9275  -48.2036 O.2       14 UNK        -0.5000 
     84 N          -2.7727  -25.7032  -48.6103 N.am      15 UNK        -0.5000 
     85 CA         -3.0120  -25.7490  -50.0511 C.3       15 UNK         0.1400 
     86 CB         -2.6166  -24.3867  -50.6326 C.3       15 UNK        -0.1800 
     87 C          -4.4680  -26.0978  -50.4282 C.2       15 UNK         0.5000 
     88 O          -4.7598  -26.2329  -51.6195 O.2       15 UNK        -0.5000 
     89 N          -5.3553  -26.1936  -49.4234 N.am      16 UNK        -0.5000 
     90 CA         -6.7878  -26.5125  -49.5009 C.3       16 UNK         0.1400 
     91 CB         -6.9778  -27.9842  -49.9217 C.3       16 UNK        -0.1800 
     92 C          -7.5960  -25.5382  -50.3863 C.2       16 UNK         0.5000 
     93 O          -8.6077  -25.9307  -50.9696 O.2       16 UNK        -0.5000 
     94 N          -7.1005  -24.2969  -50.5025 N.am      17 UNK        -0.5000 
     95 CA         -7.5277  -23.2276  -51.4118 C.3       17 UNK         0.1400 
     96 CB         -8.9185  -22.7005  -51.0055 C.3       17 UNK        -0.1800 
     97 C          -7.4550  -23.6053  -52.9127 C.2       17 UNK         0.5000 
     98 O          -8.0784  -22.9314  -53.7349 O.2       17 UNK        -0.5000 
     99 N          -6.7213  -24.6769  -53.2458 N.am      18 UNK        -0.5000 
    100 CA        -6.6782  -25.2889  -54.5708 C.3       18 UNK         0.1400 
    101 CB        -7.0570  -26.7741  -54.4479 C.3       18 UNK        -0.1800 
    102 C         -5.2918  -25.1313  -55.2052 C.2       18 UNK         0.5000 
    103 O         -5.1984  -24.6729  -56.3445 O.2       18 UNK        -0.5000 
    104 N         -4.2373  -25.5004  -54.4631 N.am      19 UNK        -0.5000 
    105 CA        -2.8475  -25.3933  -54.9212 C.3       19 UNK         0.1400 
    106 CB        -1.9688  -26.3531  -54.1037 C.3       19 UNK        -0.1800 
    107 C         -2.3070  -23.9506  -54.8538 C.2       19 UNK         0.5000 
    108 O         -1.3742  -23.6124  -55.5829 O.2       19 UNK        -0.5000 
    109 N         -2.9154  -23.1336  -53.9902 N.am      20 UNK        -0.5000 
    110 CA        -2.6404  -21.7283  -53.7326 C.3       20 UNK         0.1400 
    111 CB        -1.2836  -21.5529  -53.0238 C.3       20 UNK        -0.1800 
    112 C         -3.7821  -21.2041  -52.8518 C.2       20 UNK         0.5000 
    113 O         -4.4569  -21.9968  -52.1890 O.2       20 UNK        -0.5000 
    114 N         -3.9665  -19.8842  -52.8512 N.am      21 UNK        -0.5000 
    115 CA        -4.9362  -19.1652  -52.0295 C.3       21 UNK         0.1400 
    116 CB        -6.3531  -19.2928  -52.6253 C.3       21 UNK        -0.1800 
    117 C         -4.4482  -17.7144  -51.9082 C.2       21 UNK         0.5000 
    118 O         -5.1550  -16.7801  -52.2908 O.2       21 UNK        -0.5000 
    119 N         -3.1989  -17.5671  -51.4590 N.am      22 UNK        -0.5000 
    120 CA        -2.4234  -16.3198  -51.5400 C.3       22 UNK         0.1400 
    121 C         -1.2947  -16.1839  -50.4857 C.2       22 UNK         0.5000 
    122 N         -0.9776  -17.2042  -49.7006 N.am      22 UNK        -0.7600 
    123 O         -0.7168  -15.1095  -50.3521 O.2       22 UNK        -0.5000 
    124 C124       -1.9182  -16.0263  -52.9834 C.3       23 UNK        -0.0398 
    125 S125       -1.1660  -17.4627  -53.8391 S.3       23 UNK        -0.2404 
    126 C126        0.5742  -16.9634  -54.0450 C.3       23 UNK        -0.0205 
    127 H127       -0.8536  -12.4301  -49.4124 H         1 UNK         0.0600 
    128 H128       -0.2809  -11.5912  -50.8558 H         1 UNK         0.0600 
    129 H129       -0.7711  -10.6663  -49.4306 H         1 UNK         0.0600 
    130 H130        0.8352  -13.4107  -48.3638 H         1 UNK         0.3000 
    131 H131        3.5643  -12.6586  -48.6694 H         1 UNK         0.0600 
    132 H132        2.7350  -14.5648  -46.4573 H         1 UNK         0.0800 
    133 H133        4.1175  -14.6147  -47.4942 H         1 UNK         0.0800 
    134 H134        4.2954  -16.0001  -49.6160 H         1 UNK         0.0800 
    135 H135        3.3586  -14.7601  -50.4269 H         1 UNK         0.0800 
    136 H136        1.7081  -15.3582  -52.1373 H         1 UNK         0.1150 
    137 H137        1.3319  -19.4639  -53.3075 H         1 UNK         0.1150 
    138 H138        3.6856  -18.4179  -49.8796 H         1 UNK         0.1150 
    139 H139        2.3665  -21.1993  -52.0741 H         1 UNK         0.0800 
    140 H140        3.8906  -20.7607  -51.3391 H         1 UNK         0.0800 
    141 H141        0.1676  -20.3877  -50.7567 H         1 UNK         0.0800 
    142 H142        0.5422  -19.3946  -49.3696 H         1 UNK         0.0800 
    143 H143       -0.4747  -22.2714  -49.2209 H         1 UNK         0.0600 
    144 H144        0.4289  -20.4730  -47.1531 H         1 UNK         0.3000 
    145 H145       -0.9372  -21.5741  -44.4996 H         1 UNK         0.0600 
    146 H146        0.8831  -22.9479  -43.4162 H         1 UNK         0.0600 
    147 H147       -0.2869  -23.8962  -44.3166 H         1 UNK         0.0600 
    148 H148        1.2994  -23.5932  -45.0053 H         1 UNK         0.0600 
    149 H149        0.4513  -19.8862  -44.5974 H         1 UNK         0.3000 
    150 H150        3.8763  -19.4364  -45.0027 H         1 UNK         0.0600 
    151 H151        3.1841  -19.1313  -47.3930 H         1 UNK         0.0600 
    152 H152        3.3133  -17.5986  -46.5474 H         1 UNK         0.0600 
    153 H153        1.7261  -18.2960  -46.8675 H         1 UNK         0.0600 
    154 H154        1.6756  -17.6303  -44.5250 H         1 UNK         0.3000 
    155 H155        1.7562  -18.0039  -40.9522 H         1 UNK         0.0600 
    156 H156        3.4861  -16.3579  -41.7393 H         1 UNK         0.0600 
    157 H157        2.0155  -15.5878  -41.1874 H         1 UNK         0.0600 
    158 H158        2.3453  -15.7222  -42.9130 H         1 UNK         0.0600 
    159 H159        0.1136  -16.7245  -43.0501 H         1 UNK         0.3000 
    160 H160       -2.5508  -18.9899  -42.7253 H         1 UNK         0.0600 
    161 H161       -2.5521  -16.2579  -41.3466 H         1 UNK         0.0600 
    162 H162       -3.0081  -17.7820  -40.5982 H         1 UNK         0.0600 
    163 H163       -3.9718  -17.1316  -41.9154 H         1 UNK         0.0600 
    164 H164       -2.2018  -16.2832  -43.7772 H         1 UNK         0.3000 
    165 H165       -0.9073  -17.3287  -46.8862 H         1 UNK         0.0600 
    166 H166       -2.9531  -16.2034  -47.8520 H         1 UNK         0.0600 
    167 H167       -3.2413  -17.8669  -47.3847 H         1 UNK         0.0600 
    168 H168       -3.8306  -16.5580  -46.3638 H         1 UNK         0.0600 
    169 H169       -1.9427  -14.8205  -46.1249 H         1 UNK         0.3000 
    170 H170        1.0570  -13.4653  -45.4904 H         1 UNK         0.0600 
    171 H171       -1.0244  -12.9033  -46.7331 H         1 UNK         0.0600 
    172 H172       -1.9469  -12.9152  -45.2301 H         1 UNK         0.0600 
    173 H173       -0.6794  -11.7231  -45.4871 H         1 UNK         0.0600 
    174 H174        1.1895  -13.1069  -43.3494 H         1 UNK         0.3000 
    175 H175       -0.8425  -12.3267  -40.9684 H         1 UNK         0.0600 
    176 H176       -1.6540  -14.4381  -40.1026 H         1 UNK         0.0600 
    177 H177       -0.1271  -15.2491  -40.4110 H         1 UNK         0.0600 
    178 H178       -0.2381  -14.0027  -39.1679 H         1 UNK         0.0600 
    179 H179        1.7987  -13.5555  -40.7302 H         1 UNK         0.3000 
    180 H180        3.3784  -10.6061  -40.6262 H         1 UNK         0.0600 
    181 H181        3.8607  -13.5978  -41.1326 H         1 UNK         0.0600 
    182 H182        3.5245  -12.8548  -39.5686 H         1 UNK         0.0600 
    183 H183        5.0018  -12.4649  -40.4251 H         1 UNK         0.0600 
    184 H184        4.3540  -10.2974  -42.5835 H         1 UNK         0.3000 
    185 H185        4.4399  -10.3353  -44.9506 H         1 UNK         0.0600 
    186 H186        6.4971  -11.0725  -43.7302 H         1 UNK         0.0600 
    187 H187        6.4288  -12.6388  -44.5268 H         1 UNK         0.0600 
    188 H188        6.7379  -11.1773  -45.4650 H         1 UNK         0.0600 
    189 H189        4.9524  -12.7321  -46.4637 H         1 UNK         0.3000 
    190 H190       -2.5390  -22.1981  -47.8291 H         1 UNK         0.3000 
    191 H191       -4.6373  -21.5628  -49.5716 H         1 UNK         0.0600 
    192 H192       -4.5859  -19.8037  -47.0475 H         1 UNK         0.0600 
    193 H193       -5.9912  -20.0402  -48.0790 H         1 UNK         0.0600 
    194 H194       -4.5751  -19.2285  -48.7140 H         1 UNK         0.0600 
    195 H195       -3.8648  -21.8782  -46.0834 H         1 UNK         0.3000 
    196 H196       -5.9851  -23.6244  -45.4114 H         1 UNK         0.0600 
    197 H197       -4.6853  -23.9038  -43.2821 H         1 UNK         0.0600 
    198 H198       -4.8327  -22.2174  -43.7485 H         1 UNK         0.0600 
    199 H199       -3.3138  -23.0729  -44.0070 H         1 UNK         0.0600 
    200 H200       -2.4784  -24.3722  -45.8983 H         1 UNK         0.3000 
    201 H201       -2.9314  -27.2620  -45.7534 H         1 UNK         0.0600 
    202 H202       -0.8544  -26.2527  -44.8388 H         1 UNK         0.0600 
    203 H203       -0.4313  -25.6192  -46.4305 H         1 UNK         0.0600 
    204 H204       -0.4751  -27.3549  -46.1514 H         1 UNK         0.0600 
    205 H205       -2.7524  -24.7903  -48.1816 H         1 UNK         0.3000 
    206 H206       -2.3684  -26.5133  -50.4910 H         1 UNK         0.0600 
    207 H207       -1.5796  -24.1416  -50.4048 H         1 UNK         0.0600 
    208 H208       -2.7168  -24.3866  -51.7137 H         1 UNK         0.0600 
    209 H209       -3.2502  -23.5872  -50.2515 H         1 UNK         0.0600 
    210 H210       -5.0155  -26.0054  -48.4904 H         1 UNK         0.3000 
    211 H211       -7.1798  -26.3996  -48.4891 H         1 UNK         0.0600 
    212 H212       -6.6615  -28.1525  -50.9518 H         1 UNK         0.0600 
    213 H213       -8.0238  -28.2833  -49.8469 H         1 UNK         0.0600 
    214 H214       -6.4043  -28.6541  -49.2810 H         1 UNK         0.0600 
    215 H215       -6.3197  -24.0618  -49.8965 H         1 UNK         0.3000 
    216 H216       -6.8200  -22.4126  -51.2653 H         1 UNK         0.0600 
    217 H217       -9.1795  -21.8055  -51.5715 H         1 UNK         0.0600 
    218 H218       -8.9443  -22.4323  -49.9493 H         1 UNK         0.0600 
    219 H219       -9.6994  -23.4401  -51.1840 H         1 UNK         0.0600 
    220 H220       -6.2073  -25.1563  -52.5145 H         1 UNK         0.3000 
    221 H221       -7.4021  -24.8156  -55.2373 H         1 UNK         0.0600 
    222 H222       -6.3846  -27.3122  -53.7783 H         1 UNK         0.0600 
    223 H223       -8.0695  -26.8875  -54.0600 H         1 UNK         0.0600 
    224 H224       -7.0223  -27.2692  -55.4192 H         1 UNK         0.0600 
    225 H225       -4.3900  -25.8674  -53.5284 H         1 UNK         0.3000 
    226 H226       -2.7988  -25.7090  -55.9657 H         1 UNK         0.0600 
    227 H227       -2.3002  -27.3848  -54.2224 H         1 UNK         0.0600 
    228 H228       -0.9298  -26.3066  -54.4323 H         1 UNK         0.0600 
    229 H229       -1.9863  -26.1192  -53.0405 H         1 UNK         0.0600 
    230 H230       -3.6982  -23.4853  -53.4521 H         1 UNK         0.3000 
    231 H231       -2.6414  -21.1864  -54.6803 H         1 UNK         0.0600 
    232 H232       -0.4574  -21.9026  -53.6423 H         1 UNK         0.0600 
    233 H233       -1.2505  -22.0987  -52.0806 H         1 UNK         0.0600 
    234 H234       -1.0947  -20.5018  -52.8032 H         1 UNK         0.0600 
    235 H235       -3.3516  -19.2970  -53.3996 H         1 UNK         0.3000 
    236 H236       -4.9404  -19.5914  -51.0259 H         1 UNK         0.0600 
    237 H237       -7.0814  -18.7538  -52.0184 H         1 UNK         0.0600 
    238 H238       -6.3999  -18.8877  -53.6367 H         1 UNK         0.0600 
    239 H239       -6.6764  -20.3325  -52.6688 H         1 UNK         0.0600 
    240 H240       -2.7029  -18.3863  -51.1241 H         1 UNK         0.3000 
    241 H241       -3.1071  -15.5115  -51.2734 H         1 UNK         0.0600 
    242 H242       -0.2139  -17.0665  -49.0603 H         1 UNK         0.3800 
    243 H243       -1.4552  -18.0959  -49.7572 H         1 UNK         0.3800 
    244 H244       -2.7667  -15.7108  -53.5916 H         1 UNK         0.0800 
    245 H245       -1.2328  -15.1774  -52.9968 H         1 UNK         0.0800 
    246 H246        0.9663  -17.4479  -54.9402 H         1 UNK         0.0800 
    247 H247        0.6391  -15.8910  -54.2338 H         1 UNK         0.0800 
@<TRIPOS>BOND
     1    1    2 1    
     2    1  127 1    
     3    1  128 1    
     4    1  129 1    
     5    2    3 2    
     6    2    4 am   BACKBONE|DICT|INTERRES
     7    4    5 1    
     8    4  130 1    
     9    5    6 1    
    10    5   65 1    
    11    5  131 1    
    12    6    7 1    
    13    6  132 1    
    14    6  133 1    
    15    7    8 1    
    16    8    9 1    
    17    8  134 1    
    18    8  135 1    
    19    9   10 ar   
    20    9   14 ar   
    21   10   11 ar   
    22   10  136 1    
    23   11   12 ar   
    24   11  126 1    
    25   12   13 ar   
    26   12  137 1    
    27   13   14 ar   
    28   13   15 1    
    29   14  138 1    
    30   15   16 1    
    31   15  139 1    
    32   15  140 1    
    33   16   17 1    
    34   17   18 1    
    35   17  141 1    
    36   17  142 1    
    37   18   19 1    
    38   18   67 1    
    39   18  143 1    
    40   19   20 am   BACKBONE|DICT|INTERRES
    41   19  144 1    
    42   20   21 2    
    43   20   22 1    
    44   22   23 1    
    45   22   24 1    
    46   22  145 1    
    47   23  146 1    
    48   23  147 1    
    49   23  148 1    
    50   24   25 am   BACKBONE|DICT|INTERRES
    51   24  149 1    
    52   25   26 2    
    53   25   27 1    
    54   27   28 1    
    55   27   29 1    
    56   27  150 1    
    57   28  151 1    
    58   28  152 1    
    59   28  153 1    
    60   29   30 am   BACKBONE|DICT|INTERRES
    61   29  154 1    
    62   30   31 2    
    63   30   32 1    
    64   32   33 1    
    65   32   34 1    
    66   32  155 1    
    67   33  156 1    
    68   33  157 1    
    69   33  158 1    
    70   34   35 am   BACKBONE|DICT|INTERRES
    71   34  159 1    
    72   35   36 2    
    73   35   37 1    
    74   37   38 1    
    75   37   39 1    
    76   37  160 1    
    77   38  161 1    
    78   38  162 1    
    79   38  163 1    
    80   39   40 am   BACKBONE|DICT|INTERRES
    81   39  164 1    
    82   40   41 2    
    83   40   42 1    
    84   42   43 1    
    85   42   44 1    
    86   42  165 1    
    87   43  166 1    
    88   43  167 1    
    89   43  168 1    
    90   44   45 am   BACKBONE|DICT|INTERRES
    91   44  169 1    
    92   45   46 2    
    93   45   47 1    
    94   47   48 1    
    95   47   49 1    
    96   47  170 1    
    97   48  171 1    
    98   48  172 1    
    99   48  173 1    
   100   49   50 am   BACKBONE|DICT|INTERRES
   101   49  174 1    
   102   50   51 2    
   103   50   52 1    
   104   52   53 1    
   105   52   54 1    
   106   52  175 1    
   107   53  176 1    
   108   53  177 1    
   109   53  178 1    
   110   54   55 am   BACKBONE|DICT|INTERRES
   111   54  179 1    
   112   55   56 2    
   113   55   57 1    
   114   57   58 1    
   115   57   59 1    
   116   57  180 1    
   117   58  181 1    
   118   58  182 1    
   119   58  183 1    
   120   59   60 am   BACKBONE|DICT|INTERRES
   121   59  184 1    
   122   60   61 2    
   123   60   62 1    
   124   62   63 1    
   125   62   64 1    
   126   62  185 1    
   127   63  186 1    
   128   63  187 1    
   129   63  188 1    
   130   64   65 am   BACKBONE|DICT|INTERRES
   131   64  189 1    
   132   65   66 2    
   133   67   68 2    
   134   67   69 am   BACKBONE|DICT|INTERRES
   135   69   70 1    
   136   69  190 1    
   137   70   71 1    
   138   70   72 1    
   139   70  191 1    
   140   71  192 1    
   141   71  193 1    
   142   71  194 1    
   143   72   73 2    
   144   72   74 am   BACKBONE|DICT|INTERRES
   145   74   75 1    
   146   74  195 1    
   147   75   76 1    
   148   75   77 1    
   149   75  196 1    
   150   76  197 1    
   151   76  198 1    
   152   76  199 1    
   153   77   78 2    
   154   77   79 am   BACKBONE|DICT|INTERRES
   155   79   80 1    
   156   79  200 1    
   157   80   81 1    
   158   80   82 1    
   159   80  201 1    
   160   81  202 1    
   161   81  203 1    
   162   81  204 1    
   163   82   83 2    
   164   82   84 am   BACKBONE|DICT|INTERRES
   165   84   85 1    
   166   84  205 1    
   167   85   86 1    
   168   85   87 1    
   169   85  206 1    
   170   86  207 1    
   171   86  208 1    
   172   86  209 1    
   173   87   88 2    
   174   87   89 am   BACKBONE|DICT|INTERRES
   175   89   90 1    
   176   89  210 1    
   177   90   91 1    
   178   90   92 1    
   179   90  211 1    
   180   91  212 1    
   181   91  213 1    
   182   91  214 1    
   183   92   93 2    
   184   92   94 am   BACKBONE|DICT|INTERRES
   185   94   95 1    
   186   94  215 1    
   187   95   96 1    
   188   95   97 1    
   189   95  216 1    
   190   96  217 1    
   191   96  218 1    
   192   96  219 1    
   193   97   98 2    
   194   97   99 am   BACKBONE|DICT|INTERRES
   195   99  100 1    
   196   99  220 1    
   197  100  101 1    
   198  100  102 1    
   199  100  221 1    
   200  101  222 1    
   201  101  223 1    
   202  101  224 1    
   203  102  103 2    
   204  102  104 am   BACKBONE|DICT|INTERRES
   205  104  105 1    
   206  104  225 1    
   207  105  106 1    
   208  105  107 1    
   209  105  226 1    
   210  106  227 1    
   211  106  228 1    
   212  106  229 1    
   213  107  108 2    
   214  107  109 am   BACKBONE|DICT|INTERRES
   215  109  110 1    
   216  109  230 1    
   217  110  111 1    
   218  110  112 1    
   219  110  231 1    
   220  111  232 1    
   221  111  233 1    
   222  111  234 1    
   223  112  113 2    
   224  112  114 am   BACKBONE|DICT|INTERRES
   225  114  115 1    
   226  114  235 1    
   227  115  116 1    
   228  115  117 1    
   229  115  236 1    
   230  116  237 1    
   231  116  238 1    
   232  116  239 1    
   233  117  118 2    
   234  117  119 am   BACKBONE|DICT|INTERRES
   235  119  120 1    
   236  119  240 1    
   237  120  121 1    
   238  120  124 1    
   239  120  241 1    
   240  121  122 am   BACKBONE|DICT|INTERRES
   241  121  123 2    
   242  122  242 1    
   243  122  243 1    
   244  124  125 1    
   245  124  244 1    
   246  124  245 1    
   247  125  126 1    
   248  126  246 1    
   249  126  247 1    
@<TRIPOS>SUBSTRUCTURE
     1 UNK         1 GROUP             0       ****    0 ROOT    
