@<TRIPOS>MOLECULE
3R540
247   249    1
SMALL
USER_CHARGES


@<TRIPOS>ATOM
      1 CA         -1.5637  -11.1432  -52.5327 C.3       0 UNK        -0.1800 
      2 C          -0.8242  -11.1814  -51.2033 C.2       0 UNK         0.5000 
      3 O          -0.9611  -10.2586  -50.4002 O.2       0 UNK        -0.5000 
      4 N          -0.0521  -12.2473  -50.9586 N.am      1 UNK        -0.5000 
      5 CA          0.7392  -12.4512  -49.7369 C.3       1 UNK         0.1400 
      6 C6          2.0844  -13.1822  -50.0016 C.3       23 UNK        -0.0398 
      7 S7          1.9299  -14.8273  -50.7786 S.3       23 UNK        -0.2404 
      8 C8          2.1098  -15.9508  -49.3551 C.3       23 UNK        -0.0205 
      9 C9          1.1340  -17.1070  -49.4783 C.ar      23 UNK        -0.0193 
     10 C10        -0.2253  -16.8952  -49.2386 C.ar      23 UNK        -0.1150 
     11 C11        -1.1493  -17.9267  -49.4155 C.ar      23 UNK        -0.0193 
     12 C12        -0.7000  -19.1870  -49.8145 C.ar      23 UNK        -0.1150 
     13 C13         0.6626  -19.4206  -50.0249 C.ar      23 UNK        -0.0193 
     14 C14         1.5755  -18.3755  -49.8604 C.ar      23 UNK        -0.1150 
     15 C15         1.1514  -20.8019  -50.4275 C.3       23 UNK        -0.0205 
     16 S16         1.5557  -21.8068  -48.9657 S.3       23 UNK        -0.2404 
     17 C17        -0.1082  -22.0414  -48.2632 C.3       23 UNK        -0.0398 
     18 CA         -0.1616  -23.2124  -47.2640 C.3       11 UNK         0.1400 
     19 N           0.5729  -22.9158  -46.0322 N.am      11 UNK        -0.5000 
     20 C           0.8672  -23.8199  -45.0897 C.2       10 UNK         0.5000 
     21 O           0.5898  -25.0149  -45.1786 O.2       10 UNK        -0.5000 
     22 CA          1.5312  -23.2881  -43.8086 C.3       10 UNK         0.1400 
     23 CB          3.0415  -23.1032  -44.0158 C.3       10 UNK        -0.1800 
     24 N           0.9348  -22.0308  -43.3540 N.am      10 UNK        -0.5000 
     25 C          -0.3385  -21.8992  -42.9549 C.2       9 UNK         0.5000 
     26 O          -1.1276  -22.8401  -42.8795 O.2       9 UNK        -0.5000 
     27 CA         -0.8311  -20.4783  -42.6282 C.3       9 UNK         0.1400 
     28 CB         -0.4541  -20.0847  -41.1932 C.3       9 UNK        -0.1800 
     29 N          -0.3285  -19.4726  -43.5649 N.am      9 UNK        -0.5000 
     30 C          -0.6538  -19.4075  -44.8646 C.2       8 UNK         0.5000 
     31 O          -1.4169  -20.1993  -45.4178 O.2       8 UNK        -0.5000 
     32 CA          0.0139  -18.2899  -45.6884 C.3       8 UNK         0.1400 
     33 CB         -0.8373  -17.0114  -45.6725 C.3       8 UNK        -0.1800 
     34 N           1.3641  -17.9819  -45.2138 N.am      8 UNK        -0.5000 
     35 C           2.4031  -18.8164  -45.3639 C.2       7 UNK         0.5000 
     36 O           2.3238  -19.9157  -45.9136 O.2       7 UNK        -0.5000 
     37 CA          3.7409  -18.3690  -44.7512 C.3       7 UNK         0.1400 
     38 CB          4.2987  -17.1350  -45.4783 C.3       7 UNK        -0.1800 
     39 N           3.6427  -18.0885  -43.3181 N.am      7 UNK        -0.5000 
     40 C           3.2968  -18.9684  -42.3693 C.2       6 UNK         0.5000 
     41 O           2.9877  -20.1346  -42.6049 O.2       6 UNK        -0.5000 
     42 CA          3.2448  -18.4647  -40.9131 C.3       6 UNK         0.1400 
     43 CB          4.6507  -18.3970  -40.2857 C.3       6 UNK        -0.1800 
     44 N           2.5007  -17.2077  -40.7555 N.am      6 UNK        -0.5000 
     45 C           2.8391  -15.9858  -41.1847 C.2       5 UNK         0.5000 
     46 O           3.9192  -15.7133  -41.7160 O.2       5 UNK        -0.5000 
     47 CA          1.7696  -14.8913  -41.0143 C.3       5 UNK         0.1400 
     48 CB          1.9381  -14.1771  -39.6649 C.3       5 UNK        -0.1800 
     49 N           1.8277  -13.9006  -42.0882 N.am      5 UNK        -0.5000 
     50 C           1.6632  -14.1605  -43.3917 C.2       4 UNK         0.5000 
     51 O           1.3514  -15.2665  -43.8442 O.2       4 UNK        -0.5000 
     52 CA          1.9034  -12.9772  -44.3438 C.3       4 UNK         0.1400 
     53 CB          2.8554  -13.3671  -45.4870 C.3       4 UNK        -0.1800 
     54 N           0.6445  -12.4747  -44.8915 N.am      4 UNK        -0.5000 
     55 C          -0.2467  -11.7454  -44.2014 C.2       3 UNK         0.5000 
     56 O          -0.0837  -11.4252  -43.0229 O.2       3 UNK        -0.5000 
     57 CA         -1.5153  -11.2515  -44.9319 C.3       3 UNK         0.1400 
     58 CB         -1.4219   -9.7415  -45.2038 C.3       3 UNK        -0.1800 
     59 N          -1.7705  -11.9338  -46.1994 N.am      3 UNK        -0.5000 
     60 C          -2.2805  -13.1658  -46.3185 C.2       2 UNK         0.5000 
     61 O          -2.6854  -13.8293  -45.3639 O.2       2 UNK        -0.5000 
     62 CA         -2.3279  -13.7738  -47.7377 C.3       2 UNK         0.1400 
     63 CB         -3.7550  -13.7269  -48.3041 C.3       2 UNK        -0.1800 
     64 N          -1.4091  -13.1716  -48.7150 N.am      2 UNK        -0.5000 
     65 C          -0.0757  -13.0898  -48.5891 C.2       1 UNK         0.5000 
     66 O           0.5133  -13.4834  -47.5859 O.2       1 UNK        -0.5000 
     67 C          -1.6216  -23.6198  -46.9805 C.2       11 UNK         0.5000 
     68 O          -2.1185  -24.5527  -47.6121 O.2       11 UNK        -0.5000 
     69 N          -2.2759  -22.9468  -46.0230 N.am      12 UNK        -0.5000 
     70 CA         -3.6229  -23.2843  -45.5599 C.3       12 UNK         0.1400 
     71 CB         -4.1468  -22.1844  -44.6247 C.3       12 UNK        -0.1800 
     72 C          -3.6797  -24.6668  -44.8831 C.2       12 UNK         0.5000 
     73 O          -4.5866  -25.4452  -45.1771 O.2       12 UNK        -0.5000 
     74 N          -2.6836  -24.9710  -44.0383 N.am      13 UNK        -0.5000 
     75 CA         -2.5043  -26.2717  -43.3869 C.3       13 UNK         0.1400 
     76 CB         -1.3891  -26.1685  -42.3357 C.3       13 UNK        -0.1800 
     77 C          -2.2129  -27.4108  -44.3840 C.2       13 UNK         0.5000 
     78 O          -2.7067  -28.5232  -44.1976 O.2       13 UNK        -0.5000 
     79 N          -1.4525  -27.1034  -45.4439 N.am      14 UNK        -0.5000 
     80 CA         -1.1694  -27.9965  -46.5710 C.3       14 UNK         0.1400 
     81 CB          0.0652  -27.4722  -47.3217 C.3       14 UNK        -0.1800 
     82 C          -2.3579  -28.1688  -47.5422 C.2       14 UNK         0.5000 
     83 O          -2.2828  -29.0201  -48.4293 O.2       14 UNK        -0.5000 
     84 N          -3.4189  -27.3676  -47.3644 N.am      15 UNK        -0.5000 
     85 CA         -4.6464  -27.3115  -48.1606 C.3       15 UNK         0.1400 
     86 CB         -5.4410  -28.6301  -48.0496 C.3       15 UNK        -0.1800 
     87 C          -4.3973  -26.8629  -49.6151 C.2       15 UNK         0.5000 
     88 O          -4.9592  -27.4403  -50.5489 O.2       15 UNK        -0.5000 
     89 N          -3.5630  -25.8269  -49.7814 N.am      16 UNK        -0.5000 
     90 CA         -3.3314  -25.1402  -51.0537 C.3       16 UNK         0.1400 
     91 CB         -2.1622  -24.1584  -50.8828 C.3       16 UNK        -0.1800 
     92 C          -4.5854  -24.3849  -51.5401 C.2       16 UNK         0.5000 
     93 O          -5.4561  -24.0432  -50.7347 O.2       16 UNK        -0.5000 
     94 N          -4.6413  -24.1181  -52.8506 N.am      17 UNK        -0.5000 
     95 CA         -5.7083  -23.3606  -53.5026 C.3       17 UNK         0.1400 
     96 CB         -5.5722  -23.5144  -55.0263 C.3       17 UNK        -0.1800 
     97 C          -5.6719  -21.8796  -53.0834 C.2       17 UNK         0.5000 
     98 O          -4.7885  -21.1435  -53.5283 O.2       17 UNK        -0.5000 
     99 N          -6.6168  -21.4785  -52.2232 N.am      18 UNK        -0.5000 
    100 CA        -6.7598  -20.1184  -51.7015 C.3       18 UNK         0.1400 
    101 CB        -7.9359  -20.0779  -50.7148 C.3       18 UNK        -0.1800 
    102 C         -6.9552  -19.0796  -52.8209 C.2       18 UNK         0.5000 
    103 O         -7.6246  -19.3682  -53.8160 O.2       18 UNK        -0.5000 
    104 N         -6.3333  -17.9072  -52.6462 N.am      19 UNK        -0.5000 
    105 CA        -6.2130  -16.7820  -53.5831 C.3       19 UNK         0.1400 
    106 CB        -7.5874  -16.2383  -54.0183 C.3       19 UNK        -0.1800 
    107 C         -5.3106  -17.0777  -54.7987 C.2       19 UNK         0.5000 
    108 O         -4.5052  -16.2227  -55.1648 O.2       19 UNK        -0.5000 
    109 N         -5.4348  -18.2754  -55.3846 N.am      20 UNK        -0.5000 
    110 CA        -4.6534  -18.7500  -56.5259 C.3       20 UNK         0.1400 
    111 CB        -5.2801  -20.0421  -57.0714 C.3       20 UNK        -0.1800 
    112 C         -3.1690  -18.9568  -56.1784 C.2       20 UNK         0.5000 
    113 O         -2.3023  -18.4216  -56.8710 O.2       20 UNK        -0.5000 
    114 N         -2.9003  -19.6984  -55.0943 N.am      21 UNK        -0.5000 
    115 CA        -1.5504  -19.9287  -54.5712 C.3       21 UNK         0.1400 
    116 CB        -1.5738  -21.1409  -53.6258 C.3       21 UNK        -0.1800 
    117 C         -0.9787  -18.6966  -53.8444 C.2       21 UNK         0.5000 
    118 O          0.2404  -18.5743  -53.7263 O.2       21 UNK        -0.5000 
    119 N         -1.8710  -17.8182  -53.3723 N.am      22 UNK        -0.5000 
    120 CA        -1.5551  -16.6179  -52.5844 C.3       22 UNK         0.1400 
    121 C         -1.0585  -15.4019  -53.4191 C.2       22 UNK         0.5000 
    122 N         -1.0209  -15.4685  -54.7443 N.am      22 UNK        -0.7600 
    123 O         -0.7039  -14.3733  -52.8518 O.2       22 UNK        -0.5000 
    124 C124       -2.7262  -16.2040  -51.6474 C.3       23 UNK        -0.0398 
    125 S125       -3.5380  -17.5998  -50.7820 S.3       23 UNK        -0.2404 
    126 C126       -2.6329  -17.6725  -49.2051 C.3       23 UNK        -0.0205 
    127 H127       -2.5834  -11.5067  -52.4069 H         1 UNK         0.0600 
    128 H128       -1.0680  -11.7587  -53.2832 H         1 UNK         0.0600 
    129 H129       -1.6072  -10.1229  -52.9136 H         1 UNK         0.0600 
    130 H130       -0.0342  -13.0118  -51.6315 H         1 UNK         0.3000 
    131 H131        1.0175  -11.4665  -49.3558 H         1 UNK         0.0600 
    132 H132        2.6871  -12.5697  -50.6731 H         1 UNK         0.0800 
    133 H133        2.6748  -13.2600  -49.0868 H         1 UNK         0.0800 
    134 H134        3.1386  -16.3109  -49.3113 H         1 UNK         0.0800 
    135 H135        1.9293  -15.4336  -48.4136 H         1 UNK         0.0800 
    136 H136       -0.5631  -15.9127  -48.9518 H         1 UNK         0.1150 
    137 H137       -1.4150  -19.9836  -49.9625 H         1 UNK         0.1150 
    138 H138        2.6273  -18.5492  -50.0383 H         1 UNK         0.1150 
    139 H139        0.4006  -21.3120  -51.0324 H         1 UNK         0.0800 
    140 H140        2.0391  -20.7135  -51.0555 H         1 UNK         0.0800 
    141 H141       -0.7946  -22.2127  -49.0918 H         1 UNK         0.0800 
    142 H142       -0.4256  -21.1145  -47.7835 H         1 UNK         0.0800 
    143 H143        0.3172  -24.0751  -47.7322 H         1 UNK         0.0600 
    144 H144        0.8567  -21.9550  -45.8915 H         1 UNK         0.3000 
    145 H145        1.3838  -24.0329  -43.0240 H         1 UNK         0.0600 
    146 H146        3.5352  -22.8285  -43.0836 H         1 UNK         0.0600 
    147 H147        3.5045  -24.0254  -44.3690 H         1 UNK         0.0600 
    148 H148        3.2551  -22.3243  -44.7490 H         1 UNK         0.0600 
    149 H149        1.5492  -21.2220  -43.3330 H         1 UNK         0.3000 
    150 H150       -1.9206  -20.4808  -42.7005 H         1 UNK         0.0600 
    151 H151       -0.8897  -20.7799  -40.4744 H         1 UNK         0.0600 
    152 H152       -0.8207  -19.0886  -40.9448 H         1 UNK         0.0600 
    153 H153        0.6243  -20.0969  -41.0435 H         1 UNK         0.0600 
    154 H154        0.3270  -18.7956  -43.2061 H         1 UNK         0.3000 
    155 H155        0.0865  -18.6367  -46.7215 H         1 UNK         0.0600 
    156 H156       -0.9737  -16.6287  -44.6603 H         1 UNK         0.0600 
    157 H157       -0.3734  -16.2220  -46.2647 H         1 UNK         0.0600 
    158 H158       -1.8271  -17.1959  -46.0912 H         1 UNK         0.0600 
    159 H159        1.4929  -17.0911  -44.7422 H         1 UNK         0.3000 
    160 H160        4.4519  -19.1877  -44.8797 H         1 UNK         0.0600 
    161 H161        5.3006  -16.8902  -45.1257 H         1 UNK         0.0600 
    162 H162        3.6686  -16.2590  -45.3250 H         1 UNK         0.0600 
    163 H163        4.3645  -17.3094  -46.5531 H         1 UNK         0.0600 
    164 H164        3.8580  -17.1429  -43.0159 H         1 UNK         0.3000 
    165 H165        2.6850  -19.2075  -40.3437 H         1 UNK         0.0600 
    166 H166        4.6043  -18.0620  -39.2495 H         1 UNK         0.0600 
    167 H167        5.1207  -19.3812  -40.2884 H         1 UNK         0.0600 
    168 H168        5.3147  -17.7232  -40.8274 H         1 UNK         0.0600 
    169 H169        1.5895  -17.3137  -40.3317 H         1 UNK         0.3000 
    170 H170        0.7821  -15.3562  -41.0464 H         1 UNK         0.0600 
    171 H171        1.8702  -14.8834  -38.8364 H         1 UNK         0.0600 
    172 H172        2.9056  -13.6786  -39.5922 H         1 UNK         0.0600 
    173 H173        1.1612  -13.4270  -39.5151 H         1 UNK         0.0600 
    174 H174        2.0705  -12.9604  -41.8125 H         1 UNK         0.3000 
    175 H175        2.3811  -12.1664  -43.7895 H         1 UNK         0.0600 
    176 H176        3.0111  -12.5358  -46.1747 H         1 UNK         0.0600 
    177 H177        2.4756  -14.2113  -46.0629 H         1 UNK         0.0600 
    178 H178        3.8317  -13.6550  -45.0956 H         1 UNK         0.0600 
    179 H179        0.4362  -12.7547  -45.8461 H         1 UNK         0.3000 
    180 H180       -2.3629  -11.4244  -44.2654 H         1 UNK         0.0600 
    181 H181       -0.5921   -9.5036  -45.8706 H         1 UNK         0.0600 
    182 H182       -1.2692   -9.1849  -44.2782 H         1 UNK         0.0600 
    183 H183       -2.3381   -9.3649  -45.6592 H         1 UNK         0.0600 
    184 H184       -1.4649  -11.4624  -47.0380 H         1 UNK         0.3000 
    185 H185       -2.0427  -14.8189  -47.6233 H         1 UNK         0.0600 
    186 H186       -4.0848  -12.7013  -48.4737 H         1 UNK         0.0600 
    187 H187       -3.8248  -14.2639  -49.2500 H         1 UNK         0.0600 
    188 H188       -4.4646  -14.1912  -47.6179 H         1 UNK         0.0600 
    189 H189       -1.8224  -12.8026  -49.5586 H         1 UNK         0.3000 
    190 H190       -1.8301  -22.1448  -45.5887 H         1 UNK         0.3000 
    191 H191       -4.2746  -23.3175  -46.4357 H         1 UNK         0.0600 
    192 H192       -4.1437  -21.2126  -45.1188 H         1 UNK         0.0600 
    193 H193       -5.1729  -22.3913  -44.3185 H         1 UNK         0.0600 
    194 H194       -3.5465  -22.1008  -43.7195 H         1 UNK         0.0600 
    195 H195       -2.0044  -24.2501  -43.8071 H         1 UNK         0.3000 
    196 H196       -3.4351  -26.5153  -42.8707 H         1 UNK         0.0600 
    197 H197       -1.2556  -27.1163  -41.8129 H         1 UNK         0.0600 
    198 H198       -1.6236  -25.4128  -41.5857 H         1 UNK         0.0600 
    199 H199       -0.4328  -25.9045  -42.7874 H         1 UNK         0.0600 
    200 H200       -1.0175  -26.1868  -45.4776 H         1 UNK         0.3000 
    201 H201       -0.9299  -28.9848  -46.1737 H         1 UNK         0.0600 
    202 H202        0.9264  -27.3911  -46.6583 H         1 UNK         0.0600 
    203 H203       -0.1180  -26.4896  -47.7563 H         1 UNK         0.0600 
    204 H204        0.3451  -28.1429  -48.1349 H         1 UNK         0.0600 
    205 H205       -3.3654  -26.6871  -46.6174 H         1 UNK         0.3000 
    206 H206       -5.2577  -26.5283  -47.7104 H         1 UNK         0.0600 
    207 H207       -5.6111  -28.9000  -47.0073 H         1 UNK         0.0600 
    208 H208       -6.4188  -28.5362  -48.5234 H         1 UNK         0.0600 
    209 H209       -4.9241  -29.4601  -48.5317 H         1 UNK         0.0600 
    210 H210       -3.1299  -25.4107  -48.9605 H         1 UNK         0.3000 
    211 H211       -3.0588  -25.8896  -51.7996 H         1 UNK         0.0600 
    212 H212       -2.4310  -23.3484  -50.2050 H         1 UNK         0.0600 
    213 H213       -1.8826  -23.7078  -51.8357 H         1 UNK         0.0600 
    214 H214       -1.2772  -24.6550  -50.4842 H         1 UNK         0.0600 
    215 H215       -3.8733  -24.4013  -53.4413 H         1 UNK         0.3000 
    216 H216       -6.6680  -23.7899  -53.2068 H         1 UNK         0.0600 
    217 H217       -6.3599  -22.9655  -55.5438 H         1 UNK         0.0600 
    218 H218       -5.6554  -24.5591  -55.3262 H         1 UNK         0.0600 
    219 H219       -4.6147  -23.1372  -55.3885 H         1 UNK         0.0600 
    220 H220       -7.2886  -22.1557  -51.8936 H         1 UNK         0.3000 
    221 H221       -5.8424  -19.8809  -51.1587 H         1 UNK         0.0600 
    222 H222       -8.8772  -20.3375  -51.2012 H         1 UNK         0.0600 
    223 H223       -7.7817  -20.7711  -49.8876 H         1 UNK         0.0600 
    224 H224       -8.0519  -19.0818  -50.2855 H         1 UNK         0.0600 
    225 H225       -5.7831  -17.7996  -51.8036 H         1 UNK         0.3000 
    226 H226       -5.7240  -15.9878  -53.0180 H         1 UNK         0.0600 
    227 H227       -8.2118  -16.0076  -53.1553 H         1 UNK         0.0600 
    228 H228       -7.4730  -15.3180  -54.5923 H         1 UNK         0.0600 
    229 H229       -8.1299  -16.9439  -54.6476 H         1 UNK         0.0600 
    230 H230       -6.1334  -18.9084  -55.0079 H         1 UNK         0.3000 
    231 H231       -4.7091  -17.9912  -57.3091 H         1 UNK         0.0600 
    232 H232       -5.3021  -20.8277  -56.3166 H         1 UNK         0.0600 
    233 H233       -4.7167  -20.4208  -57.9251 H         1 UNK         0.0600 
    234 H234       -6.3037  -19.8724  -57.4059 H         1 UNK         0.0600 
    235 H235       -3.6646  -20.1271  -54.5743 H         1 UNK         0.3000 
    236 H236       -0.8884  -20.1619  -55.4078 H         1 UNK         0.0600 
    237 H237       -1.9922  -22.0193  -54.1175 H         1 UNK         0.0600 
    238 H238       -0.5657  -21.3990  -53.3006 H         1 UNK         0.0600 
    239 H239       -2.1668  -20.9429  -52.7317 H         1 UNK         0.0600 
    240 H240       -2.8493  -18.0058  -53.5273 H         1 UNK         0.3000 
    241 H241       -0.7079  -16.8771  -51.9500 H         1 UNK         0.0600 
    242 H242       -1.3356  -16.2981  -55.2232 H         1 UNK         0.3800 
    243 H243       -0.6993  -14.6729  -55.2715 H         1 UNK         0.3800 
    244 H244       -3.4963  -15.6892  -52.2227 H         1 UNK         0.0800 
    245 H245       -2.3771  -15.4816  -50.9080 H         1 UNK         0.0800 
    246 H246       -3.0509  -18.4729  -48.5929 H         1 UNK         0.0800 
    247 H247       -2.7995  -16.7488  -48.6525 H         1 UNK         0.0800 
@<TRIPOS>BOND
     1    1    2 1    
     2    1  127 1    
     3    1  128 1    
     4    1  129 1    
     5    2    3 2    
     6    2    4 am   BACKBONE|DICT|INTERRES
     7    4    5 1    
     8    4  130 1    
     9    5    6 1    
    10    5   65 1    
    11    5  131 1    
    12    6    7 1    
    13    6  132 1    
    14    6  133 1    
    15    7    8 1    
    16    8    9 1    
    17    8  134 1    
    18    8  135 1    
    19    9   10 ar   
    20    9   14 ar   
    21   10   11 ar   
    22   10  136 1    
    23   11   12 ar   
    24   11  126 1    
    25   12   13 ar   
    26   12  137 1    
    27   13   14 ar   
    28   13   15 1    
    29   14  138 1    
    30   15   16 1    
    31   15  139 1    
    32   15  140 1    
    33   16   17 1    
    34   17   18 1    
    35   17  141 1    
    36   17  142 1    
    37   18   19 1    
    38   18   67 1    
    39   18  143 1    
    40   19   20 am   BACKBONE|DICT|INTERRES
    41   19  144 1    
    42   20   21 2    
    43   20   22 1    
    44   22   23 1    
    45   22   24 1    
    46   22  145 1    
    47   23  146 1    
    48   23  147 1    
    49   23  148 1    
    50   24   25 am   BACKBONE|DICT|INTERRES
    51   24  149 1    
    52   25   26 2    
    53   25   27 1    
    54   27   28 1    
    55   27   29 1    
    56   27  150 1    
    57   28  151 1    
    58   28  152 1    
    59   28  153 1    
    60   29   30 am   BACKBONE|DICT|INTERRES
    61   29  154 1    
    62   30   31 2    
    63   30   32 1    
    64   32   33 1    
    65   32   34 1    
    66   32  155 1    
    67   33  156 1    
    68   33  157 1    
    69   33  158 1    
    70   34   35 am   BACKBONE|DICT|INTERRES
    71   34  159 1    
    72   35   36 2    
    73   35   37 1    
    74   37   38 1    
    75   37   39 1    
    76   37  160 1    
    77   38  161 1    
    78   38  162 1    
    79   38  163 1    
    80   39   40 am   BACKBONE|DICT|INTERRES
    81   39  164 1    
    82   40   41 2    
    83   40   42 1    
    84   42   43 1    
    85   42   44 1    
    86   42  165 1    
    87   43  166 1    
    88   43  167 1    
    89   43  168 1    
    90   44   45 am   BACKBONE|DICT|INTERRES
    91   44  169 1    
    92   45   46 2    
    93   45   47 1    
    94   47   48 1    
    95   47   49 1    
    96   47  170 1    
    97   48  171 1    
    98   48  172 1    
    99   48  173 1    
   100   49   50 am   BACKBONE|DICT|INTERRES
   101   49  174 1    
   102   50   51 2    
   103   50   52 1    
   104   52   53 1    
   105   52   54 1    
   106   52  175 1    
   107   53  176 1    
   108   53  177 1    
   109   53  178 1    
   110   54   55 am   BACKBONE|DICT|INTERRES
   111   54  179 1    
   112   55   56 2    
   113   55   57 1    
   114   57   58 1    
   115   57   59 1    
   116   57  180 1    
   117   58  181 1    
   118   58  182 1    
   119   58  183 1    
   120   59   60 am   BACKBONE|DICT|INTERRES
   121   59  184 1    
   122   60   61 2    
   123   60   62 1    
   124   62   63 1    
   125   62   64 1    
   126   62  185 1    
   127   63  186 1    
   128   63  187 1    
   129   63  188 1    
   130   64   65 am   BACKBONE|DICT|INTERRES
   131   64  189 1    
   132   65   66 2    
   133   67   68 2    
   134   67   69 am   BACKBONE|DICT|INTERRES
   135   69   70 1    
   136   69  190 1    
   137   70   71 1    
   138   70   72 1    
   139   70  191 1    
   140   71  192 1    
   141   71  193 1    
   142   71  194 1    
   143   72   73 2    
   144   72   74 am   BACKBONE|DICT|INTERRES
   145   74   75 1    
   146   74  195 1    
   147   75   76 1    
   148   75   77 1    
   149   75  196 1    
   150   76  197 1    
   151   76  198 1    
   152   76  199 1    
   153   77   78 2    
   154   77   79 am   BACKBONE|DICT|INTERRES
   155   79   80 1    
   156   79  200 1    
   157   80   81 1    
   158   80   82 1    
   159   80  201 1    
   160   81  202 1    
   161   81  203 1    
   162   81  204 1    
   163   82   83 2    
   164   82   84 am   BACKBONE|DICT|INTERRES
   165   84   85 1    
   166   84  205 1    
   167   85   86 1    
   168   85   87 1    
   169   85  206 1    
   170   86  207 1    
   171   86  208 1    
   172   86  209 1    
   173   87   88 2    
   174   87   89 am   BACKBONE|DICT|INTERRES
   175   89   90 1    
   176   89  210 1    
   177   90   91 1    
   178   90   92 1    
   179   90  211 1    
   180   91  212 1    
   181   91  213 1    
   182   91  214 1    
   183   92   93 2    
   184   92   94 am   BACKBONE|DICT|INTERRES
   185   94   95 1    
   186   94  215 1    
   187   95   96 1    
   188   95   97 1    
   189   95  216 1    
   190   96  217 1    
   191   96  218 1    
   192   96  219 1    
   193   97   98 2    
   194   97   99 am   BACKBONE|DICT|INTERRES
   195   99  100 1    
   196   99  220 1    
   197  100  101 1    
   198  100  102 1    
   199  100  221 1    
   200  101  222 1    
   201  101  223 1    
   202  101  224 1    
   203  102  103 2    
   204  102  104 am   BACKBONE|DICT|INTERRES
   205  104  105 1    
   206  104  225 1    
   207  105  106 1    
   208  105  107 1    
   209  105  226 1    
   210  106  227 1    
   211  106  228 1    
   212  106  229 1    
   213  107  108 2    
   214  107  109 am   BACKBONE|DICT|INTERRES
   215  109  110 1    
   216  109  230 1    
   217  110  111 1    
   218  110  112 1    
   219  110  231 1    
   220  111  232 1    
   221  111  233 1    
   222  111  234 1    
   223  112  113 2    
   224  112  114 am   BACKBONE|DICT|INTERRES
   225  114  115 1    
   226  114  235 1    
   227  115  116 1    
   228  115  117 1    
   229  115  236 1    
   230  116  237 1    
   231  116  238 1    
   232  116  239 1    
   233  117  118 2    
   234  117  119 am   BACKBONE|DICT|INTERRES
   235  119  120 1    
   236  119  240 1    
   237  120  121 1    
   238  120  124 1    
   239  120  241 1    
   240  121  122 am   BACKBONE|DICT|INTERRES
   241  121  123 2    
   242  122  242 1    
   243  122  243 1    
   244  124  125 1    
   245  124  244 1    
   246  124  245 1    
   247  125  126 1    
   248  126  246 1    
   249  126  247 1    
@<TRIPOS>SUBSTRUCTURE
     1 UNK         1 GROUP             0       ****    0 ROOT    
