@<TRIPOS>MOLECULE
3R540
247   249    1
SMALL
USER_CHARGES


@<TRIPOS>ATOM
      1 CA         -3.9705  -15.8195  -49.2570 C.3       0 UNK        -0.1800 
      2 C          -2.4638  -15.6784  -49.4179 C.2       0 UNK         0.5000 
      3 O          -1.9279  -14.5817  -49.2571 O.2       0 UNK        -0.5000 
      4 N          -1.7870  -16.7852  -49.7437 N.am      1 UNK        -0.5000 
      5 CA         -0.3386  -16.8858  -49.9401 C.3       1 UNK         0.1400 
      6 C6          0.0812  -18.2696  -50.4961 C.3       23 UNK        -0.0398 
      7 S7         -0.7785  -18.7172  -52.0422 S.3       23 UNK        -0.2404 
      8 C8         -1.7268  -20.2035  -51.5814 C.3       23 UNK        -0.0205 
      9 C9         -2.9836  -19.8819  -50.7858 C.ar      23 UNK        -0.0193 
     10 C10        -4.2158  -19.7997  -51.4386 C.ar      23 UNK        -0.1150 
     11 C11        -5.3938  -19.5507  -50.7219 C.ar      23 UNK        -0.0193 
     12 C12        -5.3192  -19.3637  -49.3393 C.ar      23 UNK        -0.1150 
     13 C13        -4.0949  -19.4449  -48.6729 C.ar      23 UNK        -0.0193 
     14 C14        -2.9320  -19.7169  -49.3983 C.ar      23 UNK        -0.1150 
     15 C15        -4.0319  -19.2599  -47.1672 C.3       23 UNK        -0.0205 
     16 S16        -4.4116  -20.8184  -46.3064 S.3       23 UNK        -0.2404 
     17 C17        -3.3581  -20.6395  -44.8309 C.3       23 UNK        -0.0398 
     18 CA         -1.9046  -21.0920  -45.1198 C.3       11 UNK         0.1400 
     19 N          -0.9213  -20.2574  -44.4282 N.am      11 UNK        -0.5000 
     20 C           0.3728  -20.2054  -44.7686 C.2       10 UNK         0.5000 
     21 O           0.8689  -20.8819  -45.6665 O.2       10 UNK        -0.5000 
     22 CA          1.2736  -19.2894  -43.9294 C.3       10 UNK         0.1400 
     23 CB          0.9894  -17.8135  -44.2404 C.3       10 UNK        -0.1800 
     24 N           1.1168  -19.5258  -42.4982 N.am      10 UNK        -0.5000 
     25 C           1.3722  -20.6841  -41.8751 C.2       9 UNK         0.5000 
     26 O           1.7781  -21.6968  -42.4432 O.2       9 UNK        -0.5000 
     27 CA          1.0831  -20.7242  -40.3666 C.3       9 UNK         0.1400 
     28 CB          2.2527  -20.1210  -39.5742 C.3       9 UNK        -0.1800 
     29 N          -0.1548  -20.0194  -40.0338 N.am      9 UNK        -0.5000 
     30 C          -1.3801  -20.4438  -40.3749 C.2       8 UNK         0.5000 
     31 O          -1.6011  -21.4963  -40.9737 O.2       8 UNK        -0.5000 
     32 CA         -2.5495  -19.5059  -40.0279 C.3       8 UNK         0.1400 
     33 CB         -2.9272  -19.6281  -38.5439 C.3       8 UNK        -0.1800 
     34 N          -2.2536  -18.1077  -40.3434 N.am      8 UNK        -0.5000 
     35 C          -2.0659  -17.6385  -41.5848 C.2       7 UNK         0.5000 
     36 O          -2.1451  -18.3333  -42.5981 O.2       7 UNK        -0.5000 
     37 CA         -1.6901  -16.1507  -41.7127 C.3       7 UNK         0.1400 
     38 CB         -2.9540  -15.2792  -41.7563 C.3       7 UNK        -0.1800 
     39 N          -0.8010  -15.6651  -40.6521 N.am      7 UNK        -0.5000 
     40 C           0.4283  -16.1382  -40.4103 C.2       6 UNK         0.5000 
     41 O           0.9192  -17.1074  -40.9920 O.2       6 UNK        -0.5000 
     42 CA          1.2465  -15.4284  -39.3246 C.3       6 UNK         0.1400 
     43 CB          1.4199  -16.3360  -38.0967 C.3       6 UNK        -0.1800 
     44 N           2.5600  -15.0968  -39.8696 N.am      6 UNK        -0.5000 
     45 C           2.8712  -13.9279  -40.4444 C.2       5 UNK         0.5000 
     46 O           2.1088  -12.9613  -40.4879 O.2       5 UNK        -0.5000 
     47 CA          4.2683  -13.8194  -41.0861 C.3       5 UNK         0.1400 
     48 CB          5.2991  -13.3366  -40.0539 C.3       5 UNK        -0.1800 
     49 N           4.7322  -15.0774  -41.6781 N.am      5 UNK        -0.5000 
     50 C           4.2273  -15.6154  -42.7954 C.2       4 UNK         0.5000 
     51 O           3.3205  -15.1009  -43.4571 O.2       4 UNK        -0.5000 
     52 CA          4.8383  -16.9525  -43.2437 C.3       4 UNK         0.1400 
     53 CB          4.4620  -18.0902  -42.2774 C.3       4 UNK        -0.1800 
     54 N           4.3504  -17.2550  -44.5849 N.am      4 UNK        -0.5000 
     55 C           5.0007  -17.9454  -45.5277 C.2       3 UNK         0.5000 
     56 O           6.0877  -18.4922  -45.3378 O.2       3 UNK        -0.5000 
     57 CA          4.3404  -18.0446  -46.9214 C.3       3 UNK         0.1400 
     58 CB          3.8773  -19.4814  -47.2068 C.3       3 UNK        -0.1800 
     59 N           3.2051  -17.1355  -47.1134 N.am      3 UNK        -0.5000 
     60 C           3.2987  -15.8121  -47.2927 C.2       2 UNK         0.5000 
     61 O           4.3733  -15.2124  -47.3523 O.2       2 UNK        -0.5000 
     62 CA          1.9662  -15.0471  -47.4413 C.3       2 UNK         0.1400 
     63 CB          2.1656  -13.5252  -47.5568 C.3       2 UNK        -0.1800 
     64 N           1.1957  -15.5079  -48.5983 N.am      2 UNK        -0.5000 
     65 C           0.4157  -16.5955  -48.6262 C.2       1 UNK         0.5000 
     66 O           0.2897  -17.3664  -47.6727 O.2       1 UNK        -0.5000 
     67 C          -1.6908  -22.6019  -44.8734 C.2       11 UNK         0.5000 
     68 O          -2.0102  -23.4028  -45.7500 O.2       11 UNK        -0.5000 
     69 N          -1.1271  -22.9703  -43.7129 N.am      12 UNK        -0.5000 
     70 CA         -0.7181  -24.3429  -43.4094 C.3       12 UNK         0.1400 
     71 CB         -0.4628  -24.4877  -41.9015 C.3       12 UNK        -0.1800 
     72 C           0.5172  -24.7844  -44.2190 C.2       12 UNK         0.5000 
     73 O           0.5786  -25.9384  -44.6450 O.2       12 UNK        -0.5000 
     74 N           1.4768  -23.8684  -44.4103 N.am      13 UNK        -0.5000 
     75 CA          2.6950  -24.0922  -45.1881 C.3       13 UNK         0.1400 
     76 CB          3.7285  -23.0101  -44.8345 C.3       13 UNK        -0.1800 
     77 C           2.4373  -24.1183  -46.7060 C.2       13 UNK         0.5000 
     78 O           3.0149  -24.9520  -47.4060 O.2       13 UNK        -0.5000 
     79 N           1.5978  -23.1934  -47.1861 N.am      14 UNK        -0.5000 
     80 CA          1.2468  -23.0236  -48.5943 C.3       14 UNK         0.1400 
     81 CB          0.7652  -21.5794  -48.7999 C.3       14 UNK        -0.1800 
     82 C           0.1980  -24.0438  -49.0887 C.2       14 UNK         0.5000 
     83 O          -0.2739  -24.8889  -48.3258 O.2       14 UNK        -0.5000 
     84 N          -0.1386  -23.9460  -50.3833 N.am      15 UNK        -0.5000 
     85 CA         -1.0595  -24.8431  -51.0887 C.3       15 UNK         0.1400 
     86 CB         -0.9637  -24.5632  -52.5974 C.3       15 UNK        -0.1800 
     87 C          -2.5288  -24.7496  -50.6307 C.2       15 UNK         0.5000 
     88 O          -3.2463  -25.7457  -50.7278 O.2       15 UNK        -0.5000 
     89 N          -2.9467  -23.5614  -50.1654 N.am      16 UNK        -0.5000 
     90 CA         -4.3000  -23.2225  -49.6993 C.3       16 UNK         0.1400 
     91 CB         -4.6296  -23.9778  -48.3955 C.3       16 UNK        -0.1800 
     92 C          -5.3945  -23.3912  -50.7789 C.2       16 UNK         0.5000 
     93 O          -6.5364  -23.7215  -50.4522 O.2       16 UNK        -0.5000 
     94 N          -5.0315  -23.1716  -52.0481 N.am      17 UNK        -0.5000 
     95 CA         -5.8815  -23.3546  -53.2200 C.3       17 UNK         0.1400 
     96 CB         -5.9784  -24.8571  -53.5550 C.3       17 UNK        -0.1800 
     97 C          -5.3124  -22.5559  -54.4038 C.2       17 UNK         0.5000 
     98 O          -4.1995  -22.0331  -54.3031 O.2       17 UNK        -0.5000 
     99 N          -6.0903  -22.5222  -55.4978 N.am      18 UNK        -0.5000 
    100 CA        -5.8832  -21.8054  -56.7618 C.3       18 UNK         0.1400 
    101 CB        -4.5183  -22.1260  -57.4047 C.3       18 UNK        -0.1800 
    102 C         -6.0961  -20.2933  -56.5870 C.2       18 UNK         0.5000 
    103 O         -5.2484  -19.6185  -56.0062 O.2       18 UNK        -0.5000 
    104 N         -7.2242  -19.7793  -57.0984 N.am      19 UNK        -0.5000 
    105 CA        -7.6875  -18.3933  -56.9345 C.3       19 UNK         0.1400 
    106 CB        -9.0054  -18.2089  -57.7014 C.3       19 UNK        -0.1800 
    107 C         -6.6714  -17.3085  -57.3466 C.2       19 UNK         0.5000 
    108 O         -6.6185  -16.2520  -56.7147 O.2       19 UNK        -0.5000 
    109 N         -5.8547  -17.6083  -58.3657 N.am      20 UNK        -0.5000 
    110 CA        -4.7494  -16.7667  -58.8279 C.3       20 UNK         0.1400 
    111 CB        -4.2216  -17.3249  -60.1585 C.3       20 UNK        -0.1800 
    112 C         -3.6024  -16.6386  -57.8038 C.2       20 UNK         0.5000 
    113 O         -2.8971  -15.6290  -57.8168 O.2       20 UNK        -0.5000 
    114 N         -3.4390  -17.6487  -56.9391 N.am      21 UNK        -0.5000 
    115 CA        -2.4984  -17.6449  -55.8227 C.3       21 UNK         0.1400 
    116 CB        -2.0231  -19.0817  -55.5505 C.3       21 UNK        -0.1800 
    117 C         -3.1416  -17.0146  -54.5739 C.2       21 UNK         0.5000 
    118 O         -2.4698  -16.2489  -53.8818 O.2       21 UNK        -0.5000 
    119 N         -4.4292  -17.3114  -54.3295 N.am      22 UNK        -0.5000 
    120 CA        -5.2333  -16.7198  -53.2435 C.3       22 UNK         0.1400 
    121 C         -5.3473  -15.1705  -53.3270 C.2       22 UNK         0.5000 
    122 N         -5.5808  -14.6069  -54.5068 N.am      22 UNK        -0.7600 
    123 O         -5.2360  -14.4805  -52.3182 O.2       22 UNK        -0.5000 
    124 C124       -6.6641  -17.3141  -53.1319 C.3       23 UNK        -0.0398 
    125 S125       -6.7725  -19.1335  -53.1571 S.3       23 UNK        -0.2404 
    126 C126       -6.7691  -19.5546  -51.3852 C.3       23 UNK        -0.0205 
    127 H127       -4.3545  -16.6606  -49.8338 H         1 UNK         0.0600 
    128 H128       -4.4760  -14.9187  -49.6051 H         1 UNK         0.0600 
    129 H129       -4.2255  -15.9735  -48.2086 H         1 UNK         0.0600 
    130 H130       -2.2953  -17.6485  -49.8759 H         1 UNK         0.3000 
    131 H131       -0.0602  -16.1308  -50.6784 H         1 UNK         0.0600 
    132 H132       -0.0772  -19.0486  -49.7525 H         1 UNK         0.0800 
    133 H133        1.1521  -18.2770  -50.7063 H         1 UNK         0.0800 
    134 H134       -1.0978  -20.8970  -51.0287 H         1 UNK         0.0800 
    135 H135       -2.0007  -20.7250  -52.5005 H         1 UNK         0.0800 
    136 H136       -4.2522  -19.9599  -52.5070 H         1 UNK         0.1150 
    137 H137       -6.2211  -19.1808  -48.7717 H         1 UNK         0.1150 
    138 H138       -1.9921  -19.8060  -48.8738 H         1 UNK         0.1150 
    139 H139       -3.0407  -18.8999  -46.8854 H         1 UNK         0.0800 
    140 H140       -4.7374  -18.4903  -46.8505 H         1 UNK         0.0800 
    141 H141       -3.7968  -21.1914  -43.9976 H         1 UNK         0.0800 
    142 H142       -3.3898  -19.5906  -44.5341 H         1 UNK         0.0800 
    143 H143       -1.7116  -20.9376  -46.1843 H         1 UNK         0.0600 
    144 H144       -1.2652  -19.6608  -43.6799 H         1 UNK         0.3000 
    145 H145        2.3129  -19.5035  -44.1857 H         1 UNK         0.0600 
    146 H146        1.5812  -17.1506  -43.6120 H         1 UNK         0.0600 
    147 H147        1.2307  -17.5849  -45.2749 H         1 UNK         0.0600 
    148 H148       -0.0592  -17.5602  -44.0929 H         1 UNK         0.0600 
    149 H149        0.8376  -18.7252  -41.9368 H         1 UNK         0.3000 
    150 H150        0.9723  -21.7696  -40.0711 H         1 UNK         0.0600 
    151 H151        3.1747  -20.6714  -39.7654 H         1 UNK         0.0600 
    152 H152        2.0664  -20.1604  -38.5009 H         1 UNK         0.0600 
    153 H153        2.4330  -19.0812  -39.8473 H         1 UNK         0.0600 
    154 H154       -0.0593  -19.1156  -39.5956 H         1 UNK         0.3000 
    155 H155       -3.4107  -19.8130  -40.6254 H         1 UNK         0.0600 
    156 H156       -3.8064  -19.0272  -38.3106 H         1 UNK         0.0600 
    157 H157       -3.1634  -20.6613  -38.2858 H         1 UNK         0.0600 
    158 H158       -2.1159  -19.3037  -37.8911 H         1 UNK         0.0600 
    159 H159       -2.1671  -17.4682  -39.5675 H         1 UNK         0.3000 
    160 H160       -1.1640  -16.0263  -42.6608 H         1 UNK         0.0600 
    161 H161       -3.5088  -15.3255  -40.8184 H         1 UNK         0.0600 
    162 H162       -3.6258  -15.6052  -42.5517 H         1 UNK         0.0600 
    163 H163       -2.7072  -14.2352  -41.9501 H         1 UNK         0.0600 
    164 H164       -1.1306  -14.8710  -40.1225 H         1 UNK         0.3000 
    165 H165        0.7262  -14.5218  -39.0083 H         1 UNK         0.0600 
    166 H166        1.9794  -15.8282  -37.3110 H         1 UNK         0.0600 
    167 H167        0.4527  -16.6161  -37.6775 H         1 UNK         0.0600 
    168 H168        1.9513  -17.2557  -38.3415 H         1 UNK         0.0600 
    169 H169        3.2206  -15.8566  -39.9360 H         1 UNK         0.3000 
    170 H170        4.2088  -13.0708  -41.8794 H         1 UNK         0.0600 
    171 H171        6.2746  -13.1789  -40.5143 H         1 UNK         0.0600 
    172 H172        5.4223  -14.0532  -39.2408 H         1 UNK         0.0600 
    173 H173        4.9931  -12.3877  -39.6113 H         1 UNK         0.0600 
    174 H174        5.4809  -15.5536  -41.1958 H         1 UNK         0.3000 
    175 H175        5.9239  -16.8380  -43.2721 H         1 UNK         0.0600 
    176 H176        4.9490  -17.9611  -41.3106 H         1 UNK         0.0600 
    177 H177        3.3888  -18.1190  -42.0962 H         1 UNK         0.0600 
    178 H178        4.7641  -19.0636  -42.6642 H         1 UNK         0.0600 
    179 H179        3.5025  -16.7619  -44.8317 H         1 UNK         0.3000 
    180 H180        5.1082  -17.7894  -47.6547 H         1 UNK         0.0600 
    181 H181        3.0831  -19.7887  -46.5287 H         1 UNK         0.0600 
    182 H182        4.6972  -20.1915  -47.0926 H         1 UNK         0.0600 
    183 H183        3.5061  -19.5786  -48.2269 H         1 UNK         0.0600 
    184 H184        2.2785  -17.5481  -47.1218 H         1 UNK         0.3000 
    185 H185        1.3873  -15.2315  -46.5334 H         1 UNK         0.0600 
    186 H186        2.7040  -13.1349  -46.6920 H         1 UNK         0.0600 
    187 H187        2.7346  -13.2581  -48.4482 H         1 UNK         0.0600 
    188 H188        1.2082  -13.0055  -47.6019 H         1 UNK         0.0600 
    189 H189        1.2557  -14.9313  -49.4253 H         1 UNK         0.3000 
    190 H190       -0.9245  -22.2669  -43.0138 H         1 UNK         0.3000 
    191 H191       -1.5416  -25.0103  -43.6728 H         1 UNK         0.0600 
    192 H192        0.3317  -23.8243  -41.5598 H         1 UNK         0.0600 
    193 H193       -0.1685  -25.5077  -41.6517 H         1 UNK         0.0600 
    194 H194       -1.3603  -24.2590  -41.3267 H         1 UNK         0.0600 
    195 H195        1.3815  -22.9591  -43.9699 H         1 UNK         0.3000 
    196 H196        3.1114  -25.0608  -44.9036 H         1 UNK         0.0600 
    197 H197        4.6529  -23.1523  -45.3956 H         1 UNK         0.0600 
    198 H198        3.9825  -23.0402  -43.7748 H         1 UNK         0.0600 
    199 H199        3.3583  -22.0091  -45.0589 H         1 UNK         0.0600 
    200 H200        1.1938  -22.5207  -46.5397 H         1 UNK         0.3000 
    201 H201        2.1525  -23.1655  -49.1877 H         1 UNK         0.0600 
    202 H202        1.4383  -20.8638  -48.3291 H         1 UNK         0.0600 
    203 H203       -0.2300  -21.4221  -48.3821 H         1 UNK         0.0600 
    204 H204        0.7408  -21.3295  -49.8587 H         1 UNK         0.0600 
    205 H205        0.3139  -23.2437  -50.9495 H         1 UNK         0.3000 
    206 H206       -0.7275  -25.8682  -50.9105 H         1 UNK         0.0600 
    207 H207        0.0507  -24.7185  -52.9651 H         1 UNK         0.0600 
    208 H208       -1.6170  -25.2306  -53.1613 H         1 UNK         0.0600 
    209 H209       -1.2568  -23.5402  -52.8378 H         1 UNK         0.0600 
    210 H210       -2.2694  -22.8162  -50.1176 H         1 UNK         0.3000 
    211 H211       -4.2845  -22.1628  -49.4550 H         1 UNK         0.0600 
    212 H212       -4.7458  -25.0487  -48.5636 H         1 UNK         0.0600 
    213 H213       -5.5570  -23.6109  -47.9544 H         1 UNK         0.0600 
    214 H214       -3.8446  -23.8380  -47.6532 H         1 UNK         0.0600 
    215 H215       -4.1006  -22.8372  -52.2599 H         1 UNK         0.3000 
    216 H216       -6.8762  -22.9603  -53.0015 H         1 UNK         0.0600 
    217 H217       -4.9971  -25.2788  -53.7764 H         1 UNK         0.0600 
    218 H218       -6.6167  -25.0348  -54.4209 H         1 UNK         0.0600 
    219 H219       -6.4027  -25.4234  -52.7258 H         1 UNK         0.0600 
    220 H220       -6.9809  -22.9950  -55.4368 H         1 UNK         0.3000 
    221 H221       -6.6497  -22.1773  -57.4434 H         1 UNK         0.0600 
    222 H222       -4.3717  -23.2014  -57.5048 H         1 UNK         0.0600 
    223 H223       -3.6845  -21.7258  -56.8272 H         1 UNK         0.0600 
    224 H224       -4.4521  -21.6930  -58.4033 H         1 UNK         0.0600 
    225 H225       -7.8631  -20.4005  -57.5734 H         1 UNK         0.3000 
    226 H226       -7.8962  -18.2513  -55.8736 H         1 UNK         0.0600 
    227 H227       -9.7740  -18.8904  -57.3362 H         1 UNK         0.0600 
    228 H228       -9.3897  -17.1950  -57.5809 H         1 UNK         0.0600 
    229 H229       -8.8771  -18.3868  -58.7698 H         1 UNK         0.0600 
    230 H230       -5.9661  -18.5028  -58.8196 H         1 UNK         0.3000 
    231 H231       -5.1420  -15.7638  -59.0086 H         1 UNK         0.0600 
    232 H232       -3.8333  -18.3378  -60.0437 H         1 UNK         0.0600 
    233 H233       -3.4128  -16.7055  -60.5485 H         1 UNK         0.0600 
    234 H234       -5.0053  -17.3482  -60.9159 H         1 UNK         0.0600 
    235 H235       -4.1057  -18.4145  -56.9408 H         1 UNK         0.3000 
    236 H236       -1.6222  -17.0521  -56.0937 H         1 UNK         0.0600 
    237 H237       -2.7981  -19.6904  -55.0836 H         1 UNK         0.0600 
    238 H238       -1.7150  -19.5799  -56.4697 H         1 UNK         0.0600 
    239 H239       -1.1628  -19.0820  -54.8831 H         1 UNK         0.0600 
    240 H240       -4.8882  -18.0053  -54.9106 H         1 UNK         0.3000 
    241 H241       -4.7090  -16.9522  -52.3150 H         1 UNK         0.0600 
    242 H242       -5.6563  -13.6046  -54.5723 H         1 UNK         0.3800 
    243 H243       -5.7554  -15.1797  -55.3277 H         1 UNK         0.3800 
    244 H244       -7.2801  -16.9555  -53.9578 H         1 UNK         0.0800 
    245 H245       -7.1500  -16.9480  -52.2259 H         1 UNK         0.0800 
    246 H246       -7.4500  -18.8857  -50.8568 H         1 UNK         0.0800 
    247 H247       -7.1833  -20.5580  -51.2789 H         1 UNK         0.0800 
@<TRIPOS>BOND
     1    1    2 1    
     2    1  127 1    
     3    1  128 1    
     4    1  129 1    
     5    2    3 2    
     6    2    4 am   BACKBONE|DICT|INTERRES
     7    4    5 1    
     8    4  130 1    
     9    5    6 1    
    10    5   65 1    
    11    5  131 1    
    12    6    7 1    
    13    6  132 1    
    14    6  133 1    
    15    7    8 1    
    16    8    9 1    
    17    8  134 1    
    18    8  135 1    
    19    9   10 ar   
    20    9   14 ar   
    21   10   11 ar   
    22   10  136 1    
    23   11   12 ar   
    24   11  126 1    
    25   12   13 ar   
    26   12  137 1    
    27   13   14 ar   
    28   13   15 1    
    29   14  138 1    
    30   15   16 1    
    31   15  139 1    
    32   15  140 1    
    33   16   17 1    
    34   17   18 1    
    35   17  141 1    
    36   17  142 1    
    37   18   19 1    
    38   18   67 1    
    39   18  143 1    
    40   19   20 am   BACKBONE|DICT|INTERRES
    41   19  144 1    
    42   20   21 2    
    43   20   22 1    
    44   22   23 1    
    45   22   24 1    
    46   22  145 1    
    47   23  146 1    
    48   23  147 1    
    49   23  148 1    
    50   24   25 am   BACKBONE|DICT|INTERRES
    51   24  149 1    
    52   25   26 2    
    53   25   27 1    
    54   27   28 1    
    55   27   29 1    
    56   27  150 1    
    57   28  151 1    
    58   28  152 1    
    59   28  153 1    
    60   29   30 am   BACKBONE|DICT|INTERRES
    61   29  154 1    
    62   30   31 2    
    63   30   32 1    
    64   32   33 1    
    65   32   34 1    
    66   32  155 1    
    67   33  156 1    
    68   33  157 1    
    69   33  158 1    
    70   34   35 am   BACKBONE|DICT|INTERRES
    71   34  159 1    
    72   35   36 2    
    73   35   37 1    
    74   37   38 1    
    75   37   39 1    
    76   37  160 1    
    77   38  161 1    
    78   38  162 1    
    79   38  163 1    
    80   39   40 am   BACKBONE|DICT|INTERRES
    81   39  164 1    
    82   40   41 2    
    83   40   42 1    
    84   42   43 1    
    85   42   44 1    
    86   42  165 1    
    87   43  166 1    
    88   43  167 1    
    89   43  168 1    
    90   44   45 am   BACKBONE|DICT|INTERRES
    91   44  169 1    
    92   45   46 2    
    93   45   47 1    
    94   47   48 1    
    95   47   49 1    
    96   47  170 1    
    97   48  171 1    
    98   48  172 1    
    99   48  173 1    
   100   49   50 am   BACKBONE|DICT|INTERRES
   101   49  174 1    
   102   50   51 2    
   103   50   52 1    
   104   52   53 1    
   105   52   54 1    
   106   52  175 1    
   107   53  176 1    
   108   53  177 1    
   109   53  178 1    
   110   54   55 am   BACKBONE|DICT|INTERRES
   111   54  179 1    
   112   55   56 2    
   113   55   57 1    
   114   57   58 1    
   115   57   59 1    
   116   57  180 1    
   117   58  181 1    
   118   58  182 1    
   119   58  183 1    
   120   59   60 am   BACKBONE|DICT|INTERRES
   121   59  184 1    
   122   60   61 2    
   123   60   62 1    
   124   62   63 1    
   125   62   64 1    
   126   62  185 1    
   127   63  186 1    
   128   63  187 1    
   129   63  188 1    
   130   64   65 am   BACKBONE|DICT|INTERRES
   131   64  189 1    
   132   65   66 2    
   133   67   68 2    
   134   67   69 am   BACKBONE|DICT|INTERRES
   135   69   70 1    
   136   69  190 1    
   137   70   71 1    
   138   70   72 1    
   139   70  191 1    
   140   71  192 1    
   141   71  193 1    
   142   71  194 1    
   143   72   73 2    
   144   72   74 am   BACKBONE|DICT|INTERRES
   145   74   75 1    
   146   74  195 1    
   147   75   76 1    
   148   75   77 1    
   149   75  196 1    
   150   76  197 1    
   151   76  198 1    
   152   76  199 1    
   153   77   78 2    
   154   77   79 am   BACKBONE|DICT|INTERRES
   155   79   80 1    
   156   79  200 1    
   157   80   81 1    
   158   80   82 1    
   159   80  201 1    
   160   81  202 1    
   161   81  203 1    
   162   81  204 1    
   163   82   83 2    
   164   82   84 am   BACKBONE|DICT|INTERRES
   165   84   85 1    
   166   84  205 1    
   167   85   86 1    
   168   85   87 1    
   169   85  206 1    
   170   86  207 1    
   171   86  208 1    
   172   86  209 1    
   173   87   88 2    
   174   87   89 am   BACKBONE|DICT|INTERRES
   175   89   90 1    
   176   89  210 1    
   177   90   91 1    
   178   90   92 1    
   179   90  211 1    
   180   91  212 1    
   181   91  213 1    
   182   91  214 1    
   183   92   93 2    
   184   92   94 am   BACKBONE|DICT|INTERRES
   185   94   95 1    
   186   94  215 1    
   187   95   96 1    
   188   95   97 1    
   189   95  216 1    
   190   96  217 1    
   191   96  218 1    
   192   96  219 1    
   193   97   98 2    
   194   97   99 am   BACKBONE|DICT|INTERRES
   195   99  100 1    
   196   99  220 1    
   197  100  101 1    
   198  100  102 1    
   199  100  221 1    
   200  101  222 1    
   201  101  223 1    
   202  101  224 1    
   203  102  103 2    
   204  102  104 am   BACKBONE|DICT|INTERRES
   205  104  105 1    
   206  104  225 1    
   207  105  106 1    
   208  105  107 1    
   209  105  226 1    
   210  106  227 1    
   211  106  228 1    
   212  106  229 1    
   213  107  108 2    
   214  107  109 am   BACKBONE|DICT|INTERRES
   215  109  110 1    
   216  109  230 1    
   217  110  111 1    
   218  110  112 1    
   219  110  231 1    
   220  111  232 1    
   221  111  233 1    
   222  111  234 1    
   223  112  113 2    
   224  112  114 am   BACKBONE|DICT|INTERRES
   225  114  115 1    
   226  114  235 1    
   227  115  116 1    
   228  115  117 1    
   229  115  236 1    
   230  116  237 1    
   231  116  238 1    
   232  116  239 1    
   233  117  118 2    
   234  117  119 am   BACKBONE|DICT|INTERRES
   235  119  120 1    
   236  119  240 1    
   237  120  121 1    
   238  120  124 1    
   239  120  241 1    
   240  121  122 am   BACKBONE|DICT|INTERRES
   241  121  123 2    
   242  122  242 1    
   243  122  243 1    
   244  124  125 1    
   245  124  244 1    
   246  124  245 1    
   247  125  126 1    
   248  126  246 1    
   249  126  247 1    
@<TRIPOS>SUBSTRUCTURE
     1 UNK         1 GROUP             0       ****    0 ROOT    
