@<TRIPOS>MOLECULE
3R540
247   249    1
SMALL
USER_CHARGES


@<TRIPOS>ATOM
      1 CA         -0.6564  -14.7794  -45.0889 C.3       0 UNK        -0.1800 
      2 C          -1.8742  -13.9171  -44.7644 C.2       0 UNK         0.5000 
      3 O          -1.7447  -12.9573  -44.0087 O.2       0 UNK        -0.5000 
      4 N          -3.0756  -14.2075  -45.2863 N.am      1 UNK        -0.5000 
      5 CA         -3.4440  -15.3066  -46.1891 C.3       1 UNK         0.1400 
      6 C6         -3.1809  -16.7151  -45.5798 C.3       23 UNK        -0.0398 
      7 S7         -4.4422  -17.9431  -46.0522 S.3       23 UNK        -0.2404 
      8 C8         -3.4051  -19.4047  -46.3602 C.3       23 UNK        -0.0205 
      9 C9         -4.2516  -20.6609  -46.4753 C.ar      23 UNK        -0.0193 
     10 C10        -4.6015  -21.1697  -47.7288 C.ar      23 UNK        -0.1150 
     11 C11        -5.3783  -22.3267  -47.8341 C.ar      23 UNK        -0.0193 
     12 C12        -5.7953  -22.9832  -46.6733 C.ar      23 UNK        -0.1150 
     13 C13        -5.4404  -22.4906  -45.4134 C.ar      23 UNK        -0.0193 
     14 C14        -4.6775  -21.3229  -45.3207 C.ar      23 UNK        -0.1150 
     15 C15        -5.8675  -23.2300  -44.1551 C.3       23 UNK        -0.0205 
     16 S16        -5.0060  -24.8255  -43.9847 S.3       23 UNK        -0.2404 
     17 C17        -3.2863  -24.3097  -43.6276 C.3       23 UNK        -0.0398 
     18 CA         -2.3879  -24.0579  -44.8678 C.3       11 UNK         0.1400 
     19 N          -1.0139  -23.7561  -44.4715 N.am      11 UNK        -0.5000 
     20 C          -0.0202  -23.3745  -45.2841 C.2       10 UNK         0.5000 
     21 O          -0.1489  -23.2410  -46.5042 O.2       10 UNK        -0.5000 
     22 CA          1.3373  -23.0948  -44.6059 C.3       10 UNK         0.1400 
     23 CB          2.3743  -22.5073  -45.5778 C.3       10 UNK        -0.1800 
     24 N           1.1929  -22.1919  -43.4609 N.am      10 UNK        -0.5000 
     25 C           0.8289  -22.5620  -42.2236 C.2       9 UNK         0.5000 
     26 O           0.5644  -23.7267  -41.9229 O.2       9 UNK        -0.5000 
     27 CA          0.7087  -21.4655  -41.1457 C.3       9 UNK         0.1400 
     28 CB          1.9670  -21.4408  -40.2650 C.3       9 UNK        -0.1800 
     29 N           0.4939  -20.1279  -41.6937 N.am      9 UNK        -0.5000 
     30 C          -0.6202  -19.7143  -42.3147 C.2       8 UNK         0.5000 
     31 O          -1.6347  -20.4019  -42.4318 O.2       8 UNK        -0.5000 
     32 CA         -0.5823  -18.3007  -42.9321 C.3       8 UNK         0.1400 
     33 CB         -1.2600  -17.2951  -41.9885 C.3       8 UNK        -0.1800 
     34 N           0.7727  -17.8332  -43.2543 N.am      8 UNK        -0.5000 
     35 C           1.5975  -18.4330  -44.1291 C.2       7 UNK         0.5000 
     36 O           1.2763  -19.4295  -44.7740 O.2       7 UNK        -0.5000 
     37 CA          3.0242  -17.8743  -44.2930 C.3       7 UNK         0.1400 
     38 CB          3.2167  -17.2718  -45.6917 C.3       7 UNK        -0.1800 
     39 N           3.3786  -16.8747  -43.2855 N.am      7 UNK        -0.5000 
     40 C           3.7159  -17.1557  -42.0185 C.2       6 UNK         0.5000 
     41 O           3.7433  -18.3003  -41.5644 O.2       6 UNK        -0.5000 
     42 CA          4.0604  -15.9675  -41.0954 C.3       6 UNK         0.1400 
     43 CB          5.5818  -15.7668  -41.0284 C.3       6 UNK        -0.1800 
     44 N           3.4333  -14.7043  -41.4919 N.am      6 UNK        -0.5000 
     45 C           2.1130  -14.4785  -41.5103 C.2       5 UNK         0.5000 
     46 O           1.2771  -15.3105  -41.1576 O.2       5 UNK        -0.5000 
     47 CA          1.6396  -13.1137  -42.0492 C.3       5 UNK         0.1400 
     48 CB          1.4883  -12.1118  -40.8946 C.3       5 UNK        -0.1800 
     49 N           2.4648  -12.5056  -43.1040 N.am      5 UNK        -0.5000 
     50 C           2.8641  -13.0982  -44.2378 C.2       4 UNK         0.5000 
     51 O           2.7870  -14.3095  -44.4482 O.2       4 UNK        -0.5000 
     52 CA          3.4466  -12.1878  -45.3350 C.3       4 UNK         0.1400 
     53 CB          4.9814  -12.2416  -45.3189 C.3       4 UNK        -0.1800 
     54 N           2.9633  -12.6038  -46.6547 N.am      4 UNK        -0.5000 
     55 C           1.6816  -12.5414  -47.0412 C.2       3 UNK         0.5000 
     56 O           0.8053  -11.9564  -46.3972 O.2       3 UNK        -0.5000 
     57 CA          1.3074  -13.2680  -48.3461 C.3       3 UNK         0.1400 
     58 CB          1.8288  -14.7205  -48.3690 C.3       3 UNK        -0.1800 
     59 N          -0.1479  -13.2496  -48.4709 N.am      3 UNK        -0.5000 
     60 C          -0.8663  -13.5481  -49.5578 C.2       2 UNK         0.5000 
     61 O          -0.3672  -13.8953  -50.6296 O.2       2 UNK        -0.5000 
     62 CA         -2.3996  -13.4170  -49.4156 C.3       2 UNK         0.1400 
     63 CB         -3.1645  -14.0968  -50.5717 C.3       2 UNK        -0.1800 
     64 N          -2.9051  -13.8636  -48.1072 N.am      2 UNK        -0.5000 
     65 C          -2.8680  -15.1106  -47.6101 C.2       1 UNK         0.5000 
     66 O          -2.3823  -16.0674  -48.2074 O.2       1 UNK        -0.5000 
     67 C          -2.4170  -25.2014  -45.9015 C.2       11 UNK         0.5000 
     68 O          -1.9627  -26.3079  -45.6025 O.2       11 UNK        -0.5000 
     69 N          -2.9090  -24.8746  -47.1053 N.am      12 UNK        -0.5000 
     70 CA         -2.9789  -25.7214  -48.2995 C.3       12 UNK         0.1400 
     71 CB         -3.9136  -26.9258  -48.0631 C.3       12 UNK        -0.1800 
     72 C          -1.5989  -26.1346  -48.8628 C.2       12 UNK         0.5000 
     73 O          -1.5340  -27.0805  -49.6497 O.2       12 UNK        -0.5000 
     74 N          -0.5294  -25.4246  -48.4737 N.am      13 UNK        -0.5000 
     75 CA          0.8488  -25.7065  -48.8756 C.3       13 UNK         0.1400 
     76 CB          1.6576  -26.1435  -47.6438 C.3       13 UNK        -0.1800 
     77 C           1.5126  -24.5053  -49.5675 C.2       13 UNK         0.5000 
     78 O           2.2814  -24.7155  -50.5068 O.2       13 UNK        -0.5000 
     79 N           1.2157  -23.2779  -49.1209 N.am      14 UNK        -0.5000 
     80 CA          1.7542  -22.0413  -49.6861 C.3       14 UNK         0.1400 
     81 CB          3.1828  -21.7842  -49.1592 C.3       14 UNK        -0.1800 
     82 C           0.7971  -20.8688  -49.4148 C.2       14 UNK         0.5000 
     83 O          -0.3592  -21.0878  -49.0440 O.2       14 UNK        -0.5000 
     84 N           1.2867  -19.6414  -49.6464 N.am      15 UNK        -0.5000 
     85 CA          0.5479  -18.3773  -49.5649 C.3       15 UNK         0.1400 
     86 CB          0.1580  -18.0853  -48.1008 C.3       15 UNK        -0.1800 
     87 C          -0.6197  -18.3900  -50.5750 C.2       15 UNK         0.5000 
     88 O          -0.3742  -18.7153  -51.7392 O.2       15 UNK        -0.5000 
     89 N          -1.8586  -18.1140  -50.1420 N.am      16 UNK        -0.5000 
     90 CA         -3.0811  -18.2031  -50.9514 C.3       16 UNK         0.1400 
     91 CB         -4.3123  -17.8574  -50.0982 C.3       16 UNK        -0.1800 
     92 C          -3.3029  -19.5553  -51.6560 C.2       16 UNK         0.5000 
     93 O          -3.9367  -19.5703  -52.7108 O.2       16 UNK        -0.5000 
     94 N          -2.7564  -20.6544  -51.1124 N.am      17 UNK        -0.5000 
     95 CA         -2.7970  -21.9804  -51.7369 C.3       17 UNK         0.1400 
     96 CB         -2.2786  -23.0338  -50.7478 C.3       17 UNK        -0.1800 
     97 C          -1.9976  -22.0595  -53.0511 C.2       17 UNK         0.5000 
     98 O          -2.3352  -22.8742  -53.9090 O.2       17 UNK        -0.5000 
     99 N          -0.9690  -21.2136  -53.1861 N.am      18 UNK        -0.5000 
    100 CA        -0.1434  -21.0923  -54.3835 C.3       18 UNK         0.1400 
    101 CB         1.3334  -21.0086  -53.9644 C.3       18 UNK        -0.1800 
    102 C         -0.5468  -19.8553  -55.2016 C.2       18 UNK         0.5000 
    103 O         -0.6552  -19.9451  -56.4245 O.2       18 UNK        -0.5000 
    104 N         -0.7574  -18.7233  -54.5161 N.am      19 UNK        -0.5000 
    105 CA        -1.0048  -17.4165  -55.1243 C.3       19 UNK         0.1400 
    106 CB        -0.7544  -16.3219  -54.0745 C.3       19 UNK        -0.1800 
    107 C         -2.4098  -17.2608  -55.7319 C.2       19 UNK         0.5000 
    108 O         -2.5553  -16.5336  -56.7155 O.2       19 UNK        -0.5000 
    109 N         -3.4135  -17.9170  -55.1358 N.am      20 UNK        -0.5000 
    110 CA        -4.8261  -17.7733  -55.4982 C.3       20 UNK         0.1400 
    111 CB        -5.5173  -16.9119  -54.4247 C.3       20 UNK        -0.1800 
    112 C         -5.5378  -19.1279  -55.6640 C.2       20 UNK         0.5000 
    113 O         -6.7590  -19.1429  -55.8257 O.2       20 UNK        -0.5000 
    114 N         -4.7916  -20.2412  -55.5773 N.am      21 UNK        -0.5000 
    115 CA        -5.2762  -21.6306  -55.5830 C.3       21 UNK         0.1400 
    116 CB        -5.7937  -22.0139  -56.9848 C.3       21 UNK        -0.1800 
    117 C         -6.3056  -21.9256  -54.4646 C.2       21 UNK         0.5000 
    118 O         -7.1941  -22.7602  -54.6433 O.2       21 UNK        -0.5000 
    119 N         -6.1775  -21.2090  -53.3399 N.am      22 UNK        -0.5000 
    120 CA        -7.1280  -21.1498  -52.2190 C.3       22 UNK         0.1400 
    121 C         -8.4778  -20.4306  -52.5407 C.2       22 UNK         0.5000 
    122 N         -8.6148  -19.7227  -53.6562 N.am      22 UNK        -0.7600 
    123 O         -9.4190  -20.4868  -51.7544 O.2       22 UNK        -0.5000 
    124 C124       -7.3148  -22.5234  -51.5085 C.3       23 UNK        -0.0398 
    125 S125       -7.4204  -22.3465  -49.6936 S.3       23 UNK        -0.2404 
    126 C126       -5.7522  -22.8701  -49.2025 C.3       23 UNK        -0.0205 
    127 H127       -0.7100  -15.7421  -44.5873 H         1 UNK         0.0600 
    128 H128        0.2453  -14.2825  -44.7425 H         1 UNK         0.0600 
    129 H129       -0.5403  -14.9469  -46.1568 H         1 UNK         0.0600 
    130 H130       -3.8474  -13.6071  -45.0308 H         1 UNK         0.3000 
    131 H131       -4.5234  -15.1985  -46.3070 H         1 UNK         0.0600 
    132 H132       -2.1865  -17.0842  -45.8355 H         1 UNK         0.0800 
    133 H133       -3.2057  -16.6625  -44.4906 H         1 UNK         0.0800 
    134 H134       -2.8300  -19.2515  -47.2734 H         1 UNK         0.0800 
    135 H135       -2.6830  -19.5272  -45.5512 H         1 UNK         0.0800 
    136 H136       -4.2717  -20.6656  -48.6248 H         1 UNK         0.1150 
    137 H137       -6.3880  -23.8843  -46.7495 H         1 UNK         0.1150 
    138 H138       -4.3996  -20.9345  -44.3504 H         1 UNK         0.1150 
    139 H139       -5.6956  -22.6242  -43.2640 H         1 UNK         0.0800 
    140 H140       -6.9421  -23.4125  -44.1983 H         1 UNK         0.0800 
    141 H141       -2.8421  -25.0912  -43.0089 H         1 UNK         0.0800 
    142 H142       -3.3100  -23.4155  -43.0028 H         1 UNK         0.0800 
    143 H143       -2.7484  -23.1568  -45.3613 H         1 UNK         0.0600 
    144 H144       -0.7888  -23.8719  -43.4906 H         1 UNK         0.3000 
    145 H145        1.7248  -24.0537  -44.2557 H         1 UNK         0.0600 
    146 H146        3.3130  -22.2838  -45.0709 H         1 UNK         0.0600 
    147 H147        2.0135  -21.5877  -46.0386 H         1 UNK         0.0600 
    148 H148        2.5996  -23.2087  -46.3812 H         1 UNK         0.0600 
    149 H149        1.3056  -21.2054  -43.6657 H         1 UNK         0.3000 
    150 H150       -0.1471  -21.7164  -40.5156 H         1 UNK         0.0600 
    151 H151        2.1510  -22.4179  -39.8165 H         1 UNK         0.0600 
    152 H152        1.8642  -20.7243  -39.4498 H         1 UNK         0.0600 
    153 H153        2.8541  -21.1696  -40.8394 H         1 UNK         0.0600 
    154 H154        1.2772  -19.4912  -41.6457 H         1 UNK         0.3000 
    155 H155       -1.1494  -18.3368  -43.8638 H         1 UNK         0.0600 
    156 H156       -2.2941  -17.5812  -41.7922 H         1 UNK         0.0600 
    157 H157       -1.2771  -16.2907  -42.4095 H         1 UNK         0.0600 
    158 H158       -0.7470  -17.2419  -41.0274 H         1 UNK         0.0600 
    159 H159        1.1100  -17.0287  -42.7410 H         1 UNK         0.3000 
    160 H160        3.7136  -18.7157  -44.1959 H         1 UNK         0.0600 
    161 H161        3.1286  -18.0388  -46.4616 H         1 UNK         0.0600 
    162 H162        4.2020  -16.8180  -45.7987 H         1 UNK         0.0600 
    163 H163        2.4701  -16.5065  -45.8986 H         1 UNK         0.0600 
    164 H164        3.3199  -15.9034  -43.5836 H         1 UNK         0.3000 
    165 H165        3.7033  -16.2185  -40.0945 H         1 UNK         0.0600 
    166 H166        5.8465  -14.9869  -40.3141 H         1 UNK         0.0600 
    167 H167        6.0833  -16.6815  -40.7093 H         1 UNK         0.0600 
    168 H168        5.9932  -15.4883  -41.9995 H         1 UNK         0.0600 
    169 H169        4.0467  -13.9739  -41.8219 H         1 UNK         0.3000 
    170 H170        0.6504  -13.2760  -42.4811 H         1 UNK         0.0600 
    171 H171        2.4533  -11.8592  -40.4534 H         1 UNK         0.0600 
    172 H172        1.0196  -11.1873  -41.2323 H         1 UNK         0.0600 
    173 H173        0.8605  -12.5195  -40.1010 H         1 UNK         0.0600 
    174 H174        2.6039  -11.5091  -43.0193 H         1 UNK         0.3000 
    175 H175        3.1268  -11.1589  -45.1577 H         1 UNK         0.0600 
    176 H176        5.3509  -13.2525  -45.4972 H         1 UNK         0.0600 
    177 H177        5.4074  -11.5887  -46.0810 H         1 UNK         0.0600 
    178 H178        5.3735  -11.9142  -44.3551 H         1 UNK         0.0600 
    179 H179        3.6167  -13.1228  -47.2219 H         1 UNK         0.3000 
    180 H180        1.7409  -12.7091  -49.1775 H         1 UNK         0.0600 
    181 H181        1.5536  -15.2298  -49.2916 H         1 UNK         0.0600 
    182 H182        1.4234  -15.2955  -47.5382 H         1 UNK         0.0600 
    183 H183        2.9159  -14.7625  -48.3007 H         1 UNK         0.0600 
    184 H184       -0.6162  -12.9052  -47.6419 H         1 UNK         0.3000 
    185 H185       -2.6150  -12.3490  -49.4703 H         1 UNK         0.0600 
    186 H186       -2.8829  -15.1438  -50.6790 H         1 UNK         0.0600 
    187 H187       -4.2427  -14.0486  -50.4208 H         1 UNK         0.0600 
    188 H188       -2.9466  -13.6077  -51.5217 H         1 UNK         0.0600 
    189 H189       -3.3032  -13.1391  -47.5262 H         1 UNK         0.3000 
    190 H190       -3.2340  -23.9264  -47.2344 H         1 UNK         0.3000 
    191 H191       -3.4440  -25.1094  -49.0712 H         1 UNK         0.0600 
    192 H192       -3.4841  -27.6421  -47.3623 H         1 UNK         0.0600 
    193 H193       -4.1094  -27.4590  -48.9941 H         1 UNK         0.0600 
    194 H194       -4.8770  -26.6046  -47.6668 H         1 UNK         0.0600 
    195 H195       -0.6582  -24.6576  -47.8219 H         1 UNK         0.3000 
    196 H196        0.8753  -26.5292  -49.5929 H         1 UNK         0.0600 
    197 H197        1.2412  -27.0500  -47.2042 H         1 UNK         0.0600 
    198 H198        1.6678  -25.3753  -46.8719 H         1 UNK         0.0600 
    199 H199        2.6936  -26.3565  -47.9104 H         1 UNK         0.0600 
    200 H200        0.5650  -23.1482  -48.3501 H         1 UNK         0.3000 
    201 H201        1.7980  -22.1502  -50.7717 H         1 UNK         0.0600 
    202 H202        3.8136  -22.6674  -49.2592 H         1 UNK         0.0600 
    203 H203        3.1803  -21.4950  -48.1093 H         1 UNK         0.0600 
    204 H204        3.6730  -20.9857  -49.7164 H         1 UNK         0.0600 
    205 H205        2.2352  -19.5636  -49.9831 H         1 UNK         0.3000 
    206 H206        1.2338  -17.5957  -49.8928 H         1 UNK         0.0600 
    207 H207       -0.1412  -17.0478  -47.9764 H         1 UNK         0.0600 
    208 H208       -0.6507  -18.7231  -47.7480 H         1 UNK         0.0600 
    209 H209        1.0032  -18.2458  -47.4340 H         1 UNK         0.0600 
    210 H210       -1.9739  -17.7314  -49.2085 H         1 UNK         0.3000 
    211 H211       -3.0015  -17.4532  -51.7397 H         1 UNK         0.0600 
    212 H212       -4.3167  -16.8079  -49.8107 H         1 UNK         0.0600 
    213 H213       -4.3527  -18.4493  -49.1854 H         1 UNK         0.0600 
    214 H214       -5.2388  -18.0347  -50.6465 H         1 UNK         0.0600 
    215 H215       -2.1996  -20.5659  -50.2703 H         1 UNK         0.3000 
    216 H216       -3.8387  -22.2089  -51.9682 H         1 UNK         0.0600 
    217 H217       -2.7000  -22.8989  -49.7523 H         1 UNK         0.0600 
    218 H218       -1.1939  -22.9970  -50.6534 H         1 UNK         0.0600 
    219 H219       -2.5355  -24.0370  -51.0889 H         1 UNK         0.0600 
    220 H220       -0.7934  -20.5383  -52.4501 H         1 UNK         0.3000 
    221 H221       -0.2614  -21.9706  -55.0217 H         1 UNK         0.0600 
    222 H222        1.5230  -20.1568  -53.3098 H         1 UNK         0.0600 
    223 H223        1.6418  -21.9105  -53.4354 H         1 UNK         0.0600 
    224 H224        1.9814  -20.9051  -54.8356 H         1 UNK         0.0600 
    225 H225       -0.6233  -18.7286  -53.5068 H         1 UNK         0.3000 
    226 H226       -0.2820  -17.2781  -55.9312 H         1 UNK         0.0600 
    227 H227        0.2613  -16.3759  -53.6820 H         1 UNK         0.0600 
    228 H228       -0.8832  -15.3283  -54.5056 H         1 UNK         0.0600 
    229 H229       -1.4410  -16.4039  -53.2318 H         1 UNK         0.0600 
    230 H230       -3.2242  -18.4879  -54.3200 H         1 UNK         0.3000 
    231 H231       -4.9262  -17.2659  -56.4595 H         1 UNK         0.0600 
    232 H232       -6.5622  -16.7276  -54.6769 H         1 UNK         0.0600 
    233 H233       -5.0334  -15.9399  -54.3280 H         1 UNK         0.0600 
    234 H234       -5.4958  -17.3947  -53.4470 H         1 UNK         0.0600 
    235 H235       -3.7983  -20.1258  -55.4413 H         1 UNK         0.3000 
    236 H236       -4.4122  -22.2599  -55.3724 H         1 UNK         0.0600 
    237 H237       -6.7022  -21.4696  -57.2441 H         1 UNK         0.0600 
    238 H238       -5.0471  -21.8050  -57.7509 H         1 UNK         0.0600 
    239 H239       -6.0235  -23.0786  -57.0402 H         1 UNK         0.0600 
    240 H240       -5.4036  -20.5514  -53.2800 H         1 UNK         0.3000 
    241 H241       -6.6329  -20.4778  -51.5170 H         1 UNK         0.0600 
    242 H242       -7.8688  -19.6481  -54.3412 H         1 UNK         0.3800 
    243 H243       -9.4924  -19.2617  -53.8353 H         1 UNK         0.3800 
    244 H244       -6.4866  -23.1939  -51.7410 H         1 UNK         0.0800 
    245 H245       -8.2068  -23.0370  -51.8713 H         1 UNK         0.0800 
    246 H246       -5.0372  -22.5157  -49.9426 H         1 UNK         0.0800 
    247 H247       -5.6966  -23.9596  -49.2073 H         1 UNK         0.0800 
@<TRIPOS>BOND
     1    1    2 1    
     2    1  127 1    
     3    1  128 1    
     4    1  129 1    
     5    2    3 2    
     6    2    4 am   BACKBONE|DICT|INTERRES
     7    4    5 1    
     8    4  130 1    
     9    5    6 1    
    10    5   65 1    
    11    5  131 1    
    12    6    7 1    
    13    6  132 1    
    14    6  133 1    
    15    7    8 1    
    16    8    9 1    
    17    8  134 1    
    18    8  135 1    
    19    9   10 ar   
    20    9   14 ar   
    21   10   11 ar   
    22   10  136 1    
    23   11   12 ar   
    24   11  126 1    
    25   12   13 ar   
    26   12  137 1    
    27   13   14 ar   
    28   13   15 1    
    29   14  138 1    
    30   15   16 1    
    31   15  139 1    
    32   15  140 1    
    33   16   17 1    
    34   17   18 1    
    35   17  141 1    
    36   17  142 1    
    37   18   19 1    
    38   18   67 1    
    39   18  143 1    
    40   19   20 am   BACKBONE|DICT|INTERRES
    41   19  144 1    
    42   20   21 2    
    43   20   22 1    
    44   22   23 1    
    45   22   24 1    
    46   22  145 1    
    47   23  146 1    
    48   23  147 1    
    49   23  148 1    
    50   24   25 am   BACKBONE|DICT|INTERRES
    51   24  149 1    
    52   25   26 2    
    53   25   27 1    
    54   27   28 1    
    55   27   29 1    
    56   27  150 1    
    57   28  151 1    
    58   28  152 1    
    59   28  153 1    
    60   29   30 am   BACKBONE|DICT|INTERRES
    61   29  154 1    
    62   30   31 2    
    63   30   32 1    
    64   32   33 1    
    65   32   34 1    
    66   32  155 1    
    67   33  156 1    
    68   33  157 1    
    69   33  158 1    
    70   34   35 am   BACKBONE|DICT|INTERRES
    71   34  159 1    
    72   35   36 2    
    73   35   37 1    
    74   37   38 1    
    75   37   39 1    
    76   37  160 1    
    77   38  161 1    
    78   38  162 1    
    79   38  163 1    
    80   39   40 am   BACKBONE|DICT|INTERRES
    81   39  164 1    
    82   40   41 2    
    83   40   42 1    
    84   42   43 1    
    85   42   44 1    
    86   42  165 1    
    87   43  166 1    
    88   43  167 1    
    89   43  168 1    
    90   44   45 am   BACKBONE|DICT|INTERRES
    91   44  169 1    
    92   45   46 2    
    93   45   47 1    
    94   47   48 1    
    95   47   49 1    
    96   47  170 1    
    97   48  171 1    
    98   48  172 1    
    99   48  173 1    
   100   49   50 am   BACKBONE|DICT|INTERRES
   101   49  174 1    
   102   50   51 2    
   103   50   52 1    
   104   52   53 1    
   105   52   54 1    
   106   52  175 1    
   107   53  176 1    
   108   53  177 1    
   109   53  178 1    
   110   54   55 am   BACKBONE|DICT|INTERRES
   111   54  179 1    
   112   55   56 2    
   113   55   57 1    
   114   57   58 1    
   115   57   59 1    
   116   57  180 1    
   117   58  181 1    
   118   58  182 1    
   119   58  183 1    
   120   59   60 am   BACKBONE|DICT|INTERRES
   121   59  184 1    
   122   60   61 2    
   123   60   62 1    
   124   62   63 1    
   125   62   64 1    
   126   62  185 1    
   127   63  186 1    
   128   63  187 1    
   129   63  188 1    
   130   64   65 am   BACKBONE|DICT|INTERRES
   131   64  189 1    
   132   65   66 2    
   133   67   68 2    
   134   67   69 am   BACKBONE|DICT|INTERRES
   135   69   70 1    
   136   69  190 1    
   137   70   71 1    
   138   70   72 1    
   139   70  191 1    
   140   71  192 1    
   141   71  193 1    
   142   71  194 1    
   143   72   73 2    
   144   72   74 am   BACKBONE|DICT|INTERRES
   145   74   75 1    
   146   74  195 1    
   147   75   76 1    
   148   75   77 1    
   149   75  196 1    
   150   76  197 1    
   151   76  198 1    
   152   76  199 1    
   153   77   78 2    
   154   77   79 am   BACKBONE|DICT|INTERRES
   155   79   80 1    
   156   79  200 1    
   157   80   81 1    
   158   80   82 1    
   159   80  201 1    
   160   81  202 1    
   161   81  203 1    
   162   81  204 1    
   163   82   83 2    
   164   82   84 am   BACKBONE|DICT|INTERRES
   165   84   85 1    
   166   84  205 1    
   167   85   86 1    
   168   85   87 1    
   169   85  206 1    
   170   86  207 1    
   171   86  208 1    
   172   86  209 1    
   173   87   88 2    
   174   87   89 am   BACKBONE|DICT|INTERRES
   175   89   90 1    
   176   89  210 1    
   177   90   91 1    
   178   90   92 1    
   179   90  211 1    
   180   91  212 1    
   181   91  213 1    
   182   91  214 1    
   183   92   93 2    
   184   92   94 am   BACKBONE|DICT|INTERRES
   185   94   95 1    
   186   94  215 1    
   187   95   96 1    
   188   95   97 1    
   189   95  216 1    
   190   96  217 1    
   191   96  218 1    
   192   96  219 1    
   193   97   98 2    
   194   97   99 am   BACKBONE|DICT|INTERRES
   195   99  100 1    
   196   99  220 1    
   197  100  101 1    
   198  100  102 1    
   199  100  221 1    
   200  101  222 1    
   201  101  223 1    
   202  101  224 1    
   203  102  103 2    
   204  102  104 am   BACKBONE|DICT|INTERRES
   205  104  105 1    
   206  104  225 1    
   207  105  106 1    
   208  105  107 1    
   209  105  226 1    
   210  106  227 1    
   211  106  228 1    
   212  106  229 1    
   213  107  108 2    
   214  107  109 am   BACKBONE|DICT|INTERRES
   215  109  110 1    
   216  109  230 1    
   217  110  111 1    
   218  110  112 1    
   219  110  231 1    
   220  111  232 1    
   221  111  233 1    
   222  111  234 1    
   223  112  113 2    
   224  112  114 am   BACKBONE|DICT|INTERRES
   225  114  115 1    
   226  114  235 1    
   227  115  116 1    
   228  115  117 1    
   229  115  236 1    
   230  116  237 1    
   231  116  238 1    
   232  116  239 1    
   233  117  118 2    
   234  117  119 am   BACKBONE|DICT|INTERRES
   235  119  120 1    
   236  119  240 1    
   237  120  121 1    
   238  120  124 1    
   239  120  241 1    
   240  121  122 am   BACKBONE|DICT|INTERRES
   241  121  123 2    
   242  122  242 1    
   243  122  243 1    
   244  124  125 1    
   245  124  244 1    
   246  124  245 1    
   247  125  126 1    
   248  126  246 1    
   249  126  247 1    
@<TRIPOS>SUBSTRUCTURE
     1 UNK         1 GROUP             0       ****    0 ROOT    
