@<TRIPOS>MOLECULE
3R540
247   249    1
SMALL
USER_CHARGES


@<TRIPOS>ATOM
      1 CA         -2.9373  -20.8638  -44.6267 C.3       0 UNK        -0.1800 
      2 C          -3.5043  -19.5832  -45.2164 C.2       0 UNK         0.5000 
      3 O          -4.7170  -19.3731  -45.1857 O.2       0 UNK        -0.5000 
      4 N          -2.6304  -18.7326  -45.7635 N.am      1 UNK        -0.5000 
      5 CA         -2.9708  -17.3874  -46.2327 C.3       1 UNK         0.1400 
      6 C6         -1.8894  -16.7838  -47.1637 C.3       23 UNK        -0.0398 
      7 S7         -1.4828  -17.8445  -48.5878 S.3       23 UNK        -0.2404 
      8 C8          0.2817  -17.4548  -48.8258 C.3       23 UNK        -0.0205 
      9 C9          0.9751  -18.5202  -49.6608 C.ar      23 UNK        -0.0193 
     10 C10         0.6963  -18.6265  -51.0230 C.ar      23 UNK        -0.1150 
     11 C11         1.2936  -19.6193  -51.8011 C.ar      23 UNK        -0.0193 
     12 C12         2.2043  -20.4971  -51.2065 C.ar      23 UNK        -0.1150 
     13 C13         2.5195  -20.3922  -49.8471 C.ar      23 UNK        -0.0193 
     14 C14         1.8961  -19.3970  -49.0799 C.ar      23 UNK        -0.1150 
     15 C15         3.5651  -21.3457  -49.2643 C.3       23 UNK        -0.0205 
     16 S16         3.4488  -21.6320  -47.4659 S.3       23 UNK        -0.2404 
     17 C17         1.8555  -22.5127  -47.3381 C.3       23 UNK        -0.0398 
     18 CA          1.9468  -23.7862  -46.4597 C.3       11 UNK         0.1400 
     19 N           2.5098  -23.5191  -45.1314 N.am      11 UNK        -0.5000 
     20 C           3.0300  -24.4435  -44.3125 C.2       10 UNK         0.5000 
     21 O           3.1691  -25.6279  -44.6194 O.2       10 UNK        -0.5000 
     22 CA          3.4578  -23.9689  -42.9097 C.3       10 UNK         0.1400 
     23 CB          4.9421  -23.5740  -42.9048 C.3       10 UNK        -0.1800 
     24 N           2.6524  -22.8423  -42.4317 N.am      10 UNK        -0.5000 
     25 C           1.3926  -22.9582  -41.9813 C.2       9 UNK         0.5000 
     26 O           0.8175  -24.0376  -41.8422 O.2       9 UNK        -0.5000 
     27 CA          0.6263  -21.6558  -41.6638 C.3       9 UNK         0.1400 
     28 CB          0.7500  -21.3147  -40.1713 C.3       9 UNK        -0.1800 
     29 N           1.0617  -20.5055  -42.4594 N.am      9 UNK        -0.5000 
     30 C           1.0397  -20.4462  -43.7976 C.2       8 UNK         0.5000 
     31 O           0.5295  -21.3183  -44.4995 O.2       8 UNK        -0.5000 
     32 CA          1.7549  -19.2649  -44.4792 C.3       8 UNK         0.1400 
     33 CB          0.7403  -18.2611  -45.0349 C.3       8 UNK        -0.1800 
     34 N           2.7206  -18.5670  -43.6283 N.am      8 UNK        -0.5000 
     35 C           3.8508  -19.1057  -43.1470 C.2       7 UNK         0.5000 
     36 O           4.1558  -20.2901  -43.2902 O.2       7 UNK        -0.5000 
     37 CA          4.7744  -18.1722  -42.3503 C.3       7 UNK         0.1400 
     38 CB          5.5606  -17.2499  -43.2956 C.3       7 UNK        -0.1800 
     39 N           4.0007  -17.3604  -41.4139 N.am      7 UNK        -0.5000 
     40 C           3.7765  -17.6841  -40.1334 C.2       6 UNK         0.5000 
     41 O           4.2695  -18.6667  -39.5785 O.2       6 UNK        -0.5000 
     42 CA          2.8302  -16.7641  -39.3348 C.3       6 UNK         0.1400 
     43 CB          3.6297  -15.6757  -38.6026 C.3       6 UNK        -0.1800 
     44 N           1.7983  -16.1271  -40.1563 N.am      6 UNK        -0.5000 
     45 C           0.8302  -16.7849  -40.8088 C.2       5 UNK         0.5000 
     46 O           0.6878  -18.0062  -40.7672 O.2       5 UNK        -0.5000 
     47 CA         -0.1116  -15.9464  -41.6923 C.3       5 UNK         0.1400 
     48 CB         -1.3373  -15.4923  -40.8861 C.3       5 UNK        -0.1800 
     49 N           0.5021  -14.7789  -42.3365 N.am      5 UNK        -0.5000 
     50 C           1.6061  -14.7833  -43.0993 C.2       4 UNK         0.5000 
     51 O           2.3239  -15.7731  -43.2557 O.2       4 UNK        -0.5000 
     52 CA          1.9545  -13.4522  -43.8005 C.3       4 UNK         0.1400 
     53 CB          3.0578  -13.6115  -44.8682 C.3       4 UNK        -0.1800 
     54 N           0.7756  -12.7792  -44.3646 N.am      4 UNK        -0.5000 
     55 C          -0.0637  -13.2772  -45.2845 C.2       3 UNK         0.5000 
     56 O           0.0639  -14.3809  -45.8167 O.2       3 UNK        -0.5000 
     57 CA         -1.2601  -12.3947  -45.6775 C.3       3 UNK         0.1400 
     58 CB         -1.1679  -11.9678  -47.1513 C.3       3 UNK        -0.1800 
     59 N          -2.5024  -13.1325  -45.4729 N.am      3 UNK        -0.5000 
     60 C          -3.0616  -13.3701  -44.2786 C.2       2 UNK         0.5000 
     61 O          -2.6561  -12.8828  -43.2228 O.2       2 UNK        -0.5000 
     62 CA         -4.2565  -14.3417  -44.2685 C.3       2 UNK         0.1400 
     63 CB         -5.5612  -13.6067  -44.6107 C.3       2 UNK        -0.1800 
     64 N          -4.0602  -15.4404  -45.2149 N.am      2 UNK        -0.5000 
     65 C          -3.1997  -16.4471  -45.0310 C.2       1 UNK         0.5000 
     66 O          -2.5693  -16.6204  -43.9863 O.2       1 UNK        -0.5000 
     67 C           0.5598  -24.4465  -46.3302 C.2       11 UNK         0.5000 
     68 O           0.2398  -25.3520  -47.1002 O.2       11 UNK        -0.5000 
     69 N          -0.2204  -23.9768  -45.3434 N.am      12 UNK        -0.5000 
     70 CA         -1.5487  -24.4448  -44.9308 C.3       12 UNK         0.1400 
     71 CB         -1.5009  -25.9176  -44.4756 C.3       12 UNK        -0.1800 
     72 C          -2.6679  -24.1773  -45.9602 C.2       12 UNK         0.5000 
     73 O          -3.7720  -24.7018  -45.8082 O.2       12 UNK        -0.5000 
     74 N          -2.3870  -23.3343  -46.9591 N.am      13 UNK        -0.5000 
     75 CA         -3.2997  -22.8885  -48.0027 C.3       13 UNK         0.1400 
     76 CB         -3.4915  -24.0193  -49.0320 C.3       13 UNK        -0.1800 
     77 C          -2.6760  -21.6443  -48.6626 C.2       13 UNK         0.5000 
     78 O          -1.4527  -21.6194  -48.8030 O.2       13 UNK        -0.5000 
     79 N          -3.4460  -20.6288  -49.0752 N.am      14 UNK        -0.5000 
     80 CA         -4.8750  -20.3975  -48.8698 C.3       14 UNK         0.1400 
     81 CB         -5.7346  -21.3631  -49.7089 C.3       14 UNK        -0.1800 
     82 C          -5.1959  -18.9459  -49.2556 C.2       14 UNK         0.5000 
     83 O          -4.6485  -18.4508  -50.2453 O.2       14 UNK        -0.5000 
     84 N          -6.1096  -18.3238  -48.4954 N.am      15 UNK        -0.5000 
     85 CA         -6.6977  -16.9925  -48.6893 C.3       15 UNK         0.1400 
     86 CB         -7.6756  -17.0086  -49.8834 C.3       15 UNK        -0.1800 
     87 C          -5.6409  -15.8741  -48.7833 C.2       15 UNK         0.5000 
     88 O          -5.1428  -15.4227  -47.7527 O.2       15 UNK        -0.5000 
     89 N          -5.3114  -15.4559  -50.0060 N.am      16 UNK        -0.5000 
     90 CA         -4.2590  -14.4996  -50.3224 C.3       16 UNK         0.1400 
     91 CB         -4.8513  -13.0813  -50.4181 C.3       16 UNK        -0.1800 
     92 C          -3.5747  -14.9782  -51.6102 C.2       16 UNK         0.5000 
     93 O          -3.5585  -14.2591  -52.6099 O.2       16 UNK        -0.5000 
     94 N          -3.0720  -16.2196  -51.5555 N.am      17 UNK        -0.5000 
     95 CA         -2.4876  -16.9988  -52.6478 C.3       17 UNK         0.1400 
     96 CB         -1.2694  -16.2846  -53.2757 C.3       17 UNK        -0.1800 
     97 C          -3.5562  -17.4090  -53.6762 C.2       17 UNK         0.5000 
     98 O          -3.4730  -17.0338  -54.8478 O.2       17 UNK        -0.5000 
     99 N          -4.5611  -18.1589  -53.1996 N.am      18 UNK        -0.5000 
    100 CA        -5.6436  -18.7287  -54.0046 C.3       18 UNK         0.1400 
    101 CB        -6.5826  -19.5350  -53.0944 C.3       18 UNK        -0.1800 
    102 C         -5.1179  -19.6363  -55.1314 C.2       18 UNK         0.5000 
    103 O         -4.3091  -20.5281  -54.8654 O.2       18 UNK        -0.5000 
    104 N         -5.6154  -19.4258  -56.3571 N.am      19 UNK        -0.5000 
    105 CA        -5.2053  -20.1472  -57.5678 C.3       19 UNK         0.1400 
    106 CB        -5.9011  -19.5221  -58.7860 C.3       19 UNK        -0.1800 
    107 C         -5.4667  -21.6651  -57.5179 C.2       19 UNK         0.5000 
    108 O         -4.7386  -22.4262  -58.1545 O.2       19 UNK        -0.5000 
    109 N         -6.4662  -22.0825  -56.7291 N.am      20 UNK        -0.5000 
    110 CA        -6.7839  -23.4844  -56.4517 C.3       20 UNK         0.1400 
    111 CB        -8.1143  -23.5489  -55.6858 C.3       20 UNK        -0.1800 
    112 C         -5.6775  -24.2249  -55.6711 C.2       20 UNK         0.5000 
    113 O         -5.5787  -25.4472  -55.7871 O.2       20 UNK        -0.5000 
    114 N         -4.8731  -23.4808  -54.9001 N.am      21 UNK        -0.5000 
    115 CA        -3.7378  -23.9947  -54.1391 C.3       21 UNK         0.1400 
    116 CB        -3.7630  -23.3804  -52.7298 C.3       21 UNK        -0.1800 
    117 C         -2.4119  -23.6705  -54.8450 C.2       21 UNK         0.5000 
    118 O         -1.5645  -24.5534  -54.9842 O.2       21 UNK        -0.5000 
    119 N         -2.2536  -22.4091  -55.2605 N.am      22 UNK        -0.5000 
    120 CA        -1.0024  -21.8486  -55.7929 C.3       22 UNK         0.1400 
    121 C         -0.8133  -22.0130  -57.3275 C.2       22 UNK         0.5000 
    122 N         -1.8027  -22.4588  -58.0903 N.am      22 UNK        -0.7600 
    123 O          0.2691  -21.7429  -57.8407 O.2       22 UNK        -0.5000 
    124 C124       -0.8305  -20.3700  -55.3613 C.3       23 UNK        -0.0398 
    125 S125       -0.7773  -20.1963  -53.5443 S.3       23 UNK        -0.2404 
    126 C126        0.9619  -19.7292  -53.2822 C.3       23 UNK        -0.0205 
    127 H127       -2.6932  -20.7186  -43.5744 H         1 UNK         0.0600 
    128 H128       -2.0326  -21.1688  -45.1507 H         1 UNK         0.0600 
    129 H129       -3.6662  -21.6703  -44.7013 H         1 UNK         0.0600 
    130 H130       -1.6479  -18.9579  -45.7626 H         1 UNK         0.3000 
    131 H131       -3.9012  -17.4642  -46.7953 H         1 UNK         0.0600 
    132 H132       -2.2140  -15.8169  -47.5517 H         1 UNK         0.0800 
    133 H133       -0.9792  -16.5914  -46.5965 H         1 UNK         0.0800 
    134 H134        0.3716  -16.4851  -49.3174 H         1 UNK         0.0800 
    135 H135        0.7801  -17.3570  -47.8617 H         1 UNK         0.0800 
    136 H136       -0.0049  -17.9442  -51.4727 H         1 UNK         0.1150 
    137 H137        2.6795  -21.2598  -51.8074 H         1 UNK         0.1150 
    138 H138        2.1252  -19.2950  -48.0294 H         1 UNK         0.1150 
    139 H139        3.5142  -22.3111  -49.7704 H         1 UNK         0.0800 
    140 H140        4.5529  -20.9377  -49.4811 H         1 UNK         0.0800 
    141 H141        1.1171  -21.8100  -46.9505 H         1 UNK         0.0800 
    142 H142        1.5091  -22.7782  -48.3388 H         1 UNK         0.0800 
    143 H143        2.6035  -24.4953  -46.9686 H         1 UNK         0.0600 
    144 H144        2.4168  -22.5719  -44.7943 H         1 UNK         0.3000 
    145 H145        3.3291  -24.8058  -42.2199 H         1 UNK         0.0600 
    146 H146        5.2605  -23.2420  -41.9165 H         1 UNK         0.0600 
    147 H147        5.1481  -22.7702  -43.6124 H         1 UNK         0.0600 
    148 H148        5.5704  -24.4214  -43.1821 H         1 UNK         0.0600 
    149 H149        3.0603  -21.9192  -42.5353 H         1 UNK         0.3000 
    150 H150       -0.4270  -21.8344  -41.8897 H         1 UNK         0.0600 
    151 H151        0.4682  -22.1647  -39.5485 H         1 UNK         0.0600 
    152 H152        0.0937  -20.4876  -39.9013 H         1 UNK         0.0600 
    153 H153        1.7704  -21.0345  -39.9064 H         1 UNK         0.0600 
    154 H154        1.4250  -19.7117  -41.9462 H         1 UNK         0.3000 
    155 H155        2.3131  -19.6739  -45.3234 H         1 UNK         0.0600 
    156 H156        0.0414  -17.9246  -44.2702 H         1 UNK         0.0600 
    157 H157        0.1638  -18.7181  -45.8384 H         1 UNK         0.0600 
    158 H158        1.2335  -17.3809  -45.4482 H         1 UNK         0.0600 
    159 H159        2.5492  -17.5762  -43.4712 H         1 UNK         0.3000 
    160 H160        5.4943  -18.7895  -41.8086 H         1 UNK         0.0600 
    161 H161        4.9014  -16.6011  -43.8738 H         1 UNK         0.0600 
    162 H162        6.1524  -17.8314  -44.0036 H         1 UNK         0.0600 
    163 H163        6.2501  -16.6145  -42.7398 H         1 UNK         0.0600 
    164 H164        3.5054  -16.5700  -41.8111 H         1 UNK         0.3000 
    165 H165        2.3276  -17.3811  -38.5870 H         1 UNK         0.0600 
    166 H166        2.9828  -15.0701  -37.9677 H         1 UNK         0.0600 
    167 H167        4.3926  -16.1172  -37.9599 H         1 UNK         0.0600 
    168 H168        4.1355  -15.0089  -39.3021 H         1 UNK         0.0600 
    169 H169        1.8464  -15.1238  -40.2544 H         1 UNK         0.3000 
    170 H170       -0.4580  -16.6033  -42.4886 H         1 UNK         0.0600 
    171 H171       -1.8231  -16.3403  -40.4014 H         1 UNK         0.0600 
    172 H172       -1.0666  -14.7773  -40.1085 H         1 UNK         0.0600 
    173 H173       -2.0805  -15.0244  -41.5317 H         1 UNK         0.0600 
    174 H174       -0.0280  -13.9209  -42.2840 H         1 UNK         0.3000 
    175 H175        2.3440  -12.7938  -43.0230 H         1 UNK         0.0600 
    176 H176        2.7651  -14.3092  -45.6536 H         1 UNK         0.0600 
    177 H177        3.2934  -12.6567  -45.3380 H         1 UNK         0.0600 
    178 H178        3.9792  -13.9901  -44.4241 H         1 UNK         0.0600 
    179 H179        0.5751  -11.8657  -43.9814 H         1 UNK         0.3000 
    180 H180       -1.2731  -11.4954  -45.0578 H         1 UNK         0.0600 
    181 H181       -2.0050  -11.3272  -47.4293 H         1 UNK         0.0600 
    182 H182       -1.1667  -12.8277  -47.8227 H         1 UNK         0.0600 
    183 H183       -0.2520  -11.4055  -47.3367 H         1 UNK         0.0600 
    184 H184       -2.8852  -13.6005  -46.2799 H         1 UNK         0.3000 
    185 H185       -4.3482  -14.7558  -43.2621 H         1 UNK         0.0600 
    186 H186       -6.4181  -14.2777  -44.5475 H         1 UNK         0.0600 
    187 H187       -5.7397  -12.7842  -43.9169 H         1 UNK         0.0600 
    188 H188       -5.5375  -13.1896  -45.6183 H         1 UNK         0.0600 
    189 H189       -4.5432  -15.3671  -46.1108 H         1 UNK         0.3000 
    190 H190        0.1258  -23.1701  -44.8309 H         1 UNK         0.3000 
    191 H191       -1.8062  -23.8459  -44.0562 H         1 UNK         0.0600 
    192 H192       -2.4417  -26.2150  -44.0112 H         1 UNK         0.0600 
    193 H193       -0.7133  -26.0750  -43.7383 H         1 UNK         0.0600 
    194 H194       -1.3218  -26.5957  -45.3102 H         1 UNK         0.0600 
    195 H195       -1.4603  -22.9335  -47.0244 H         1 UNK         0.3000 
    196 H196       -4.2522  -22.6382  -47.5363 H         1 UNK         0.0600 
    197 H197       -4.1125  -23.6987  -49.8656 H         1 UNK         0.0600 
    198 H198       -2.5369  -24.3461  -49.4464 H         1 UNK         0.0600 
    199 H199       -3.9759  -24.8878  -48.5860 H         1 UNK         0.0600 
    200 H200       -2.9857  -19.8419  -49.5154 H         1 UNK         0.3000 
    201 H201       -5.1085  -20.5219  -47.8111 H         1 UNK         0.0600 
    202 H202       -5.8456  -22.3319  -49.2258 H         1 UNK         0.0600 
    203 H203       -5.3075  -21.5228  -50.6989 H         1 UNK         0.0600 
    204 H204       -6.7458  -20.9780  -49.8499 H         1 UNK         0.0600 
    205 H205       -6.4618  -18.8202  -47.6885 H         1 UNK         0.3000 
    206 H206       -7.2827  -16.7820  -47.7927 H         1 UNK         0.0600 
    207 H207       -8.4564  -17.7553  -49.7386 H         1 UNK         0.0600 
    208 H208       -8.1704  -16.0430  -49.9961 H         1 UNK         0.0600 
    209 H209       -7.1753  -17.2334  -50.8238 H         1 UNK         0.0600 
    210 H210       -5.7397  -15.9128  -50.7990 H         1 UNK         0.3000 
    211 H211       -3.4976  -14.5050  -49.5392 H         1 UNK         0.0600 
    212 H212       -5.6217  -13.0185  -51.1875 H         1 UNK         0.0600 
    213 H213       -4.0788  -12.3509  -50.6612 H         1 UNK         0.0600 
    214 H214       -5.2983  -12.7782  -49.4712 H         1 UNK         0.0600 
    215 H215       -3.2294  -16.7464  -50.7044 H         1 UNK         0.3000 
    216 H216       -2.1356  -17.9240  -52.1920 H         1 UNK         0.0600 
    217 H217       -0.5604  -15.9604  -52.5145 H         1 UNK         0.0600 
    218 H218       -1.5587  -15.4059  -53.8522 H         1 UNK         0.0600 
    219 H219       -0.7403  -16.9543  -53.9542 H         1 UNK         0.0600 
    220 H220       -4.5562  -18.4000  -52.2129 H         1 UNK         0.3000 
    221 H221       -6.2041  -17.9000  -54.4413 H         1 UNK         0.0600 
    222 H222       -7.4184  -19.9481  -53.6605 H         1 UNK         0.0600 
    223 H223       -6.0623  -20.3696  -52.6244 H         1 UNK         0.0600 
    224 H224       -7.0036  -18.9172  -52.3042 H         1 UNK         0.0600 
    225 H225       -6.2833  -18.6801  -56.4900 H         1 UNK         0.3000 
    226 H226       -4.1278  -20.0100  -57.6820 H         1 UNK         0.0600 
    227 H227       -5.6451  -18.4675  -58.8890 H         1 UNK         0.0600 
    228 H228       -5.5970  -20.0198  -59.7079 H         1 UNK         0.0600 
    229 H229       -6.9866  -19.6001  -58.7134 H         1 UNK         0.0600 
    230 H230       -7.0158  -21.3872  -56.2467 H         1 UNK         0.3000 
    231 H231       -6.9117  -23.9970  -57.4074 H         1 UNK         0.0600 
    232 H232       -8.3991  -24.5823  -55.4835 H         1 UNK         0.0600 
    233 H233       -8.9232  -23.0971  -56.2602 H         1 UNK         0.0600 
    234 H234       -8.0518  -23.0320  -54.7272 H         1 UNK         0.0600 
    235 H235       -4.9918  -22.4747  -54.8976 H         1 UNK         0.3000 
    236 H236       -3.8066  -25.0793  -54.0323 H         1 UNK         0.0600 
    237 H237       -3.6949  -22.2918  -52.7557 H         1 UNK         0.0600 
    238 H238       -4.6829  -23.6439  -52.2081 H         1 UNK         0.0600 
    239 H239       -2.9282  -23.7458  -52.1307 H         1 UNK         0.0600 
    240 H240       -2.9974  -21.7353  -55.0909 H         1 UNK         0.3000 
    241 H241       -0.1729  -22.4020  -55.3481 H         1 UNK         0.0600 
    242 H242       -1.6464  -22.5643  -59.0799 H         1 UNK         0.3800 
    243 H243       -2.7229  -22.6522  -57.7159 H         1 UNK         0.3800 
    244 H244       -1.6566  -19.7652  -55.7393 H         1 UNK         0.0800 
    245 H245        0.0784  -19.9416  -55.7874 H         1 UNK         0.0800 
    246 H246        1.6066  -20.4642  -53.7667 H         1 UNK         0.0800 
    247 H247        1.1586  -18.7718  -53.7665 H         1 UNK         0.0800 
@<TRIPOS>BOND
     1    1    2 1    
     2    1  127 1    
     3    1  128 1    
     4    1  129 1    
     5    2    3 2    
     6    2    4 am   BACKBONE|DICT|INTERRES
     7    4    5 1    
     8    4  130 1    
     9    5    6 1    
    10    5   65 1    
    11    5  131 1    
    12    6    7 1    
    13    6  132 1    
    14    6  133 1    
    15    7    8 1    
    16    8    9 1    
    17    8  134 1    
    18    8  135 1    
    19    9   10 ar   
    20    9   14 ar   
    21   10   11 ar   
    22   10  136 1    
    23   11   12 ar   
    24   11  126 1    
    25   12   13 ar   
    26   12  137 1    
    27   13   14 ar   
    28   13   15 1    
    29   14  138 1    
    30   15   16 1    
    31   15  139 1    
    32   15  140 1    
    33   16   17 1    
    34   17   18 1    
    35   17  141 1    
    36   17  142 1    
    37   18   19 1    
    38   18   67 1    
    39   18  143 1    
    40   19   20 am   BACKBONE|DICT|INTERRES
    41   19  144 1    
    42   20   21 2    
    43   20   22 1    
    44   22   23 1    
    45   22   24 1    
    46   22  145 1    
    47   23  146 1    
    48   23  147 1    
    49   23  148 1    
    50   24   25 am   BACKBONE|DICT|INTERRES
    51   24  149 1    
    52   25   26 2    
    53   25   27 1    
    54   27   28 1    
    55   27   29 1    
    56   27  150 1    
    57   28  151 1    
    58   28  152 1    
    59   28  153 1    
    60   29   30 am   BACKBONE|DICT|INTERRES
    61   29  154 1    
    62   30   31 2    
    63   30   32 1    
    64   32   33 1    
    65   32   34 1    
    66   32  155 1    
    67   33  156 1    
    68   33  157 1    
    69   33  158 1    
    70   34   35 am   BACKBONE|DICT|INTERRES
    71   34  159 1    
    72   35   36 2    
    73   35   37 1    
    74   37   38 1    
    75   37   39 1    
    76   37  160 1    
    77   38  161 1    
    78   38  162 1    
    79   38  163 1    
    80   39   40 am   BACKBONE|DICT|INTERRES
    81   39  164 1    
    82   40   41 2    
    83   40   42 1    
    84   42   43 1    
    85   42   44 1    
    86   42  165 1    
    87   43  166 1    
    88   43  167 1    
    89   43  168 1    
    90   44   45 am   BACKBONE|DICT|INTERRES
    91   44  169 1    
    92   45   46 2    
    93   45   47 1    
    94   47   48 1    
    95   47   49 1    
    96   47  170 1    
    97   48  171 1    
    98   48  172 1    
    99   48  173 1    
   100   49   50 am   BACKBONE|DICT|INTERRES
   101   49  174 1    
   102   50   51 2    
   103   50   52 1    
   104   52   53 1    
   105   52   54 1    
   106   52  175 1    
   107   53  176 1    
   108   53  177 1    
   109   53  178 1    
   110   54   55 am   BACKBONE|DICT|INTERRES
   111   54  179 1    
   112   55   56 2    
   113   55   57 1    
   114   57   58 1    
   115   57   59 1    
   116   57  180 1    
   117   58  181 1    
   118   58  182 1    
   119   58  183 1    
   120   59   60 am   BACKBONE|DICT|INTERRES
   121   59  184 1    
   122   60   61 2    
   123   60   62 1    
   124   62   63 1    
   125   62   64 1    
   126   62  185 1    
   127   63  186 1    
   128   63  187 1    
   129   63  188 1    
   130   64   65 am   BACKBONE|DICT|INTERRES
   131   64  189 1    
   132   65   66 2    
   133   67   68 2    
   134   67   69 am   BACKBONE|DICT|INTERRES
   135   69   70 1    
   136   69  190 1    
   137   70   71 1    
   138   70   72 1    
   139   70  191 1    
   140   71  192 1    
   141   71  193 1    
   142   71  194 1    
   143   72   73 2    
   144   72   74 am   BACKBONE|DICT|INTERRES
   145   74   75 1    
   146   74  195 1    
   147   75   76 1    
   148   75   77 1    
   149   75  196 1    
   150   76  197 1    
   151   76  198 1    
   152   76  199 1    
   153   77   78 2    
   154   77   79 am   BACKBONE|DICT|INTERRES
   155   79   80 1    
   156   79  200 1    
   157   80   81 1    
   158   80   82 1    
   159   80  201 1    
   160   81  202 1    
   161   81  203 1    
   162   81  204 1    
   163   82   83 2    
   164   82   84 am   BACKBONE|DICT|INTERRES
   165   84   85 1    
   166   84  205 1    
   167   85   86 1    
   168   85   87 1    
   169   85  206 1    
   170   86  207 1    
   171   86  208 1    
   172   86  209 1    
   173   87   88 2    
   174   87   89 am   BACKBONE|DICT|INTERRES
   175   89   90 1    
   176   89  210 1    
   177   90   91 1    
   178   90   92 1    
   179   90  211 1    
   180   91  212 1    
   181   91  213 1    
   182   91  214 1    
   183   92   93 2    
   184   92   94 am   BACKBONE|DICT|INTERRES
   185   94   95 1    
   186   94  215 1    
   187   95   96 1    
   188   95   97 1    
   189   95  216 1    
   190   96  217 1    
   191   96  218 1    
   192   96  219 1    
   193   97   98 2    
   194   97   99 am   BACKBONE|DICT|INTERRES
   195   99  100 1    
   196   99  220 1    
   197  100  101 1    
   198  100  102 1    
   199  100  221 1    
   200  101  222 1    
   201  101  223 1    
   202  101  224 1    
   203  102  103 2    
   204  102  104 am   BACKBONE|DICT|INTERRES
   205  104  105 1    
   206  104  225 1    
   207  105  106 1    
   208  105  107 1    
   209  105  226 1    
   210  106  227 1    
   211  106  228 1    
   212  106  229 1    
   213  107  108 2    
   214  107  109 am   BACKBONE|DICT|INTERRES
   215  109  110 1    
   216  109  230 1    
   217  110  111 1    
   218  110  112 1    
   219  110  231 1    
   220  111  232 1    
   221  111  233 1    
   222  111  234 1    
   223  112  113 2    
   224  112  114 am   BACKBONE|DICT|INTERRES
   225  114  115 1    
   226  114  235 1    
   227  115  116 1    
   228  115  117 1    
   229  115  236 1    
   230  116  237 1    
   231  116  238 1    
   232  116  239 1    
   233  117  118 2    
   234  117  119 am   BACKBONE|DICT|INTERRES
   235  119  120 1    
   236  119  240 1    
   237  120  121 1    
   238  120  124 1    
   239  120  241 1    
   240  121  122 am   BACKBONE|DICT|INTERRES
   241  121  123 2    
   242  122  242 1    
   243  122  243 1    
   244  124  125 1    
   245  124  244 1    
   246  124  245 1    
   247  125  126 1    
   248  126  246 1    
   249  126  247 1    
@<TRIPOS>SUBSTRUCTURE
     1 UNK         1 GROUP             0       ****    0 ROOT    
