@<TRIPOS>MOLECULE
3R540
247   249    1
SMALL
USER_CHARGES


@<TRIPOS>ATOM
      1 CA         -4.5615  -13.3394  -49.0326 C.3       0 UNK        -0.1800 
      2 C          -3.0911  -13.0587  -49.3097 C.2       0 UNK         0.5000 
      3 O          -2.7762  -12.1734  -50.1056 O.2       0 UNK        -0.5000 
      4 N          -2.1935  -13.8135  -48.6652 N.am      1 UNK        -0.5000 
      5 CA         -0.7395  -13.6596  -48.7671 C.3       1 UNK         0.1400 
      6 C6          0.0129  -14.8448  -48.1156 C.3       23 UNK        -0.0398 
      7 S7         -0.2531  -16.4227  -48.9848 S.3       23 UNK        -0.2404 
      8 C8          1.1898  -16.4356  -50.0960 C.3       23 UNK        -0.0205 
      9 C9          1.4747  -17.8392  -50.5979 C.ar      23 UNK        -0.0193 
     10 C10         0.9894  -18.2700  -51.8349 C.ar      23 UNK        -0.1150 
     11 C11         1.2400  -19.5720  -52.2795 C.ar      23 UNK        -0.0193 
     12 C12         1.9749  -20.4446  -51.4681 C.ar      23 UNK        -0.1150 
     13 C13         2.4476  -20.0321  -50.2179 C.ar      23 UNK        -0.0193 
     14 C14         2.2167  -18.7161  -49.8050 C.ar      23 UNK        -0.1150 
     15 C15         3.1656  -21.0296  -49.3088 C.3       23 UNK        -0.0205 
     16 S16         2.7079  -20.8972  -47.5393 S.3       23 UNK        -0.2404 
     17 C17         0.8832  -20.9400  -47.6071 C.3       23 UNK        -0.0398 
     18 CA          0.2853  -22.1862  -46.9261 C.3       11 UNK         0.1400 
     19 N           0.4186  -22.1400  -45.4679 N.am      11 UNK        -0.5000 
     20 C           0.1678  -23.1732  -44.6539 C.2       10 UNK         0.5000 
     21 O          -0.1965  -24.2793  -45.0511 O.2       10 UNK        -0.5000 
     22 CA          0.2794  -22.9130  -43.1428 C.3       10 UNK         0.1400 
     23 CB          1.7479  -22.8299  -42.7006 C.3       10 UNK        -0.1800 
     24 N          -0.4390  -21.7038  -42.7407 N.am      10 UNK        -0.5000 
     25 C          -1.7677  -21.5511  -42.8422 C.2       9 UNK         0.5000 
     26 O          -2.5293  -22.4384  -43.2284 O.2       9 UNK        -0.5000 
     27 CA         -2.3435  -20.1697  -42.4826 C.3       9 UNK         0.1400 
     28 CB         -2.5475  -20.0505  -40.9652 C.3       9 UNK        -0.1800 
     29 N          -1.5199  -19.0577  -42.9625 N.am      9 UNK        -0.5000 
     30 C          -1.2790  -18.7903  -44.2550 C.2       8 UNK         0.5000 
     31 O          -1.7426  -19.4462  -45.1854 O.2       8 UNK        -0.5000 
     32 CA         -0.3108  -17.6347  -44.5650 C.3       8 UNK         0.1400 
     33 CB         -0.9959  -16.2713  -44.3888 C.3       8 UNK        -0.1800 
     34 N           0.8953  -17.6863  -43.7426 N.am      8 UNK        -0.5000 
     35 C           1.7707  -18.7009  -43.7328 C.2       7 UNK         0.5000 
     36 O           1.6768  -19.6984  -44.4475 O.2       7 UNK        -0.5000 
     37 CA          2.9081  -18.6077  -42.7038 C.3       7 UNK         0.1400 
     38 CB          4.0118  -17.6518  -43.1839 C.3       7 UNK        -0.1800 
     39 N           2.4153  -18.1791  -41.3944 N.am      7 UNK        -0.5000 
     40 C           1.6311  -18.9230  -40.6012 C.2       6 UNK         0.5000 
     41 O           1.2637  -20.0648  -40.8773 O.2       6 UNK        -0.5000 
     42 CA          1.1488  -18.2661  -39.2951 C.3       6 UNK         0.1400 
     43 CB          2.2264  -18.3691  -38.2053 C.3       6 UNK        -0.1800 
     44 N           0.7714  -16.8634  -39.4743 N.am      6 UNK        -0.5000 
     45 C          -0.2790  -16.4519  -40.1980 C.2       5 UNK         0.5000 
     46 O          -1.0514  -17.2132  -40.7779 O.2       5 UNK        -0.5000 
     47 CA         -0.4718  -14.9312  -40.3376 C.3       5 UNK         0.1400 
     48 CB         -1.2416  -14.3711  -39.1323 C.3       5 UNK        -0.1800 
     49 N           0.7796  -14.1861  -40.5066 N.am      5 UNK        -0.5000 
     50 C           1.6565  -14.3841  -41.4991 C.2       4 UNK         0.5000 
     51 O           1.5580  -15.2891  -42.3312 O.2       4 UNK        -0.5000 
     52 CA          2.8665  -13.4333  -41.5510 C.3       4 UNK         0.1400 
     53 CB          4.0312  -14.0163  -40.7360 C.3       4 UNK        -0.1800 
     54 N           3.3163  -13.2094  -42.9259 N.am      4 UNK        -0.5000 
     55 C           2.5835  -12.6223  -43.8808 C.2       3 UNK         0.5000 
     56 O           1.4907  -12.0847  -43.6759 O.2       3 UNK        -0.5000 
     57 CA          3.1672  -12.6616  -45.3012 C.3       3 UNK         0.1400 
     58 CB          3.2820  -14.1103  -45.8172 C.3       3 UNK        -0.1800 
     59 N           2.2995  -11.9041  -46.1961 N.am      3 UNK        -0.5000 
     60 C           2.6799  -11.2473  -47.2949 C.2       2 UNK         0.5000 
     61 O           3.8490  -11.1755  -47.6782 O.2       2 UNK        -0.5000 
     62 CA          1.5409  -10.6376  -48.1365 C.3       2 UNK         0.1400 
     63 CB          2.0535   -9.7269  -49.2668 C.3       2 UNK        -0.1800 
     64 N           0.7555  -11.7239  -48.7221 N.am      2 UNK        -0.5000 
     65 C          -0.2623  -12.3465  -48.1154 C.2       1 UNK         0.5000 
     66 O          -0.7548  -11.9733  -47.0477 O.2       1 UNK        -0.5000 
     67 C          -1.1725  -22.4050  -47.3833 C.2       11 UNK         0.5000 
     68 O          -1.3893  -23.1106  -48.3684 O.2       11 UNK        -0.5000 
     69 N          -2.1524  -21.8367  -46.6674 N.am      12 UNK        -0.5000 
     70 CA         -3.5821  -22.0391  -46.9212 C.3       12 UNK         0.1400 
     71 CB         -4.4094  -21.0866  -46.0466 C.3       12 UNK        -0.1800 
     72 C          -4.0359  -23.4981  -46.7199 C.2       12 UNK         0.5000 
     73 O          -4.9882  -23.9254  -47.3713 O.2       12 UNK        -0.5000 
     74 N          -3.3398  -24.2400  -45.8494 N.am      13 UNK        -0.5000 
     75 CA         -3.5395  -25.6709  -45.6469 C.3       13 UNK         0.1400 
     76 CB         -3.1933  -26.0321  -44.1933 C.3       13 UNK        -0.1800 
     77 C          -2.7039  -26.5015  -46.6377 C.2       13 UNK         0.5000 
     78 O          -3.2478  -27.3899  -47.2940 O.2       13 UNK        -0.5000 
     79 N          -1.3961  -26.2183  -46.7097 N.am      14 UNK        -0.5000 
     80 CA         -0.4120  -27.0387  -47.4172 C.3       14 UNK         0.1400 
     81 CB          0.9898  -26.7255  -46.8703 C.3       14 UNK        -0.1800 
     82 C          -0.4327  -26.8752  -48.9462 C.2       14 UNK         0.5000 
     83 O          -0.3065  -27.8723  -49.6584 O.2       14 UNK        -0.5000 
     84 N          -0.5597  -25.6310  -49.4216 N.am      15 UNK        -0.5000 
     85 CA         -0.4690  -25.2646  -50.8383 C.3       15 UNK         0.1400 
     86 CB          0.5795  -24.1470  -50.9818 C.3       15 UNK        -0.1800 
     87 C          -1.8223  -24.8112  -51.4154 C.2       15 UNK         0.5000 
     88 O          -1.9078  -24.5613  -52.6188 O.2       15 UNK        -0.5000 
     89 N          -2.8445  -24.6939  -50.5535 N.am      16 UNK        -0.5000 
     90 CA         -4.1724  -24.1356  -50.8290 C.3       16 UNK         0.1400 
     91 CB         -4.9623  -25.0316  -51.8059 C.3       16 UNK        -0.1800 
     92 C          -4.1013  -22.6583  -51.2701 C.2       16 UNK         0.5000 
     93 O          -4.8369  -22.2459  -52.1659 O.2       16 UNK        -0.5000 
     94 N          -3.1876  -21.8997  -50.6467 N.am      17 UNK        -0.5000 
     95 CA         -2.9013  -20.4992  -50.9556 C.3       17 UNK         0.1400 
     96 CB         -1.7215  -20.0247  -50.1027 C.3       17 UNK        -0.1800 
     97 C          -4.1023  -19.5537  -50.7875 C.2       17 UNK         0.5000 
     98 O          -5.0022  -19.8183  -49.9866 O.2       17 UNK        -0.5000 
     99 N          -4.0732  -18.4627  -51.5625 N.am      18 UNK        -0.5000 
    100 CA        -5.0677  -17.3947  -51.7046 C.3       18 UNK         0.1400 
    101 CB        -5.4170  -16.7340  -50.3577 C.3       18 UNK        -0.1800 
    102 C         -6.3254  -17.8345  -52.4754 C.2       18 UNK         0.5000 
    103 O         -6.7515  -17.1151  -53.3802 O.2       18 UNK        -0.5000 
    104 N         -6.8687  -19.0144  -52.1499 N.am      19 UNK        -0.5000 
    105 CA        -7.9787  -19.6713  -52.8405 C.3       19 UNK         0.1400 
    106 CB        -8.4176  -20.8957  -52.0198 C.3       19 UNK        -0.1800 
    107 C         -7.5788  -20.0562  -54.2787 C.2       19 UNK         0.5000 
    108 O         -6.9214  -21.0773  -54.4787 O.2       19 UNK        -0.5000 
    109 N         -7.9346  -19.1905  -55.2401 N.am      20 UNK        -0.5000 
    110 CA        -7.4975  -19.2057  -56.6430 C.3       20 UNK         0.1400 
    111 CB        -8.0499  -20.4389  -57.3887 C.3       20 UNK        -0.1800 
    112 C         -5.9656  -19.0463  -56.7748 C.2       20 UNK         0.5000 
    113 O         -5.3405  -19.6970  -57.6132 O.2       20 UNK        -0.5000 
    114 N         -5.3943  -18.1897  -55.9145 N.am      21 UNK        -0.5000 
    115 CA        -3.9718  -17.8960  -55.7055 C.3       21 UNK         0.1400 
    116 CB        -3.2698  -17.4230  -56.9931 C.3       21 UNK        -0.1800 
    117 C         -3.2022  -19.0402  -55.0197 C.2       21 UNK         0.5000 
    118 O         -2.5645  -18.7907  -53.9969 O.2       21 UNK        -0.5000 
    119 N         -3.2957  -20.2575  -55.5617 N.am      22 UNK        -0.5000 
    120 CA        -2.7099  -21.4935  -55.0278 C.3       22 UNK         0.1400 
    121 C         -3.3618  -22.7438  -55.6769 C.2       22 UNK         0.5000 
    122 N         -3.1816  -23.9205  -55.0932 N.am      22 UNK        -0.7600 
    123 O         -3.9965  -22.6717  -56.7272 O.2       22 UNK        -0.5000 
    124 C124       -1.1532  -21.5241  -55.1358 C.3       23 UNK        -0.0398 
    125 S125       -0.3563  -21.4940  -53.4964 S.3       23 UNK        -0.2404 
    126 C126        0.7132  -20.0277  -53.6340 C.3       23 UNK        -0.0205 
    127 H127       -4.6938  -14.1930  -48.3671 H         1 UNK         0.0600 
    128 H128       -5.0277  -12.4703  -48.5685 H         1 UNK         0.0600 
    129 H129       -5.0850  -13.5505  -49.9650 H         1 UNK         0.0600 
    130 H130       -2.5122  -14.5192  -48.0178 H         1 UNK         0.3000 
    131 H131       -0.4820  -13.6275  -49.8282 H         1 UNK         0.0600 
    132 H132        1.0858  -14.6501  -48.0673 H         1 UNK         0.0800 
    133 H133       -0.3066  -14.9728  -47.0803 H         1 UNK         0.0800 
    134 H134        2.0726  -16.0613  -49.5756 H         1 UNK         0.0800 
    135 H135        1.0109  -15.7568  -50.9311 H         1 UNK         0.0800 
    136 H136        0.4096  -17.5932  -52.4468 H         1 UNK         0.1150 
    137 H137        2.1529  -21.4569  -51.8033 H         1 UNK         0.1150 
    138 H138        2.5794  -18.3813  -48.8434 H         1 UNK         0.1150 
    139 H139        2.9609  -22.0505  -49.6351 H         1 UNK         0.0800 
    140 H140        4.2416  -20.8820  -49.4068 H         1 UNK         0.0800 
    141 H141        0.5810  -20.9120  -48.6504 H         1 UNK         0.0800 
    142 H142        0.4924  -20.0258  -47.1562 H         1 UNK         0.0800 
    143 H143        0.8456  -23.0568  -47.2747 H         1 UNK         0.0600 
    144 H144        0.7437  -21.2619  -45.0697 H         1 UNK         0.3000 
    145 H145       -0.1785  -23.7598  -42.6272 H         1 UNK         0.0600 
    146 H146        1.8270  -22.7330  -41.6178 H         1 UNK         0.0600 
    147 H147        2.2928  -23.7302  -42.9871 H         1 UNK         0.0600 
    148 H148        2.2605  -21.9793  -43.1496 H         1 UNK         0.0600 
    149 H149        0.1195  -20.9428  -42.3697 H         1 UNK         0.3000 
    150 H150       -3.3212  -20.0858  -42.9611 H         1 UNK         0.0600 
    151 H151       -3.1572  -20.8715  -40.5859 H         1 UNK         0.0600 
    152 H152       -3.0581  -19.1224  -40.7085 H         1 UNK         0.0600 
    153 H153       -1.5979  -20.0700  -40.4292 H         1 UNK         0.0600 
    154 H154       -1.1328  -18.4441  -42.2506 H         1 UNK         0.3000 
    155 H155       -0.0021  -17.7275  -45.6086 H         1 UNK         0.0600 
    156 H156       -1.3397  -16.1227  -43.3650 H         1 UNK         0.0600 
    157 H157       -1.8631  -16.1834  -45.0442 H         1 UNK         0.0600 
    158 H158       -0.3166  -15.4537  -44.6315 H         1 UNK         0.0600 
    159 H159        1.0696  -16.8874  -43.1365 H         1 UNK         0.3000 
    160 H160        3.3445  -19.6029  -42.5953 H         1 UNK         0.0600 
    161 H161        4.8418  -17.6218  -42.4780 H         1 UNK         0.0600 
    162 H162        3.6434  -16.6337  -43.3115 H         1 UNK         0.0600 
    163 H163        4.4135  -17.9757  -44.1448 H         1 UNK         0.0600 
    164 H164        2.6119  -17.2267  -41.1253 H         1 UNK         0.3000 
    165 H165        0.2671  -18.8134  -38.9547 H         1 UNK         0.0600 
    166 H166        1.8632  -17.9795  -37.2541 H         1 UNK         0.0600 
    167 H167        2.5159  -19.4079  -38.0406 H         1 UNK         0.0600 
    168 H168        3.1272  -17.8156  -38.4734 H         1 UNK         0.0600 
    169 H169        1.3585  -16.1687  -39.0371 H         1 UNK         0.3000 
    170 H170       -1.0744  -14.7614  -41.2322 H         1 UNK         0.0600 
    171 H171       -2.1871  -14.8975  -38.9940 H         1 UNK         0.0600 
    172 H172       -0.6718  -14.4712  -38.2076 H         1 UNK         0.0600 
    173 H173       -1.4769  -13.3156  -39.2699 H         1 UNK         0.0600 
    174 H174        0.9423  -13.4325  -39.8544 H         1 UNK         0.3000 
    175 H175        2.5796  -12.4702  -41.1238 H         1 UNK         0.0600 
    176 H176        4.3609  -14.9770  -41.1343 H         1 UNK         0.0600 
    177 H177        4.8880  -13.3422  -40.7344 H         1 UNK         0.0600 
    178 H178        3.7427  -14.1739  -39.6960 H         1 UNK         0.0600 
    179 H179        4.1909  -13.6422  -43.1825 H         1 UNK         0.3000 
    180 H180        4.1568  -12.2011  -45.2702 H         1 UNK         0.0600 
    181 H181        2.3194  -14.6230  -45.7881 H         1 UNK         0.0600 
    182 H182        3.9797  -14.6930  -45.2152 H         1 UNK         0.0600 
    183 H183        3.6453  -14.1385  -46.8446 H         1 UNK         0.0600 
    184 H184        1.3257  -11.8768  -45.9135 H         1 UNK         0.3000 
    185 H185        0.9163  -10.0331  -47.4751 H         1 UNK         0.0600 
    186 H186        2.6486   -8.9055  -48.8657 H         1 UNK         0.0600 
    187 H187        2.6783  -10.2710  -49.9762 H         1 UNK         0.0600 
    188 H188        1.2249   -9.2861  -49.8215 H         1 UNK         0.0600 
    189 H189        1.1190  -12.1082  -49.5826 H         1 UNK         0.3000 
    190 H190       -1.9125  -21.1887  -45.9213 H         1 UNK         0.3000 
    191 H191       -3.7762  -21.7794  -47.9625 H         1 UNK         0.0600 
    192 H192       -4.2359  -21.2610  -44.9852 H         1 UNK         0.0600 
    193 H193       -5.4766  -21.2151  -46.2311 H         1 UNK         0.0600 
    194 H194       -4.1688  -20.0457  -46.2626 H         1 UNK         0.0600 
    195 H195       -2.5821  -23.8061  -45.3380 H         1 UNK         0.3000 
    196 H196       -4.5916  -25.9183  -45.8049 H         1 UNK         0.0600 
    197 H197       -3.3410  -27.0971  -44.0100 H         1 UNK         0.0600 
    198 H198       -3.8293  -25.4897  -43.4934 H         1 UNK         0.0600 
    199 H199       -2.1572  -25.7970  -43.9485 H         1 UNK         0.0600 
    200 H200       -1.0202  -25.4762  -46.1218 H         1 UNK         0.3000 
    201 H201       -0.6256  -28.0870  -47.1969 H         1 UNK         0.0600 
    202 H202        1.0455  -26.9140  -45.7980 H         1 UNK         0.0600 
    203 H203        1.2653  -25.6840  -47.0404 H         1 UNK         0.0600 
    204 H204        1.7460  -27.3483  -47.3499 H         1 UNK         0.0600 
    205 H205       -0.7060  -24.8591  -48.7780 H         1 UNK         0.3000 
    206 H206       -0.1363  -26.1156  -51.4357 H         1 UNK         0.0600 
    207 H207        1.5348  -24.4411  -50.5473 H         1 UNK         0.0600 
    208 H208        0.7604  -23.9176  -52.0322 H         1 UNK         0.0600 
    209 H209        0.2603  -23.2236  -50.4971 H         1 UNK         0.0600 
    210 H210       -2.6521  -24.9091  -49.5857 H         1 UNK         0.3000 
    211 H211       -4.7129  -24.1416  -49.8846 H         1 UNK         0.0600 
    212 H212       -4.5253  -25.0330  -52.8039 H         1 UNK         0.0600 
    213 H213       -5.9920  -24.6860  -51.9037 H         1 UNK         0.0600 
    214 H214       -4.9983  -26.0622  -51.4534 H         1 UNK         0.0600 
    215 H215       -2.6108  -22.3317  -49.9353 H         1 UNK         0.3000 
    216 H216       -2.5956  -20.4629  -51.9991 H         1 UNK         0.0600 
    217 H217       -1.4576  -18.9930  -50.3364 H         1 UNK         0.0600 
    218 H218       -0.8424  -20.6333  -50.3073 H         1 UNK         0.0600 
    219 H219       -1.9444  -20.0712  -49.0370 H         1 UNK         0.0600 
    220 H220       -3.3157  -18.4121  -52.2395 H         1 UNK         0.3000 
    221 H221       -4.5806  -16.6336  -52.3163 H         1 UNK         0.0600 
    222 H222       -5.9599  -17.4083  -49.6954 H         1 UNK         0.0600 
    223 H223       -4.5181  -16.4028  -49.8376 H         1 UNK         0.0600 
    224 H224       -6.0480  -15.8580  -50.5111 H         1 UNK         0.0600 
    225 H225       -6.4187  -19.5438  -51.4105 H         1 UNK         0.3000 
    226 H226       -8.8190  -18.9752  -52.8826 H         1 UNK         0.0600 
    227 H227       -8.7665  -20.6018  -51.0298 H         1 UNK         0.0600 
    228 H228       -9.2365  -21.4219  -52.5118 H         1 UNK         0.0600 
    229 H229       -7.6011  -21.6072  -51.8880 H         1 UNK         0.0600 
    230 H230       -8.4411  -18.3619  -54.9578 H         1 UNK         0.3000 
    231 H231       -7.9336  -18.3208  -57.1086 H         1 UNK         0.0600 
    232 H232       -9.1298  -20.5226  -57.2676 H         1 UNK         0.0600 
    233 H233       -7.5987  -21.3660  -57.0339 H         1 UNK         0.0600 
    234 H234       -7.8481  -20.3690  -58.4582 H         1 UNK         0.0600 
    235 H235       -6.0114  -17.7443  -55.2435 H         1 UNK         0.3000 
    236 H236       -3.9570  -17.0546  -55.0108 H         1 UNK         0.0600 
    237 H237       -2.2563  -17.0837  -56.7758 H         1 UNK         0.0600 
    238 H238       -3.1902  -18.2164  -57.7363 H         1 UNK         0.0600 
    239 H239       -3.8019  -16.5877  -57.4482 H         1 UNK         0.0600 
    240 H240       -3.8867  -20.3852  -56.3795 H         1 UNK         0.3000 
    241 H241       -3.0118  -21.5379  -53.9820 H         1 UNK         0.0600 
    242 H242       -3.5877  -24.7390  -55.5165 H         1 UNK         0.3800 
    243 H243       -2.6651  -24.0201  -54.2201 H         1 UNK         0.3800 
    244 H244       -0.7868  -20.6948  -55.7420 H         1 UNK         0.0800 
    245 H245       -0.7922  -22.4197  -55.6449 H         1 UNK         0.0800 
    246 H246        0.1521  -19.2220  -54.1097 H         1 UNK         0.0800 
    247 H247        1.5539  -20.2545  -54.2905 H         1 UNK         0.0800 
@<TRIPOS>BOND
     1    1    2 1    
     2    1  127 1    
     3    1  128 1    
     4    1  129 1    
     5    2    3 2    
     6    2    4 am   BACKBONE|DICT|INTERRES
     7    4    5 1    
     8    4  130 1    
     9    5    6 1    
    10    5   65 1    
    11    5  131 1    
    12    6    7 1    
    13    6  132 1    
    14    6  133 1    
    15    7    8 1    
    16    8    9 1    
    17    8  134 1    
    18    8  135 1    
    19    9   10 ar   
    20    9   14 ar   
    21   10   11 ar   
    22   10  136 1    
    23   11   12 ar   
    24   11  126 1    
    25   12   13 ar   
    26   12  137 1    
    27   13   14 ar   
    28   13   15 1    
    29   14  138 1    
    30   15   16 1    
    31   15  139 1    
    32   15  140 1    
    33   16   17 1    
    34   17   18 1    
    35   17  141 1    
    36   17  142 1    
    37   18   19 1    
    38   18   67 1    
    39   18  143 1    
    40   19   20 am   BACKBONE|DICT|INTERRES
    41   19  144 1    
    42   20   21 2    
    43   20   22 1    
    44   22   23 1    
    45   22   24 1    
    46   22  145 1    
    47   23  146 1    
    48   23  147 1    
    49   23  148 1    
    50   24   25 am   BACKBONE|DICT|INTERRES
    51   24  149 1    
    52   25   26 2    
    53   25   27 1    
    54   27   28 1    
    55   27   29 1    
    56   27  150 1    
    57   28  151 1    
    58   28  152 1    
    59   28  153 1    
    60   29   30 am   BACKBONE|DICT|INTERRES
    61   29  154 1    
    62   30   31 2    
    63   30   32 1    
    64   32   33 1    
    65   32   34 1    
    66   32  155 1    
    67   33  156 1    
    68   33  157 1    
    69   33  158 1    
    70   34   35 am   BACKBONE|DICT|INTERRES
    71   34  159 1    
    72   35   36 2    
    73   35   37 1    
    74   37   38 1    
    75   37   39 1    
    76   37  160 1    
    77   38  161 1    
    78   38  162 1    
    79   38  163 1    
    80   39   40 am   BACKBONE|DICT|INTERRES
    81   39  164 1    
    82   40   41 2    
    83   40   42 1    
    84   42   43 1    
    85   42   44 1    
    86   42  165 1    
    87   43  166 1    
    88   43  167 1    
    89   43  168 1    
    90   44   45 am   BACKBONE|DICT|INTERRES
    91   44  169 1    
    92   45   46 2    
    93   45   47 1    
    94   47   48 1    
    95   47   49 1    
    96   47  170 1    
    97   48  171 1    
    98   48  172 1    
    99   48  173 1    
   100   49   50 am   BACKBONE|DICT|INTERRES
   101   49  174 1    
   102   50   51 2    
   103   50   52 1    
   104   52   53 1    
   105   52   54 1    
   106   52  175 1    
   107   53  176 1    
   108   53  177 1    
   109   53  178 1    
   110   54   55 am   BACKBONE|DICT|INTERRES
   111   54  179 1    
   112   55   56 2    
   113   55   57 1    
   114   57   58 1    
   115   57   59 1    
   116   57  180 1    
   117   58  181 1    
   118   58  182 1    
   119   58  183 1    
   120   59   60 am   BACKBONE|DICT|INTERRES
   121   59  184 1    
   122   60   61 2    
   123   60   62 1    
   124   62   63 1    
   125   62   64 1    
   126   62  185 1    
   127   63  186 1    
   128   63  187 1    
   129   63  188 1    
   130   64   65 am   BACKBONE|DICT|INTERRES
   131   64  189 1    
   132   65   66 2    
   133   67   68 2    
   134   67   69 am   BACKBONE|DICT|INTERRES
   135   69   70 1    
   136   69  190 1    
   137   70   71 1    
   138   70   72 1    
   139   70  191 1    
   140   71  192 1    
   141   71  193 1    
   142   71  194 1    
   143   72   73 2    
   144   72   74 am   BACKBONE|DICT|INTERRES
   145   74   75 1    
   146   74  195 1    
   147   75   76 1    
   148   75   77 1    
   149   75  196 1    
   150   76  197 1    
   151   76  198 1    
   152   76  199 1    
   153   77   78 2    
   154   77   79 am   BACKBONE|DICT|INTERRES
   155   79   80 1    
   156   79  200 1    
   157   80   81 1    
   158   80   82 1    
   159   80  201 1    
   160   81  202 1    
   161   81  203 1    
   162   81  204 1    
   163   82   83 2    
   164   82   84 am   BACKBONE|DICT|INTERRES
   165   84   85 1    
   166   84  205 1    
   167   85   86 1    
   168   85   87 1    
   169   85  206 1    
   170   86  207 1    
   171   86  208 1    
   172   86  209 1    
   173   87   88 2    
   174   87   89 am   BACKBONE|DICT|INTERRES
   175   89   90 1    
   176   89  210 1    
   177   90   91 1    
   178   90   92 1    
   179   90  211 1    
   180   91  212 1    
   181   91  213 1    
   182   91  214 1    
   183   92   93 2    
   184   92   94 am   BACKBONE|DICT|INTERRES
   185   94   95 1    
   186   94  215 1    
   187   95   96 1    
   188   95   97 1    
   189   95  216 1    
   190   96  217 1    
   191   96  218 1    
   192   96  219 1    
   193   97   98 2    
   194   97   99 am   BACKBONE|DICT|INTERRES
   195   99  100 1    
   196   99  220 1    
   197  100  101 1    
   198  100  102 1    
   199  100  221 1    
   200  101  222 1    
   201  101  223 1    
   202  101  224 1    
   203  102  103 2    
   204  102  104 am   BACKBONE|DICT|INTERRES
   205  104  105 1    
   206  104  225 1    
   207  105  106 1    
   208  105  107 1    
   209  105  226 1    
   210  106  227 1    
   211  106  228 1    
   212  106  229 1    
   213  107  108 2    
   214  107  109 am   BACKBONE|DICT|INTERRES
   215  109  110 1    
   216  109  230 1    
   217  110  111 1    
   218  110  112 1    
   219  110  231 1    
   220  111  232 1    
   221  111  233 1    
   222  111  234 1    
   223  112  113 2    
   224  112  114 am   BACKBONE|DICT|INTERRES
   225  114  115 1    
   226  114  235 1    
   227  115  116 1    
   228  115  117 1    
   229  115  236 1    
   230  116  237 1    
   231  116  238 1    
   232  116  239 1    
   233  117  118 2    
   234  117  119 am   BACKBONE|DICT|INTERRES
   235  119  120 1    
   236  119  240 1    
   237  120  121 1    
   238  120  124 1    
   239  120  241 1    
   240  121  122 am   BACKBONE|DICT|INTERRES
   241  121  123 2    
   242  122  242 1    
   243  122  243 1    
   244  124  125 1    
   245  124  244 1    
   246  124  245 1    
   247  125  126 1    
   248  126  246 1    
   249  126  247 1    
@<TRIPOS>SUBSTRUCTURE
     1 UNK         1 GROUP             0       ****    0 ROOT    
