@<TRIPOS>MOLECULE
3R540
247   249    1
SMALL
USER_CHARGES


@<TRIPOS>ATOM
      1 CA          0.1314  -17.2988  -49.5073 C.3       0 UNK        -0.1800 
      2 C           0.7895  -15.9798  -49.1405 C.2       0 UNK         0.5000 
      3 O           0.1886  -15.1519  -48.4559 O.2       0 UNK        -0.5000 
      4 N           2.0236  -15.7776  -49.6121 N.am      1 UNK        -0.5000 
      5 CA          2.7646  -14.5182  -49.4772 C.3       1 UNK         0.1400 
      6 C6          3.8539  -14.3592  -50.5652 C.3       23 UNK        -0.0398 
      7 S7          3.1923  -14.5546  -52.2579 S.3       23 UNK        -0.2404 
      8 C8          4.0930  -16.0205  -52.8548 C.3       23 UNK        -0.0205 
      9 C9          3.6217  -17.3141  -52.2029 C.ar      23 UNK        -0.0193 
     10 C10         2.5443  -18.0243  -52.7432 C.ar      23 UNK        -0.1150 
     11 C11         2.1612  -19.2534  -52.1977 C.ar      23 UNK        -0.0193 
     12 C12         2.8502  -19.7601  -51.0930 C.ar      23 UNK        -0.1150 
     13 C13         3.9192  -19.0552  -50.5332 C.ar      23 UNK        -0.0193 
     14 C14         4.3001  -17.8334  -51.0954 C.ar      23 UNK        -0.1150 
     15 C15         4.6995  -19.6305  -49.3584 C.3       23 UNK        -0.0205 
     16 S16         3.7954  -19.4727  -47.7869 S.3       23 UNK        -0.2404 
     17 C17         2.9213  -21.0693  -47.6925 C.3       23 UNK        -0.0398 
     18 CA          3.5261  -22.0378  -46.6443 C.3       11 UNK         0.1400 
     19 N           3.4326  -21.5069  -45.2778 N.am      11 UNK        -0.5000 
     20 C           4.4312  -21.5355  -44.3865 C.2       10 UNK         0.5000 
     21 O           5.5555  -21.9754  -44.6302 O.2       10 UNK        -0.5000 
     22 CA          4.1273  -21.0006  -42.9750 C.3       10 UNK         0.1400 
     23 CB          4.3336  -19.4796  -42.9053 C.3       10 UNK        -0.1800 
     24 N           2.7893  -21.3381  -42.4808 N.am      10 UNK        -0.5000 
     25 C           2.4102  -22.5746  -42.1213 C.2       9 UNK         0.5000 
     26 O           3.1005  -23.5779  -42.2993 O.2       9 UNK        -0.5000 
     27 CA          1.0391  -22.7205  -41.4416 C.3       9 UNK         0.1400 
     28 CB          1.1049  -22.2303  -39.9864 C.3       9 UNK        -0.1800 
     29 N           0.0173  -21.9617  -42.1551 N.am      9 UNK        -0.5000 
     30 C          -0.9492  -22.4965  -42.9143 C.2       8 UNK         0.5000 
     31 O          -1.1322  -23.7056  -43.0519 O.2       8 UNK        -0.5000 
     32 CA         -1.8532  -21.5112  -43.6806 C.3       8 UNK         0.1400 
     33 CB         -3.0946  -21.1769  -42.8409 C.3       8 UNK        -0.1800 
     34 N          -1.1701  -20.2707  -44.0453 N.am      8 UNK        -0.5000 
     35 C          -0.0622  -20.1911  -44.7966 C.2       7 UNK         0.5000 
     36 O           0.4440  -21.1587  -45.3675 O.2       7 UNK        -0.5000 
     37 CA          0.6492  -18.8277  -44.8624 C.3       7 UNK         0.1400 
     38 CB          0.4212  -18.1692  -46.2248 C.3       7 UNK        -0.1800 
     39 N           0.2553  -17.9089  -43.7908 N.am      7 UNK        -0.5000 
     40 C           0.4970  -18.1046  -42.4841 C.2       6 UNK         0.5000 
     41 O           1.0818  -19.1005  -42.0518 O.2       6 UNK        -0.5000 
     42 CA         -0.0590  -17.0701  -41.4837 C.3       6 UNK         0.1400 
     43 CB          1.0484  -16.1417  -40.9712 C.3       6 UNK        -0.1800 
     44 N          -1.1580  -16.2658  -42.0221 N.am      6 UNK        -0.5000 
     45 C          -2.3790  -16.7501  -42.2922 C.2       5 UNK         0.5000 
     46 O          -2.7083  -17.9156  -42.0716 O.2       5 UNK        -0.5000 
     47 CA         -3.3935  -15.7943  -42.9510 C.3       5 UNK         0.1400 
     48 CB         -4.3073  -15.1665  -41.8879 C.3       5 UNK        -0.1800 
     49 N          -2.7891  -14.7255  -43.7507 N.am      5 UNK        -0.5000 
     50 C          -1.9906  -14.9041  -44.8123 C.2       4 UNK         0.5000 
     51 O          -1.6463  -16.0113  -45.2195 O.2       4 UNK        -0.5000 
     52 CA         -1.4735  -13.6443  -45.5339 C.3       4 UNK         0.1400 
     53 CB         -2.3281  -12.3837  -45.2726 C.3       4 UNK        -0.1800 
     54 N          -0.0642  -13.3675  -45.2417 N.am      4 UNK        -0.5000 
     55 C           0.5006  -13.1869  -44.0382 C.2       3 UNK         0.5000 
     56 O          -0.0949  -13.3259  -42.9669 O.2       3 UNK        -0.5000 
     57 CA          1.9804  -12.7483  -44.0587 C.3       3 UNK         0.1400 
     58 CB          2.6202  -12.6662  -42.6568 C.3       3 UNK        -0.1800 
     59 N           2.8146  -13.5460  -44.9632 N.am      3 UNK        -0.5000 
     60 C           3.0447  -14.8643  -44.9059 C.2       2 UNK         0.5000 
     61 O           2.5099  -15.6225  -44.0983 O.2       2 UNK        -0.5000 
     62 CA          4.0485  -15.4182  -45.9362 C.3       2 UNK         0.1400 
     63 CB          4.5132  -16.8415  -45.5873 C.3       2 UNK        -0.1800 
     64 N           3.4993  -15.4108  -47.2928 N.am      2 UNK        -0.5000 
     65 C           3.3704  -14.3260  -48.0705 C.2       1 UNK         0.5000 
     66 O           3.7120  -13.1968  -47.7139 O.2       1 UNK        -0.5000 
     67 C           2.8237  -23.4066  -46.7547 C.2       11 UNK         0.5000 
     68 O           3.0375  -24.1064  -47.7450 O.2       11 UNK        -0.5000 
     69 N           1.9656  -23.7364  -45.7747 N.am      12 UNK        -0.5000 
     70 CA          0.9755  -24.8199  -45.7923 C.3       12 UNK         0.1400 
     71 CB          1.6557  -26.2043  -45.8173 C.3       12 UNK        -0.1800 
     72 C          -0.0656  -24.6252  -46.9190 C.2       12 UNK         0.5000 
     73 O          -0.5224  -25.5976  -47.5215 O.2       12 UNK        -0.5000 
     74 N          -0.4032  -23.3570  -47.1972 N.am      13 UNK        -0.5000 
     75 CA         -1.2335  -22.9354  -48.3279 C.3       13 UNK         0.1400 
     76 CB         -0.8367  -21.4994  -48.7095 C.3       13 UNK        -0.1800 
     77 C          -2.7479  -23.0226  -48.0607 C.2       13 UNK         0.5000 
     78 O          -3.5314  -22.7539  -48.9724 O.2       13 UNK        -0.5000 
     79 N          -3.1406  -23.3566  -46.8221 N.am      14 UNK        -0.5000 
     80 CA         -4.5123  -23.3391  -46.3043 C.3       14 UNK         0.1400 
     81 CB         -5.3579  -24.4591  -46.9528 C.3       14 UNK        -0.1800 
     82 C          -5.1176  -21.9247  -46.4320 C.2       14 UNK         0.5000 
     83 O          -4.5534  -20.9853  -45.8717 O.2       14 UNK        -0.5000 
     84 N          -6.2141  -21.7793  -47.1873 N.am      15 UNK        -0.5000 
     85 CA         -6.8475  -20.4908  -47.4827 C.3       15 UNK         0.1400 
     86 CB         -8.3469  -20.7134  -47.7405 C.3       15 UNK        -0.1800 
     87 C          -6.1651  -19.7182  -48.6366 C.2       15 UNK         0.5000 
     88 O          -6.6418  -18.6402  -48.9954 O.2       15 UNK        -0.5000 
     89 N          -5.0705  -20.2623  -49.1942 N.am      16 UNK        -0.5000 
     90 CA         -4.1769  -19.6609  -50.1867 C.3       16 UNK         0.1400 
     91 CB         -3.3774  -18.5024  -49.5531 C.3       16 UNK        -0.1800 
     92 C          -4.9162  -19.2819  -51.4806 C.2       16 UNK         0.5000 
     93 O          -5.3068  -20.1760  -52.2323 O.2       16 UNK        -0.5000 
     94 N          -5.1189  -17.9804  -51.7184 N.am      17 UNK        -0.5000 
     95 CA         -5.8504  -17.4479  -52.8682 C.3       17 UNK         0.1400 
     96 CB         -5.7182  -15.9186  -52.8887 C.3       17 UNK        -0.1800 
     97 C          -7.3312  -17.8707  -52.8994 C.2       17 UNK         0.5000 
     98 O          -7.8711  -18.0903  -53.9833 O.2       17 UNK        -0.5000 
     99 N          -7.9496  -18.0283  -51.7198 N.am      18 UNK        -0.5000 
    100 CA        -9.3293  -18.5008  -51.5784 C.3       18 UNK         0.1400 
    101 CB        -9.8942  -18.0297  -50.2313 C.3       18 UNK        -0.1800 
    102 C         -9.4581  -20.0289  -51.7407 C.2       18 UNK         0.5000 
    103 O        -10.5448  -20.5089  -52.0637 O.2       18 UNK        -0.5000 
    104 N         -8.3511  -20.7629  -51.5529 N.am      19 UNK        -0.5000 
    105 CA        -8.2437  -22.1948  -51.8507 C.3       19 UNK         0.1400 
    106 CB        -7.1855  -22.8275  -50.9272 C.3       19 UNK        -0.1800 
    107 C         -7.8810  -22.4588  -53.3266 C.2       19 UNK         0.5000 
    108 O         -7.9218  -23.6118  -53.7565 O.2       19 UNK        -0.5000 
    109 N         -7.4924  -21.3992  -54.0550 N.am      20 UNK        -0.5000 
    110 CA        -6.8917  -21.3977  -55.3938 C.3       20 UNK         0.1400 
    111 CB        -7.8752  -21.9391  -56.4520 C.3       20 UNK        -0.1800 
    112 C         -5.5138  -22.0970  -55.4309 C.2       20 UNK         0.5000 
    113 O         -5.0913  -22.5758  -56.4847 O.2       20 UNK        -0.5000 
    114 N         -4.8342  -22.1354  -54.2770 N.am      21 UNK        -0.5000 
    115 CA        -3.5004  -22.7039  -54.1006 C.3       21 UNK         0.1400 
    116 CB        -3.3568  -23.1852  -52.6474 C.3       21 UNK        -0.1800 
    117 C         -2.3976  -21.6868  -54.4396 C.2       21 UNK         0.5000 
    118 O         -1.2961  -22.0945  -54.8107 O.2       21 UNK        -0.5000 
    119 N         -2.7136  -20.3929  -54.3068 N.am      22 UNK        -0.5000 
    120 CA        -1.8203  -19.2588  -54.5777 C.3       22 UNK         0.1400 
    121 C         -2.5003  -18.2284  -55.5187 C.2       22 UNK         0.5000 
    122 N         -1.7383  -17.3080  -56.0934 N.am      22 UNK        -0.7600 
    123 O         -3.7114  -18.2412  -55.7289 O.2       22 UNK        -0.5000 
    124 C124       -1.3120  -18.5799  -53.2730 C.3       23 UNK        -0.0398 
    125 S125       -0.5726  -19.7419  -52.0735 S.3       23 UNK        -0.2404 
    126 C126        1.0479  -20.0743  -52.8296 C.3       23 UNK        -0.0205 
    127 H127       -0.6554  -17.5472  -48.7971 H         1 UNK         0.0600 
    128 H128        0.8542  -18.1151  -49.5173 H         1 UNK         0.0600 
    129 H129       -0.3167  -17.2210  -50.4970 H         1 UNK         0.0600 
    130 H130        2.4581  -16.4845  -50.1906 H         1 UNK         0.3000 
    131 H131        2.0530  -13.7013  -49.6175 H         1 UNK         0.0600 
    132 H132        4.2996  -13.3647  -50.5042 H         1 UNK         0.0800 
    133 H133        4.6730  -15.0591  -50.4004 H         1 UNK         0.0800 
    134 H134        5.1637  -15.8808  -52.6975 H         1 UNK         0.0800 
    135 H135        3.9589  -16.0919  -53.9352 H         1 UNK         0.0800 
    136 H136        2.0254  -17.6351  -53.6078 H         1 UNK         0.1150 
    137 H137        2.5601  -20.7169  -50.6871 H         1 UNK         0.1150 
    138 H138        5.1468  -17.3013  -50.6860 H         1 UNK         0.1150 
    139 H139        4.9515  -20.6743  -49.5510 H         1 UNK         0.0800 
    140 H140        5.6531  -19.1110  -49.2530 H         1 UNK         0.0800 
    141 H141        1.8765  -20.8627  -47.4688 H         1 UNK         0.0800 
    142 H142        2.9249  -21.5350  -48.6774 H         1 UNK         0.0800 
    143 H143        4.5712  -22.2023  -46.9147 H         1 UNK         0.0600 
    144 H144        2.5303  -21.1423  -45.0048 H         1 UNK         0.3000 
    145 H145        4.8517  -21.4582  -42.2976 H         1 UNK         0.0600 
    146 H146        4.2292  -19.1151  -41.8832 H         1 UNK         0.0600 
    147 H147        3.6159  -18.9417  -43.5220 H         1 UNK         0.0600 
    148 H148        5.3315  -19.2037  -43.2484 H         1 UNK         0.0600 
    149 H149        2.1741  -20.5523  -42.2821 H         1 UNK         0.3000 
    150 H150        0.7869  -23.7830  -41.4262 H         1 UNK         0.0600 
    151 H151        1.8684  -22.7710  -39.4256 H         1 UNK         0.0600 
    152 H152        0.1543  -22.3886  -39.4768 H         1 UNK         0.0600 
    153 H153        1.3423  -21.1672  -39.9263 H         1 UNK         0.0600 
    154 H154        0.1048  -20.9528  -42.1217 H         1 UNK         0.3000 
    155 H155       -2.1743  -21.9934  -44.6037 H         1 UNK         0.0600 
    156 H156       -3.6784  -22.0743  -42.6331 H         1 UNK         0.0600 
    157 H157       -3.7486  -20.4757  -43.3591 H         1 UNK         0.0600 
    158 H158       -2.8237  -20.7303  -41.8833 H         1 UNK         0.0600 
    159 H159       -1.5185  -19.4246  -43.6143 H         1 UNK         0.3000 
    160 H160        1.7181  -19.0128  -44.7617 H         1 UNK         0.0600 
    161 H161       -0.6411  -18.0532  -46.4397 H         1 UNK         0.0600 
    162 H162        0.8490  -18.7717  -47.0250 H         1 UNK         0.0600 
    163 H163        0.8876  -17.1847  -46.2716 H         1 UNK         0.0600 
    164 H164       -0.2606  -17.0845  -44.0790 H         1 UNK         0.3000 
    165 H165       -0.4404  -17.6326  -40.6289 H         1 UNK         0.0600 
    166 H166        0.6881  -15.5069  -40.1616 H         1 UNK         0.0600 
    167 H167        1.8965  -16.7113  -40.5888 H         1 UNK         0.0600 
    168 H168        1.4165  -15.4935  -41.7632 H         1 UNK         0.0600 
    169 H169       -0.9489  -15.3029  -42.2602 H         1 UNK         0.3000 
    170 H170       -4.0116  -16.3943  -43.6220 H         1 UNK         0.0600 
    171 H171       -4.7964  -15.9359  -41.2888 H         1 UNK         0.0600 
    172 H172       -3.7475  -14.5253  -41.2057 H         1 UNK         0.0600 
    173 H173       -5.0931  -14.5659  -42.3465 H         1 UNK         0.0600 
    174 H174       -2.9852  -13.7793  -43.4585 H         1 UNK         0.3000 
    175 H175       -1.5308  -13.8632  -46.6012 H         1 UNK         0.0600 
    176 H176       -2.2670  -12.0468  -44.2373 H         1 UNK         0.0600 
    177 H177       -2.0013  -11.5577  -45.9044 H         1 UNK         0.0600 
    178 H178       -3.3786  -12.5655  -45.5036 H         1 UNK         0.0600 
    179 H179        0.5338  -13.3019  -46.0531 H         1 UNK         0.3000 
    180 H180        1.9780  -11.7363  -44.4660 H         1 UNK         0.0600 
    181 H181        3.6248  -12.2469  -42.7100 H         1 UNK         0.0600 
    182 H182        2.6948  -13.6434  -42.1822 H         1 UNK         0.0600 
    183 H183        2.0380  -12.0236  -41.9953 H         1 UNK         0.0600 
    184 H184        3.2542  -13.0391  -45.7249 H         1 UNK         0.3000 
    185 H185        4.9304  -14.7744  -45.9131 H         1 UNK         0.0600 
    186 H186        3.6800  -17.5444  -45.5837 H         1 UNK         0.0600 
    187 H187        5.2579  -17.2009  -46.2975 H         1 UNK         0.0600 
    188 H188        4.9694  -16.8705  -44.5972 H         1 UNK         0.0600 
    189 H189        3.1649  -16.2945  -47.6488 H         1 UNK         0.3000 
    190 H190        1.8684  -23.0805  -45.0137 H         1 UNK         0.3000 
    191 H191        0.4273  -24.7476  -44.8540 H         1 UNK         0.0600 
    192 H192        0.9236  -26.9993  -45.6717 H         1 UNK         0.0600 
    193 H193        2.3939  -26.2940  -45.0203 H         1 UNK         0.0600 
    194 H194        2.1588  -26.3964  -46.7651 H         1 UNK         0.0600 
    195 H195       -0.0110  -22.6144  -46.6260 H         1 UNK         0.3000 
    196 H196       -1.0236  -23.5807  -49.1834 H         1 UNK         0.0600 
    197 H197       -0.9756  -20.8050  -47.8800 H         1 UNK         0.0600 
    198 H198       -1.4345  -21.1358  -49.5440 H         1 UNK         0.0600 
    199 H199        0.2041  -21.4491  -49.0266 H         1 UNK         0.0600 
    200 H200       -2.4162  -23.5557  -46.1490 H         1 UNK         0.3000 
    201 H201       -4.4464  -23.5488  -45.2357 H         1 UNK         0.0600 
    202 H202       -5.4738  -24.3261  -48.0290 H         1 UNK         0.0600 
    203 H203       -6.3546  -24.5048  -46.5122 H         1 UNK         0.0600 
    204 H204       -4.8951  -25.4330  -46.7932 H         1 UNK         0.0600 
    205 H205       -6.6058  -22.5943  -47.6358 H         1 UNK         0.3000 
    206 H206       -6.7666  -19.8591  -46.5956 H         1 UNK         0.0600 
    207 H207       -8.7854  -21.3748  -46.9931 H         1 UNK         0.0600 
    208 H208       -8.8887  -19.7706  -47.6795 H         1 UNK         0.0600 
    209 H209       -8.5416  -21.1405  -48.7225 H         1 UNK         0.0600 
    210 H210       -4.7792  -21.1825  -48.8805 H         1 UNK         0.3000 
    211 H211       -3.4631  -20.4331  -50.4717 H         1 UNK         0.0600 
    212 H212       -4.0213  -17.7077  -49.1753 H         1 UNK         0.0600 
    213 H213       -2.6885  -18.0610  -50.2733 H         1 UNK         0.0600 
    214 H214       -2.7790  -18.8626  -48.7161 H         1 UNK         0.0600 
    215 H215       -4.7990  -17.3109  -51.0338 H         1 UNK         0.3000 
    216 H216       -5.3833  -17.8430  -53.7709 H         1 UNK         0.0600 
    217 H217       -6.1424  -15.4653  -51.9919 H         1 UNK         0.0600 
    218 H218       -4.6734  -15.6149  -52.9587 H         1 UNK         0.0600 
    219 H219       -6.2367  -15.4939  -53.7493 H         1 UNK         0.0600 
    220 H220       -7.4285  -17.8810  -50.8620 H         1 UNK         0.3000 
    221 H221       -9.9363  -18.0456  -52.3641 H         1 UNK         0.0600 
    222 H222      -10.9084  -18.4003  -50.0767 H         1 UNK         0.0600 
    223 H223       -9.2858  -18.3734  -49.3979 H         1 UNK         0.0600 
    224 H224       -9.9354  -16.9414  -50.1840 H         1 UNK         0.0600 
    225 H225       -7.4907  -20.2880  -51.3178 H         1 UNK         0.3000 
    226 H226       -9.2002  -22.6839  -51.6551 H         1 UNK         0.0600 
    227 H227       -7.4738  -22.7583  -49.8807 H         1 UNK         0.0600 
    228 H228       -7.0579  -23.8882  -51.1473 H         1 UNK         0.0600 
    229 H229       -6.2089  -22.3568  -51.0392 H         1 UNK         0.0600 
    230 H230       -7.5006  -20.4996  -53.5954 H         1 UNK         0.3000 
    231 H231       -6.6995  -20.3504  -55.6317 H         1 UNK         0.0600 
    232 H232       -7.4907  -21.7779  -57.4597 H         1 UNK         0.0600 
    233 H233       -8.8388  -21.4335  -56.3893 H         1 UNK         0.0600 
    234 H234       -8.0481  -23.0093  -56.3381 H         1 UNK         0.0600 
    235 H235       -5.2266  -21.6569  -53.4715 H         1 UNK         0.3000 
    236 H236       -3.3823  -23.5655  -54.7609 H         1 UNK         0.0600 
    237 H237       -4.1109  -23.9333  -52.4024 H         1 UNK         0.0600 
    238 H238       -2.3796  -23.6397  -52.4801 H         1 UNK         0.0600 
    239 H239       -3.4602  -22.3643  -51.9374 H         1 UNK         0.0600 
    240 H240       -3.6609  -20.1499  -54.0531 H         1 UNK         0.3000 
    241 H241       -0.9546  -19.6239  -55.1318 H         1 UNK         0.0600 
    242 H242       -2.1718  -16.6328  -56.7041 H         1 UNK         0.3800 
    243 H243       -0.7404  -17.2751  -55.9548 H         1 UNK         0.3800 
    244 H244       -2.1372  -18.0734  -52.7702 H         1 UNK         0.0800 
    245 H245       -0.5775  -17.8056  -53.4988 H         1 UNK         0.0800 
    246 H246        1.2661  -21.1368  -52.7120 H         1 UNK         0.0800 
    247 H247        1.0153  -19.9005  -53.9052 H         1 UNK         0.0800 
@<TRIPOS>BOND
     1    1    2 1    
     2    1  127 1    
     3    1  128 1    
     4    1  129 1    
     5    2    3 2    
     6    2    4 am   BACKBONE|DICT|INTERRES
     7    4    5 1    
     8    4  130 1    
     9    5    6 1    
    10    5   65 1    
    11    5  131 1    
    12    6    7 1    
    13    6  132 1    
    14    6  133 1    
    15    7    8 1    
    16    8    9 1    
    17    8  134 1    
    18    8  135 1    
    19    9   10 ar   
    20    9   14 ar   
    21   10   11 ar   
    22   10  136 1    
    23   11   12 ar   
    24   11  126 1    
    25   12   13 ar   
    26   12  137 1    
    27   13   14 ar   
    28   13   15 1    
    29   14  138 1    
    30   15   16 1    
    31   15  139 1    
    32   15  140 1    
    33   16   17 1    
    34   17   18 1    
    35   17  141 1    
    36   17  142 1    
    37   18   19 1    
    38   18   67 1    
    39   18  143 1    
    40   19   20 am   BACKBONE|DICT|INTERRES
    41   19  144 1    
    42   20   21 2    
    43   20   22 1    
    44   22   23 1    
    45   22   24 1    
    46   22  145 1    
    47   23  146 1    
    48   23  147 1    
    49   23  148 1    
    50   24   25 am   BACKBONE|DICT|INTERRES
    51   24  149 1    
    52   25   26 2    
    53   25   27 1    
    54   27   28 1    
    55   27   29 1    
    56   27  150 1    
    57   28  151 1    
    58   28  152 1    
    59   28  153 1    
    60   29   30 am   BACKBONE|DICT|INTERRES
    61   29  154 1    
    62   30   31 2    
    63   30   32 1    
    64   32   33 1    
    65   32   34 1    
    66   32  155 1    
    67   33  156 1    
    68   33  157 1    
    69   33  158 1    
    70   34   35 am   BACKBONE|DICT|INTERRES
    71   34  159 1    
    72   35   36 2    
    73   35   37 1    
    74   37   38 1    
    75   37   39 1    
    76   37  160 1    
    77   38  161 1    
    78   38  162 1    
    79   38  163 1    
    80   39   40 am   BACKBONE|DICT|INTERRES
    81   39  164 1    
    82   40   41 2    
    83   40   42 1    
    84   42   43 1    
    85   42   44 1    
    86   42  165 1    
    87   43  166 1    
    88   43  167 1    
    89   43  168 1    
    90   44   45 am   BACKBONE|DICT|INTERRES
    91   44  169 1    
    92   45   46 2    
    93   45   47 1    
    94   47   48 1    
    95   47   49 1    
    96   47  170 1    
    97   48  171 1    
    98   48  172 1    
    99   48  173 1    
   100   49   50 am   BACKBONE|DICT|INTERRES
   101   49  174 1    
   102   50   51 2    
   103   50   52 1    
   104   52   53 1    
   105   52   54 1    
   106   52  175 1    
   107   53  176 1    
   108   53  177 1    
   109   53  178 1    
   110   54   55 am   BACKBONE|DICT|INTERRES
   111   54  179 1    
   112   55   56 2    
   113   55   57 1    
   114   57   58 1    
   115   57   59 1    
   116   57  180 1    
   117   58  181 1    
   118   58  182 1    
   119   58  183 1    
   120   59   60 am   BACKBONE|DICT|INTERRES
   121   59  184 1    
   122   60   61 2    
   123   60   62 1    
   124   62   63 1    
   125   62   64 1    
   126   62  185 1    
   127   63  186 1    
   128   63  187 1    
   129   63  188 1    
   130   64   65 am   BACKBONE|DICT|INTERRES
   131   64  189 1    
   132   65   66 2    
   133   67   68 2    
   134   67   69 am   BACKBONE|DICT|INTERRES
   135   69   70 1    
   136   69  190 1    
   137   70   71 1    
   138   70   72 1    
   139   70  191 1    
   140   71  192 1    
   141   71  193 1    
   142   71  194 1    
   143   72   73 2    
   144   72   74 am   BACKBONE|DICT|INTERRES
   145   74   75 1    
   146   74  195 1    
   147   75   76 1    
   148   75   77 1    
   149   75  196 1    
   150   76  197 1    
   151   76  198 1    
   152   76  199 1    
   153   77   78 2    
   154   77   79 am   BACKBONE|DICT|INTERRES
   155   79   80 1    
   156   79  200 1    
   157   80   81 1    
   158   80   82 1    
   159   80  201 1    
   160   81  202 1    
   161   81  203 1    
   162   81  204 1    
   163   82   83 2    
   164   82   84 am   BACKBONE|DICT|INTERRES
   165   84   85 1    
   166   84  205 1    
   167   85   86 1    
   168   85   87 1    
   169   85  206 1    
   170   86  207 1    
   171   86  208 1    
   172   86  209 1    
   173   87   88 2    
   174   87   89 am   BACKBONE|DICT|INTERRES
   175   89   90 1    
   176   89  210 1    
   177   90   91 1    
   178   90   92 1    
   179   90  211 1    
   180   91  212 1    
   181   91  213 1    
   182   91  214 1    
   183   92   93 2    
   184   92   94 am   BACKBONE|DICT|INTERRES
   185   94   95 1    
   186   94  215 1    
   187   95   96 1    
   188   95   97 1    
   189   95  216 1    
   190   96  217 1    
   191   96  218 1    
   192   96  219 1    
   193   97   98 2    
   194   97   99 am   BACKBONE|DICT|INTERRES
   195   99  100 1    
   196   99  220 1    
   197  100  101 1    
   198  100  102 1    
   199  100  221 1    
   200  101  222 1    
   201  101  223 1    
   202  101  224 1    
   203  102  103 2    
   204  102  104 am   BACKBONE|DICT|INTERRES
   205  104  105 1    
   206  104  225 1    
   207  105  106 1    
   208  105  107 1    
   209  105  226 1    
   210  106  227 1    
   211  106  228 1    
   212  106  229 1    
   213  107  108 2    
   214  107  109 am   BACKBONE|DICT|INTERRES
   215  109  110 1    
   216  109  230 1    
   217  110  111 1    
   218  110  112 1    
   219  110  231 1    
   220  111  232 1    
   221  111  233 1    
   222  111  234 1    
   223  112  113 2    
   224  112  114 am   BACKBONE|DICT|INTERRES
   225  114  115 1    
   226  114  235 1    
   227  115  116 1    
   228  115  117 1    
   229  115  236 1    
   230  116  237 1    
   231  116  238 1    
   232  116  239 1    
   233  117  118 2    
   234  117  119 am   BACKBONE|DICT|INTERRES
   235  119  120 1    
   236  119  240 1    
   237  120  121 1    
   238  120  124 1    
   239  120  241 1    
   240  121  122 am   BACKBONE|DICT|INTERRES
   241  121  123 2    
   242  122  242 1    
   243  122  243 1    
   244  124  125 1    
   245  124  244 1    
   246  124  245 1    
   247  125  126 1    
   248  126  246 1    
   249  126  247 1    
@<TRIPOS>SUBSTRUCTURE
     1 UNK         1 GROUP             0       ****    0 ROOT    
