@<TRIPOS>MOLECULE
3R540
247   249    1
SMALL
USER_CHARGES


@<TRIPOS>ATOM
      1 CA         -5.3638  -20.5383  -44.4341 C.3       0 UNK        -0.1800 
      2 C          -4.5734  -19.4518  -45.1469 C.2       0 UNK         0.5000 
      3 O          -4.7370  -18.2741  -44.8357 O.2       0 UNK        -0.5000 
      4 N          -3.7040  -19.8363  -46.0890 N.am      1 UNK        -0.5000 
      5 CA         -2.8519  -18.9297  -46.8729 C.3       1 UNK         0.1400 
      6 C6         -2.1507  -19.6683  -48.0453 C.3       23 UNK        -0.0398 
      7 S7         -2.0797  -18.6468  -49.5525 S.3       23 UNK        -0.2404 
      8 C8         -1.4895  -19.8418  -50.7956 C.3       23 UNK        -0.0205 
      9 C9          0.0265  -19.9402  -50.8098 C.ar      23 UNK        -0.0193 
     10 C10         0.7897  -18.9161  -51.3784 C.ar      23 UNK        -0.1150 
     11 C11         2.1857  -18.9902  -51.3888 C.ar      23 UNK        -0.0193 
     12 C12         2.8173  -20.1022  -50.8229 C.ar      23 UNK        -0.1150 
     13 C13         2.0649  -21.1299  -50.2462 C.ar      23 UNK        -0.0193 
     14 C14         0.6692  -21.0500  -50.2580 C.ar      23 UNK        -0.1150 
     15 C15         2.7615  -22.3171  -49.5959 C.3       23 UNK        -0.0205 
     16 S16         3.3894  -21.9104  -47.9322 S.3       23 UNK        -0.2404 
     17 C17         1.8413  -21.7070  -46.9838 C.3       23 UNK        -0.0398 
     18 CA          1.6419  -22.7972  -45.9092 C.3       11 UNK         0.1400 
     19 N           2.7031  -22.7547  -44.9008 N.am      11 UNK        -0.5000 
     20 C           3.2404  -23.8172  -44.2889 C.2       10 UNK         0.5000 
     21 O           2.8494  -24.9709  -44.4672 O.2       10 UNK        -0.5000 
     22 CA          4.3999  -23.5538  -43.3047 C.3       10 UNK         0.1400 
     23 CB          5.7465  -23.8723  -43.9724 C.3       10 UNK        -0.1800 
     24 N           4.4426  -22.1810  -42.7949 N.am      10 UNK        -0.5000 
     25 C           3.5302  -21.6362  -41.9789 C.2       9 UNK         0.5000 
     26 O           2.5664  -22.2549  -41.5274 O.2       9 UNK        -0.5000 
     27 CA          3.7026  -20.1413  -41.6378 C.3       9 UNK         0.1400 
     28 CB          4.4845  -19.9825  -40.3252 C.3       9 UNK        -0.1800 
     29 N           4.3490  -19.3300  -42.6797 N.am      9 UNK        -0.5000 
     30 C           3.9432  -19.2165  -43.9524 C.2       8 UNK         0.5000 
     31 O           3.0143  -19.8681  -44.4310 O.2       8 UNK        -0.5000 
     32 CA          4.7517  -18.2577  -44.8476 C.3       8 UNK         0.1400 
     33 CB          6.0833  -18.9097  -45.2535 C.3       8 UNK        -0.1800 
     34 N           4.0245  -17.8999  -46.0664 N.am      8 UNK        -0.5000 
     35 C           2.9603  -17.0900  -46.1240 C.2       7 UNK         0.5000 
     36 O           2.5163  -16.4598  -45.1601 O.2       7 UNK        -0.5000 
     37 CA          2.2787  -16.9883  -47.4969 C.3       7 UNK         0.1400 
     38 CB          1.6036  -18.3134  -47.8687 C.3       7 UNK        -0.1800 
     39 N           1.2556  -15.9538  -47.4814 N.am      7 UNK        -0.5000 
     40 C           0.8727  -15.2231  -48.5347 C.2       6 UNK         0.5000 
     41 O           1.4259  -15.2675  -49.6341 O.2       6 UNK        -0.5000 
     42 CA         -0.3389  -14.2931  -48.3400 C.3       6 UNK         0.1400 
     43 CB         -1.5551  -14.8191  -49.1186 C.3       6 UNK        -0.1800 
     44 N          -0.7131  -14.1682  -46.9332 N.am      6 UNK        -0.5000 
     45 C          -0.2477  -13.2341  -46.0946 C.2       5 UNK         0.5000 
     46 O           0.5376  -12.3468  -46.4328 O.2       5 UNK        -0.5000 
     47 CA         -0.7302  -13.3238  -44.6319 C.3       5 UNK         0.1400 
     48 CB         -0.7302  -11.9606  -43.9093 C.3       5 UNK        -0.1800 
     49 N          -2.0259  -13.9976  -44.4946 N.am      5 UNK        -0.5000 
     50 C          -3.2193  -13.5946  -44.9613 C.2       4 UNK         0.5000 
     51 O          -3.3986  -12.5325  -45.5581 O.2       4 UNK        -0.5000 
     52 CA         -4.4190  -14.5440  -44.7516 C.3       4 UNK         0.1400 
     53 CB         -4.8805  -15.1266  -46.0977 C.3       4 UNK        -0.1800 
     54 N          -4.1353  -15.6545  -43.8423 N.am      4 UNK        -0.5000 
     55 C          -3.9628  -15.5570  -42.5180 C.2       3 UNK         0.5000 
     56 O          -4.1237  -14.5170  -41.8789 O.2       3 UNK        -0.5000 
     57 CA         -3.4703  -16.8273  -41.8011 C.3       3 UNK         0.1400 
     58 CB         -4.6543  -17.6928  -41.3439 C.3       3 UNK        -0.1800 
     59 N          -2.5676  -17.6319  -42.6316 N.am      3 UNK        -0.5000 
     60 C          -1.3308  -17.2633  -42.9983 C.2       2 UNK         0.5000 
     61 O          -0.8204  -16.1875  -42.6897 O.2       2 UNK        -0.5000 
     62 CA         -0.5421  -18.2576  -43.8700 C.3       2 UNK         0.1400 
     63 CB          0.0195  -19.3829  -42.9921 C.3       2 UNK        -0.1800 
     64 N          -1.3574  -18.8386  -44.9351 N.am      2 UNK        -0.5000 
     65 C          -1.8534  -18.1583  -45.9792 C.2       1 UNK         0.5000 
     66 O          -1.6056  -16.9710  -46.2020 O.2       1 UNK        -0.5000 
     67 C           0.2333  -22.7045  -45.2818 C.2       11 UNK         0.5000 
     68 O          -0.7365  -22.4973  -46.0106 O.2       11 UNK        -0.5000 
     69 N           0.1114  -22.8852  -43.9581 N.am      12 UNK        -0.5000 
     70 CA         -1.1637  -22.9162  -43.2308 C.3       12 UNK         0.1400 
     71 CB         -0.8757  -22.9783  -41.7235 C.3       12 UNK        -0.1800 
     72 C          -2.1008  -24.0689  -43.6526 C.2       12 UNK         0.5000 
     73 O          -3.3080  -23.9807  -43.4292 O.2       12 UNK        -0.5000 
     74 N          -1.5322  -25.1183  -44.2630 N.am      13 UNK        -0.5000 
     75 CA         -2.2565  -26.2429  -44.8530 C.3       13 UNK         0.1400 
     76 CB         -1.2706  -27.3998  -45.0774 C.3       13 UNK        -0.1800 
     77 C          -2.9771  -25.8873  -46.1706 C.2       13 UNK         0.5000 
     78 O          -3.9285  -26.5809  -46.5331 O.2       13 UNK        -0.5000 
     79 N          -2.5244  -24.8345  -46.8675 N.am      14 UNK        -0.5000 
     80 CA         -3.1725  -24.3063  -48.0663 C.3       14 UNK         0.1400 
     81 CB         -2.1222  -23.6221  -48.9551 C.3       14 UNK        -0.1800 
     82 C          -4.2646  -23.3081  -47.6566 C.2       14 UNK         0.5000 
     83 O          -4.0616  -22.5441  -46.7118 O.2       14 UNK        -0.5000 
     84 N          -5.3921  -23.3181  -48.3756 N.am      15 UNK        -0.5000 
     85 CA         -6.5281  -22.4249  -48.1446 C.3       15 UNK         0.1400 
     86 CB         -7.7217  -22.9232  -48.9748 C.3       15 UNK        -0.1800 
     87 C          -6.2097  -20.9640  -48.5091 C.2       15 UNK         0.5000 
     88 O          -5.3903  -20.7155  -49.3940 O.2       15 UNK        -0.5000 
     89 N          -6.9175  -20.0212  -47.8726 N.am      16 UNK        -0.5000 
     90 CA         -6.8063  -18.5809  -48.1363 C.3       16 UNK         0.1400 
     91 CB         -7.6455  -17.8140  -47.1039 C.3       16 UNK        -0.1800 
     92 C          -7.2199  -18.1866  -49.5683 C.2       16 UNK         0.5000 
     93 O          -6.6938  -17.2173  -50.1132 O.2       16 UNK        -0.5000 
     94 N          -8.1270  -18.9716  -50.1654 N.am      17 UNK        -0.5000 
     95 CA         -8.5820  -18.8352  -51.5490 C.3       17 UNK         0.1400 
     96 CB         -9.8353  -19.7034  -51.7403 C.3       17 UNK        -0.1800 
     97 C          -7.5098  -19.2025  -52.5960 C.2       17 UNK         0.5000 
     98 O          -7.6488  -18.8107  -53.7551 O.2       17 UNK        -0.5000 
     99 N          -6.4640  -19.9388  -52.1893 N.am      18 UNK        -0.5000 
    100 CA        -5.3707  -20.3689  -53.0631 C.3       18 UNK         0.1400 
    101 CB        -4.6892  -21.6054  -52.4543 C.3       18 UNK        -0.1800 
    102 C         -4.3357  -19.2615  -53.3406 C.2       18 UNK         0.5000 
    103 O         -3.4898  -19.4577  -54.2101 O.2       18 UNK        -0.5000 
    104 N         -4.4205  -18.1285  -52.6233 N.am      19 UNK        -0.5000 
    105 CA        -3.4863  -16.9919  -52.6191 C.3       19 UNK         0.1400 
    106 CB        -4.0080  -15.9405  -51.6268 C.3       19 UNK        -0.1800 
    107 C         -3.1755  -16.3362  -53.9822 C.2       19 UNK         0.5000 
    108 O         -2.2258  -15.5568  -54.0702 O.2       19 UNK        -0.5000 
    109 N         -3.9542  -16.6602  -55.0219 N.am      20 UNK        -0.5000 
    110 CA        -3.6958  -16.2933  -56.4145 C.3       20 UNK         0.1400 
    111 CB        -4.9391  -16.6367  -57.2496 C.3       20 UNK        -0.1800 
    112 C         -2.4395  -16.9650  -57.0153 C.2       20 UNK         0.5000 
    113 O         -1.9295  -16.4753  -58.0243 O.2       20 UNK        -0.5000 
    114 N         -1.9634  -18.0591  -56.4066 N.am      21 UNK        -0.5000 
    115 CA        -0.7642  -18.7945  -56.7986 C.3       21 UNK         0.1400 
    116 CB        -1.1784  -19.9867  -57.6791 C.3       21 UNK        -0.1800 
    117 C         -0.0009  -19.2624  -55.5478 C.2       21 UNK         0.5000 
    118 O         -0.5378  -19.2064  -54.4408 O.2       21 UNK        -0.5000 
    119 N          1.2366  -19.7265  -55.7536 N.am      22 UNK        -0.5000 
    120 CA         2.1248  -20.2708  -54.7079 C.3       22 UNK         0.1400 
    121 C          2.6085  -21.7184  -55.0186 C.2       22 UNK         0.5000 
    122 N          2.0531  -22.4091  -56.0079 N.am      22 UNK        -0.7600 
    123 O          3.4947  -22.2381  -54.3462 O.2       22 UNK        -0.5000 
    124 C124        3.3130  -19.3180  -54.3973 C.3       23 UNK        -0.0398 
    125 S125        2.7753  -17.6833  -53.7853 S.3       23 UNK        -0.2404 
    126 C126        3.0108  -17.8578  -51.9857 C.3       23 UNK        -0.0205 
    127 H127       -6.3220  -20.6918  -44.9291 H         1 UNK         0.0600 
    128 H128       -4.8227  -21.4844  -44.4234 H         1 UNK         0.0600 
    129 H129       -5.5548  -20.2527  -43.3999 H         1 UNK         0.0600 
    130 H130       -3.6494  -20.8284  -46.3197 H         1 UNK         0.3000 
    131 H131       -3.5274  -18.1814  -47.2916 H         1 UNK         0.0600 
    132 H132       -2.7154  -20.5632  -48.3092 H         1 UNK         0.0800 
    133 H133       -1.1501  -20.0151  -47.7803 H         1 UNK         0.0800 
    134 H134       -1.9446  -20.8169  -50.6197 H         1 UNK         0.0800 
    135 H135       -1.8230  -19.5295  -51.7848 H         1 UNK         0.0800 
    136 H136        0.2957  -18.0569  -51.8105 H         1 UNK         0.1150 
    137 H137        3.8964  -20.1632  -50.8130 H         1 UNK         0.1150 
    138 H138        0.0820  -21.8448  -49.8228 H         1 UNK         0.1150 
    139 H139        2.0894  -23.1743  -49.5325 H         1 UNK         0.0800 
    140 H140        3.5979  -22.6315  -50.2218 H         1 UNK         0.0800 
    141 H141        1.0012  -21.6916  -47.6752 H         1 UNK         0.0800 
    142 H142        1.8535  -20.7277  -46.5113 H         1 UNK         0.0800 
    143 H143        1.6757  -23.7623  -46.4190 H         1 UNK         0.0600 
    144 H144        3.0422  -21.8252  -44.6705 H         1 UNK         0.3000 
    145 H145        4.2688  -24.2278  -42.4556 H         1 UNK         0.0600 
    146 H146        5.7683  -24.8996  -44.3388 H         1 UNK         0.0600 
    147 H147        5.9378  -23.2165  -44.8229 H         1 UNK         0.0600 
    148 H148        6.5723  -23.7623  -43.2693 H         1 UNK         0.0600 
    149 H149        5.1970  -21.5973  -43.1242 H         1 UNK         0.3000 
    150 H150        2.7040  -19.7331  -41.4825 H         1 UNK         0.0600 
    151 H151        5.5120  -20.3348  -40.4243 H         1 UNK         0.0600 
    152 H152        4.0182  -20.5523  -39.5201 H         1 UNK         0.0600 
    153 H153        4.5149  -18.9404  -40.0065 H         1 UNK         0.0600 
    154 H154        5.1390  -18.7784  -42.3774 H         1 UNK         0.3000 
    155 H155        4.9575  -17.3456  -44.2836 H         1 UNK         0.0600 
    156 H156        5.9245  -19.8335  -45.8121 H         1 UNK         0.0600 
    157 H157        6.6876  -19.1547  -44.3793 H         1 UNK         0.0600 
    158 H158        6.6766  -18.2397  -45.8762 H         1 UNK         0.0600 
    159 H159        4.2888  -18.4073  -46.8977 H         1 UNK         0.3000 
    160 H160        3.0411  -16.7419  -48.2390 H         1 UNK         0.0600 
    161 H161        0.9639  -18.6756  -47.0640 H         1 UNK         0.0600 
    162 H162        2.3469  -19.0771  -48.0895 H         1 UNK         0.0600 
    163 H163        0.9799  -18.2036  -48.7531 H         1 UNK         0.0600 
    164 H164        0.7826  -15.8310  -46.5965 H         1 UNK         0.3000 
    165 H165       -0.0729  -13.3143  -48.7442 H         1 UNK         0.0600 
    166 H166       -1.3169  -14.9551  -50.1742 H         1 UNK         0.0600 
    167 H167       -1.8927  -15.7808  -48.7321 H         1 UNK         0.0600 
    168 H168       -2.3926  -14.1238  -49.0591 H         1 UNK         0.0600 
    169 H169       -1.3090  -14.9024  -46.5661 H         1 UNK         0.3000 
    170 H170       -0.0069  -13.9613  -44.1218 H         1 UNK         0.0600 
    171 H171        0.2753  -11.5404  -43.8682 H         1 UNK         0.0600 
    172 H172       -1.3662  -11.2325  -44.4132 H         1 UNK         0.0600 
    173 H173       -1.0809  -12.0598  -42.8820 H         1 UNK         0.0600 
    174 H174       -1.9882  -14.8866  -44.0117 H         1 UNK         0.3000 
    175 H175       -5.2360  -13.9549  -44.3306 H         1 UNK         0.0600 
    176 H176       -5.7521  -15.7671  -45.9680 H         1 UNK         0.0600 
    177 H177       -5.1582  -14.3361  -46.7959 H         1 UNK         0.0600 
    178 H178       -4.0968  -15.7208  -46.5690 H         1 UNK         0.0600 
    179 H179       -4.0748  -16.5776  -44.2645 H         1 UNK         0.3000 
    180 H180       -2.9176  -16.5127  -40.9133 H         1 UNK         0.0600 
    181 H181       -5.2614  -18.0260  -42.1858 H         1 UNK         0.0600 
    182 H182       -5.3074  -17.1331  -40.6732 H         1 UNK         0.0600 
    183 H183       -4.3139  -18.5759  -40.8032 H         1 UNK         0.0600 
    184 H184       -2.9334  -18.5078  -42.9721 H         1 UNK         0.3000 
    185 H185        0.2927  -17.7260  -44.3299 H         1 UNK         0.0600 
    186 H186        0.5933  -20.0976  -43.5792 H         1 UNK         0.0600 
    187 H187        0.6824  -18.9759  -42.2295 H         1 UNK         0.0600 
    188 H188       -0.7711  -19.9288  -42.4776 H         1 UNK         0.0600 
    189 H189       -1.6193  -19.8082  -44.8361 H         1 UNK         0.3000 
    190 H190        0.9496  -23.0282  -43.4113 H         1 UNK         0.3000 
    191 H191       -1.6919  -21.9849  -43.4428 H         1 UNK         0.0600 
    192 H192       -0.3299  -23.8842  -41.4570 H         1 UNK         0.0600 
    193 H193       -1.8011  -22.9687  -41.1462 H         1 UNK         0.0600 
    194 H194       -0.2818  -22.1243  -41.3977 H         1 UNK         0.0600 
    195 H195       -0.5298  -25.1134  -44.3813 H         1 UNK         0.3000 
    196 H196       -3.0161  -26.5745  -44.1418 H         1 UNK         0.0600 
    197 H197       -1.7786  -28.2720  -45.4912 H         1 UNK         0.0600 
    198 H198       -0.8063  -27.7102  -44.1411 H         1 UNK         0.0600 
    199 H199       -0.4759  -27.1226  -45.7713 H         1 UNK         0.0600 
    200 H200       -1.8167  -24.2378  -46.4557 H         1 UNK         0.3000 
    201 H201       -3.6224  -25.1238  -48.6339 H         1 UNK         0.0600 
    202 H202       -2.5750  -23.2444  -49.8728 H         1 UNK         0.0600 
    203 H203       -1.6560  -22.7770  -48.4496 H         1 UNK         0.0600 
    204 H204       -1.3331  -24.3172  -49.2418 H         1 UNK         0.0600 
    205 H205       -5.4692  -23.9463  -49.1614 H         1 UNK         0.3000 
    206 H206       -6.7897  -22.4716  -47.0853 H         1 UNK         0.0600 
    207 H207       -7.9830  -23.9490  -48.7139 H         1 UNK         0.0600 
    208 H208       -8.6075  -22.3114  -48.7994 H         1 UNK         0.0600 
    209 H209       -7.5087  -22.8928  -50.0445 H         1 UNK         0.0600 
    210 H210       -7.5934  -20.2978  -47.1755 H         1 UNK         0.3000 
    211 H211       -5.7611  -18.2939  -48.0104 H         1 UNK         0.0600 
    212 H212       -8.6971  -18.0999  -47.1467 H         1 UNK         0.0600 
    213 H213       -7.5920  -16.7387  -47.2784 H         1 UNK         0.0600 
    214 H214       -7.2878  -17.9955  -46.0902 H         1 UNK         0.0600 
    215 H215       -8.5086  -19.7431  -49.6392 H         1 UNK         0.3000 
    216 H216       -8.8577  -17.7918  -51.7160 H         1 UNK         0.0600 
    217 H217      -10.2284  -19.6061  -52.7532 H         1 UNK         0.0600 
    218 H218      -10.6302  -19.4060  -51.0560 H         1 UNK         0.0600 
    219 H219       -9.6225  -20.7598  -51.5708 H         1 UNK         0.0600 
    220 H220       -6.3780  -20.1908  -51.2114 H         1 UNK         0.3000 
    221 H221       -5.7938  -20.6648  -54.0254 H         1 UNK         0.0600 
    222 H222       -4.1500  -21.3600  -51.5401 H         1 UNK         0.0600 
    223 H223       -5.4135  -22.3856  -52.2198 H         1 UNK         0.0600 
    224 H224       -3.9652  -22.0313  -53.1499 H         1 UNK         0.0600 
    225 H225       -5.1676  -18.0714  -51.9447 H         1 UNK         0.3000 
    226 H226       -2.5309  -17.3604  -52.2450 H         1 UNK         0.0600 
    227 H227       -3.3573  -15.0660  -51.5944 H         1 UNK         0.0600 
    228 H228       -5.0066  -15.5959  -51.8975 H         1 UNK         0.0600 
    229 H229       -4.0546  -16.3434  -50.6147 H         1 UNK         0.0600 
    230 H230       -4.7017  -17.3190  -54.8600 H         1 UNK         0.3000 
    231 H231       -3.5412  -15.2133  -56.4570 H         1 UNK         0.0600 
    232 H232       -5.1525  -17.7063  -57.2299 H         1 UNK         0.0600 
    233 H233       -4.8022  -16.3482  -58.2927 H         1 UNK         0.0600 
    234 H234       -5.8203  -16.1108  -56.8815 H         1 UNK         0.0600 
    235 H235       -2.4049  -18.3963  -55.5537 H         1 UNK         0.3000 
    236 H236       -0.0954  -18.1421  -57.3639 H         1 UNK         0.0600 
    237 H237       -0.3095  -20.5483  -58.0229 H         1 UNK         0.0600 
    238 H238       -1.8256  -20.6771  -57.1363 H         1 UNK         0.0600 
    239 H239       -1.7168  -19.6522  -58.5661 H         1 UNK         0.0600 
    240 H240        1.6140  -19.7313  -56.6903 H         1 UNK         0.3000 
    241 H241        1.5559  -20.3901  -53.7851 H         1 UNK         0.0600 
    242 H242        2.3738  -23.3466  -56.1943 H         1 UNK         0.3800 
    243 H243        1.2937  -22.0256  -56.5466 H         1 UNK         0.3800 
    244 H244        3.9146  -19.1649  -55.2943 H         1 UNK         0.0800 
    245 H245        3.9843  -19.7581  -53.6581 H         1 UNK         0.0800 
    246 H246        4.0723  -17.9976  -51.7765 H         1 UNK         0.0800 
    247 H247        2.7253  -16.9227  -51.5017 H         1 UNK         0.0800 
@<TRIPOS>BOND
     1    1    2 1    
     2    1  127 1    
     3    1  128 1    
     4    1  129 1    
     5    2    3 2    
     6    2    4 am   BACKBONE|DICT|INTERRES
     7    4    5 1    
     8    4  130 1    
     9    5    6 1    
    10    5   65 1    
    11    5  131 1    
    12    6    7 1    
    13    6  132 1    
    14    6  133 1    
    15    7    8 1    
    16    8    9 1    
    17    8  134 1    
    18    8  135 1    
    19    9   10 ar   
    20    9   14 ar   
    21   10   11 ar   
    22   10  136 1    
    23   11   12 ar   
    24   11  126 1    
    25   12   13 ar   
    26   12  137 1    
    27   13   14 ar   
    28   13   15 1    
    29   14  138 1    
    30   15   16 1    
    31   15  139 1    
    32   15  140 1    
    33   16   17 1    
    34   17   18 1    
    35   17  141 1    
    36   17  142 1    
    37   18   19 1    
    38   18   67 1    
    39   18  143 1    
    40   19   20 am   BACKBONE|DICT|INTERRES
    41   19  144 1    
    42   20   21 2    
    43   20   22 1    
    44   22   23 1    
    45   22   24 1    
    46   22  145 1    
    47   23  146 1    
    48   23  147 1    
    49   23  148 1    
    50   24   25 am   BACKBONE|DICT|INTERRES
    51   24  149 1    
    52   25   26 2    
    53   25   27 1    
    54   27   28 1    
    55   27   29 1    
    56   27  150 1    
    57   28  151 1    
    58   28  152 1    
    59   28  153 1    
    60   29   30 am   BACKBONE|DICT|INTERRES
    61   29  154 1    
    62   30   31 2    
    63   30   32 1    
    64   32   33 1    
    65   32   34 1    
    66   32  155 1    
    67   33  156 1    
    68   33  157 1    
    69   33  158 1    
    70   34   35 am   BACKBONE|DICT|INTERRES
    71   34  159 1    
    72   35   36 2    
    73   35   37 1    
    74   37   38 1    
    75   37   39 1    
    76   37  160 1    
    77   38  161 1    
    78   38  162 1    
    79   38  163 1    
    80   39   40 am   BACKBONE|DICT|INTERRES
    81   39  164 1    
    82   40   41 2    
    83   40   42 1    
    84   42   43 1    
    85   42   44 1    
    86   42  165 1    
    87   43  166 1    
    88   43  167 1    
    89   43  168 1    
    90   44   45 am   BACKBONE|DICT|INTERRES
    91   44  169 1    
    92   45   46 2    
    93   45   47 1    
    94   47   48 1    
    95   47   49 1    
    96   47  170 1    
    97   48  171 1    
    98   48  172 1    
    99   48  173 1    
   100   49   50 am   BACKBONE|DICT|INTERRES
   101   49  174 1    
   102   50   51 2    
   103   50   52 1    
   104   52   53 1    
   105   52   54 1    
   106   52  175 1    
   107   53  176 1    
   108   53  177 1    
   109   53  178 1    
   110   54   55 am   BACKBONE|DICT|INTERRES
   111   54  179 1    
   112   55   56 2    
   113   55   57 1    
   114   57   58 1    
   115   57   59 1    
   116   57  180 1    
   117   58  181 1    
   118   58  182 1    
   119   58  183 1    
   120   59   60 am   BACKBONE|DICT|INTERRES
   121   59  184 1    
   122   60   61 2    
   123   60   62 1    
   124   62   63 1    
   125   62   64 1    
   126   62  185 1    
   127   63  186 1    
   128   63  187 1    
   129   63  188 1    
   130   64   65 am   BACKBONE|DICT|INTERRES
   131   64  189 1    
   132   65   66 2    
   133   67   68 2    
   134   67   69 am   BACKBONE|DICT|INTERRES
   135   69   70 1    
   136   69  190 1    
   137   70   71 1    
   138   70   72 1    
   139   70  191 1    
   140   71  192 1    
   141   71  193 1    
   142   71  194 1    
   143   72   73 2    
   144   72   74 am   BACKBONE|DICT|INTERRES
   145   74   75 1    
   146   74  195 1    
   147   75   76 1    
   148   75   77 1    
   149   75  196 1    
   150   76  197 1    
   151   76  198 1    
   152   76  199 1    
   153   77   78 2    
   154   77   79 am   BACKBONE|DICT|INTERRES
   155   79   80 1    
   156   79  200 1    
   157   80   81 1    
   158   80   82 1    
   159   80  201 1    
   160   81  202 1    
   161   81  203 1    
   162   81  204 1    
   163   82   83 2    
   164   82   84 am   BACKBONE|DICT|INTERRES
   165   84   85 1    
   166   84  205 1    
   167   85   86 1    
   168   85   87 1    
   169   85  206 1    
   170   86  207 1    
   171   86  208 1    
   172   86  209 1    
   173   87   88 2    
   174   87   89 am   BACKBONE|DICT|INTERRES
   175   89   90 1    
   176   89  210 1    
   177   90   91 1    
   178   90   92 1    
   179   90  211 1    
   180   91  212 1    
   181   91  213 1    
   182   91  214 1    
   183   92   93 2    
   184   92   94 am   BACKBONE|DICT|INTERRES
   185   94   95 1    
   186   94  215 1    
   187   95   96 1    
   188   95   97 1    
   189   95  216 1    
   190   96  217 1    
   191   96  218 1    
   192   96  219 1    
   193   97   98 2    
   194   97   99 am   BACKBONE|DICT|INTERRES
   195   99  100 1    
   196   99  220 1    
   197  100  101 1    
   198  100  102 1    
   199  100  221 1    
   200  101  222 1    
   201  101  223 1    
   202  101  224 1    
   203  102  103 2    
   204  102  104 am   BACKBONE|DICT|INTERRES
   205  104  105 1    
   206  104  225 1    
   207  105  106 1    
   208  105  107 1    
   209  105  226 1    
   210  106  227 1    
   211  106  228 1    
   212  106  229 1    
   213  107  108 2    
   214  107  109 am   BACKBONE|DICT|INTERRES
   215  109  110 1    
   216  109  230 1    
   217  110  111 1    
   218  110  112 1    
   219  110  231 1    
   220  111  232 1    
   221  111  233 1    
   222  111  234 1    
   223  112  113 2    
   224  112  114 am   BACKBONE|DICT|INTERRES
   225  114  115 1    
   226  114  235 1    
   227  115  116 1    
   228  115  117 1    
   229  115  236 1    
   230  116  237 1    
   231  116  238 1    
   232  116  239 1    
   233  117  118 2    
   234  117  119 am   BACKBONE|DICT|INTERRES
   235  119  120 1    
   236  119  240 1    
   237  120  121 1    
   238  120  124 1    
   239  120  241 1    
   240  121  122 am   BACKBONE|DICT|INTERRES
   241  121  123 2    
   242  122  242 1    
   243  122  243 1    
   244  124  125 1    
   245  124  244 1    
   246  124  245 1    
   247  125  126 1    
   248  126  246 1    
   249  126  247 1    
@<TRIPOS>SUBSTRUCTURE
     1 UNK         1 GROUP             0       ****    0 ROOT    
