@<TRIPOS>MOLECULE
3R540
247   249    1
SMALL
USER_CHARGES


@<TRIPOS>ATOM
      1 CA          3.4156  -10.3348  -45.9206 C.3       0 UNK        -0.1800 
      2 C           2.9116  -11.6990  -46.3661 C.2       0 UNK         0.5000 
      3 O           1.7193  -11.9854  -46.2264 O.2       0 UNK        -0.5000 
      4 N           3.8080  -12.5421  -46.9007 N.am      1 UNK        -0.5000 
      5 CA          3.5150  -13.8882  -47.4046 C.3       1 UNK         0.1400 
      6 C6          4.7833  -14.7722  -47.5110 C.3       23 UNK        -0.0398 
      7 S7          4.3719  -16.5513  -47.4267 S.3       23 UNK        -0.2404 
      8 C8          4.5528  -17.0816  -49.1610 C.3       23 UNK        -0.0205 
      9 C9          3.3777  -17.9389  -49.6084 C.ar      23 UNK        -0.0193 
     10 C10         2.3041  -17.3674  -50.2985 C.ar      23 UNK        -0.1150 
     11 C11         1.2293  -18.1539  -50.7241 C.ar      23 UNK        -0.0193 
     12 C12         1.2314  -19.5259  -50.4518 C.ar      23 UNK        -0.1150 
     13 C13         2.3081  -20.1130  -49.7779 C.ar      23 UNK        -0.0193 
     14 C14         3.3748  -19.3130  -49.3568 C.ar      23 UNK        -0.1150 
     15 C15         2.3541  -21.6171  -49.5487 C.3       23 UNK        -0.0205 
     16 S16         2.2179  -22.0605  -47.7902 S.3       23 UNK        -0.2404 
     17 C17         0.4816  -21.6531  -47.4240 C.3       23 UNK        -0.0398 
     18 CA         -0.0890  -22.5879  -46.3263 C.3       11 UNK         0.1400 
     19 N           0.5038  -22.2596  -45.0235 N.am      11 UNK        -0.5000 
     20 C           0.7461  -23.1265  -44.0323 C.2       10 UNK         0.5000 
     21 O           0.3505  -24.2928  -44.0462 O.2       10 UNK        -0.5000 
     22 CA          1.5554  -22.5897  -42.8299 C.3       10 UNK         0.1400 
     23 CB          2.2595  -23.7063  -42.0311 C.3       10 UNK        -0.1800 
     24 N           2.5017  -21.5291  -43.2019 N.am      10 UNK        -0.5000 
     25 C           3.5525  -21.6277  -44.0334 C.2       9 UNK         0.5000 
     26 O           3.9115  -22.6810  -44.5602 O.2       9 UNK        -0.5000 
     27 CA          4.3458  -20.3388  -44.3227 C.3       9 UNK         0.1400 
     28 CB          4.3560  -20.0032  -45.8223 C.3       9 UNK        -0.1800 
     29 N           3.8131  -19.1855  -43.5946 N.am      9 UNK        -0.5000 
     30 C           4.5033  -18.4654  -42.7020 C.2       8 UNK         0.5000 
     31 O           5.6719  -18.6935  -42.3865 O.2       8 UNK        -0.5000 
     32 CA          3.7645  -17.2900  -42.0405 C.3       8 UNK         0.1400 
     33 CB          3.8823  -16.0253  -42.9073 C.3       8 UNK        -0.1800 
     34 N           2.3517  -17.5599  -41.7676 N.am      8 UNK        -0.5000 
     35 C           1.8947  -18.4382  -40.8632 C.2       7 UNK         0.5000 
     36 O           2.6189  -19.2022  -40.2257 O.2       7 UNK        -0.5000 
     37 CA          0.3759  -18.4697  -40.6290 C.3       7 UNK         0.1400 
     38 CB         -0.0478  -17.3079  -39.7164 C.3       7 UNK        -0.1800 
     39 N          -0.3565  -18.3746  -41.8899 N.am      7 UNK        -0.5000 
     40 C          -1.0357  -19.3784  -42.4592 C.2       6 UNK         0.5000 
     41 O          -1.1444  -20.5002  -41.9666 O.2       6 UNK        -0.5000 
     42 CA         -1.6881  -19.0979  -43.8277 C.3       6 UNK         0.1400 
     43 CB         -3.1388  -18.6237  -43.6518 C.3       6 UNK        -0.1800 
     44 N          -0.9717  -18.1130  -44.6339 N.am      6 UNK        -0.5000 
     45 C           0.2960  -18.2179  -45.0511 C.2       5 UNK         0.5000 
     46 O           1.0082  -19.2035  -44.8476 O.2       5 UNK        -0.5000 
     47 CA          0.8739  -16.9870  -45.7738 C.3       5 UNK         0.1400 
     48 CB          0.6686  -17.1282  -47.2868 C.3       5 UNK        -0.1800 
     49 N           0.3222  -15.6943  -45.3406 N.am      5 UNK        -0.5000 
     50 C           0.2517  -15.2320  -44.0819 C.2       4 UNK         0.5000 
     51 O           0.5813  -15.8940  -43.0984 O.2       4 UNK        -0.5000 
     52 CA         -0.2713  -13.8014  -43.8657 C.3       4 UNK         0.1400 
     53 CB          0.8028  -12.9436  -43.1771 C.3       4 UNK        -0.1800 
     54 N          -0.6875  -13.1440  -45.1073 N.am      4 UNK        -0.5000 
     55 C          -1.9263  -13.2053  -45.6188 C.2       3 UNK         0.5000 
     56 O          -2.8334  -13.8779  -45.1289 O.2       3 UNK        -0.5000 
     57 CA         -2.1907  -12.3915  -46.8974 C.3       3 UNK         0.1400 
     58 CB         -2.3939  -10.9064  -46.5590 C.3       3 UNK        -0.1800 
     59 N          -1.0916  -12.5207  -47.8521 N.am      3 UNK        -0.5000 
     60 C          -0.9717  -13.5166  -48.7426 C.2       2 UNK         0.5000 
     61 O          -1.7981  -14.4149  -48.8919 O.2       2 UNK        -0.5000 
     62 CA          0.3417  -13.5513  -49.5306 C.3       2 UNK         0.1400 
     63 CB          0.4639  -12.3643  -50.5040 C.3       2 UNK        -0.1800 
     64 N           1.4093  -13.5510  -48.5441 N.am      2 UNK        -0.5000 
     65 C           2.7006  -13.8236  -48.7158 C.2       1 UNK         0.5000 
     66 O           3.2354  -13.9936  -49.8114 O.2       1 UNK        -0.5000 
     67 C          -1.6367  -22.6039  -46.3058 C.2       11 UNK         0.5000 
     68 O          -2.2576  -22.6315  -47.3703 O.2       11 UNK        -0.5000 
     69 N          -2.2450  -22.5891  -45.1111 N.am      12 UNK        -0.5000 
     70 CA         -3.6881  -22.4875  -44.8617 C.3       12 UNK         0.1400 
     71 CB         -3.9121  -22.4103  -43.3435 C.3       12 UNK        -0.1800 
     72 C          -4.5497  -23.6272  -45.4407 C.2       12 UNK         0.5000 
     73 O          -5.7605  -23.4494  -45.5736 O.2       12 UNK        -0.5000 
     74 N          -3.9278  -24.7752  -45.7430 N.am      13 UNK        -0.5000 
     75 CA         -4.5838  -26.0050  -46.1922 C.3       13 UNK         0.1400 
     76 CB         -3.5298  -27.1167  -46.3095 C.3       13 UNK        -0.1800 
     77 C          -5.3702  -25.8712  -47.5108 C.2       13 UNK         0.5000 
     78 O          -6.4021  -26.5275  -47.6573 O.2       13 UNK        -0.5000 
     79 N          -4.8805  -25.0280  -48.4302 N.am      14 UNK        -0.5000 
     80 CA         -5.4963  -24.7520  -49.7319 C.3       14 UNK         0.1400 
     81 CB         -5.5090  -26.0065  -50.6302 C.3       14 UNK        -0.1800 
     82 C          -4.7702  -23.6191  -50.4679 C.2       14 UNK         0.5000 
     83 O          -5.4098  -22.8590  -51.1981 O.2       14 UNK        -0.5000 
     84 N          -3.4429  -23.5458  -50.3034 N.am      15 UNK        -0.5000 
     85 CA         -2.5753  -22.6358  -51.0459 C.3       15 UNK         0.1400 
     86 CB         -1.1121  -23.0584  -50.8676 C.3       15 UNK        -0.1800 
     87 C          -2.8096  -21.1562  -50.7038 C.2       15 UNK         0.5000 
     88 O          -3.0878  -20.3731  -51.6106 O.2       15 UNK        -0.5000 
     89 N          -2.7559  -20.8039  -49.4121 N.am      16 UNK        -0.5000 
     90 CA         -3.0368  -19.4484  -48.9194 C.3       16 UNK         0.1400 
     91 CB         -2.4685  -19.2694  -47.5067 C.3       16 UNK        -0.1800 
     92 C          -4.5380  -19.1119  -48.9272 C.2       16 UNK         0.5000 
     93 O          -4.8963  -17.9384  -49.0168 O.2       16 UNK        -0.5000 
     94 N          -5.3863  -20.1487  -48.8789 N.am      17 UNK        -0.5000 
     95 CA         -6.8447  -20.0542  -48.9921 C.3       17 UNK         0.1400 
     96 CB         -7.4631  -21.3759  -48.5096 C.3       17 UNK        -0.1800 
     97 C          -7.3300  -19.7120  -50.4184 C.2       17 UNK         0.5000 
     98 O          -8.5235  -19.4740  -50.6051 O.2       17 UNK        -0.5000 
     99 N          -6.4021  -19.7026  -51.3873 N.am      18 UNK        -0.5000 
    100 CA        -6.5794  -19.3970  -52.8085 C.3       18 UNK         0.1400 
    101 CB        -7.1457  -17.9779  -53.0236 C.3       18 UNK        -0.1800 
    102 C         -7.3498  -20.4839  -53.5809 C.2       18 UNK         0.5000 
    103 O         -7.8827  -20.2113  -54.6580 O.2       18 UNK        -0.5000 
    104 N         -7.3726  -21.7060  -53.0344 N.am      19 UNK        -0.5000 
    105 CA        -7.9254  -22.8885  -53.6866 C.3       19 UNK         0.1400 
    106 CB        -8.4594  -23.8560  -52.6192 C.3       19 UNK        -0.1800 
    107 C         -6.8717  -23.5718  -54.5744 C.2       19 UNK         0.5000 
    108 O         -7.2251  -24.0787  -55.6398 O.2       19 UNK        -0.5000 
    109 N         -5.6064  -23.5672  -54.1275 N.am      20 UNK        -0.5000 
    110 CA        -4.4868  -24.2180  -54.8142 C.3       20 UNK         0.1400 
    111 CB        -3.9043  -25.3070  -53.8974 C.3       20 UNK        -0.1800 
    112 C         -3.3810  -23.2445  -55.2617 C.2       20 UNK         0.5000 
    113 O         -2.5305  -23.6548  -56.0532 O.2       20 UNK        -0.5000 
    114 N         -3.3786  -21.9973  -54.7692 N.am      21 UNK        -0.5000 
    115 CA        -2.3525  -20.9996  -55.0815 C.3       21 UNK         0.1400 
    116 CB        -1.0364  -21.3044  -54.3241 C.3       21 UNK        -0.1800 
    117 C         -2.8893  -19.5721  -54.8614 C.2       21 UNK         0.5000 
    118 O         -4.0360  -19.2922  -55.2122 O.2       21 UNK        -0.5000 
    119 N         -2.0327  -18.6929  -54.3327 N.am      22 UNK        -0.5000 
    120 CA        -2.2347  -17.2516  -54.1196 C.3       22 UNK         0.1400 
    121 C         -3.2142  -16.8411  -52.9825 C.2       22 UNK         0.5000 
    122 N         -3.6213  -17.7250  -52.0859 N.am      22 UNK        -0.7600 
    123 O         -3.6196  -15.6840  -52.9183 O.2       22 UNK        -0.5000 
    124 C124       -0.8751  -16.4957  -53.9987 C.3       23 UNK        -0.0398 
    125 S125        0.5166  -17.4451  -53.2763 S.3       23 UNK        -0.2404 
    126 C126        0.0896  -17.5232  -51.5106 C.3       23 UNK        -0.0205 
    127 H127        3.2238  -10.1959  -44.8567 H         1 UNK         0.0600 
    128 H128        4.4862  -10.2213  -46.0922 H         1 UNK         0.0600 
    129 H129        2.8964   -9.5479  -46.4674 H         1 UNK         0.0600 
    130 H130        4.7629  -12.2323  -47.0133 H         1 UNK         0.3000 
    131 H131        2.8735  -14.3562  -46.6532 H         1 UNK         0.0600 
    132 H132        5.4388  -14.5723  -46.6623 H         1 UNK         0.0800 
    133 H133        5.3760  -14.5414  -48.3975 H         1 UNK         0.0800 
    134 H134        4.6506  -16.2216  -49.8236 H         1 UNK         0.0800 
    135 H135        5.4822  -17.6437  -49.2621 H         1 UNK         0.0800 
    136 H136        2.3082  -16.3100  -50.5183 H         1 UNK         0.1150 
    137 H137        0.4081  -20.1373  -50.7912 H         1 UNK         0.1150 
    138 H138        4.2083  -19.7640  -48.8369 H         1 UNK         0.1150 
    139 H139        1.5781  -22.1285  -50.1167 H         1 UNK         0.0800 
    140 H140        3.3029  -21.9988  -49.9280 H         1 UNK         0.0800 
    141 H141       -0.0874  -21.7085  -48.3498 H         1 UNK         0.0800 
    142 H142        0.4433  -20.6118  -47.1078 H         1 UNK         0.0800 
    143 H143        0.1949  -23.6102  -46.5854 H         1 UNK         0.0600 
    144 H144        0.8517  -21.3118  -44.9247 H         1 UNK         0.3000 
    145 H145        0.8326  -22.1281  -42.1589 H         1 UNK         0.0600 
    146 H146        2.8239  -23.2957  -41.1939 H         1 UNK         0.0600 
    147 H147        1.5335  -24.4075  -41.6181 H         1 UNK         0.0600 
    148 H148        2.9480  -24.2797  -42.6521 H         1 UNK         0.0600 
    149 H149        2.3104  -20.6192  -42.8103 H         1 UNK         0.3000 
    150 H150        5.3743  -20.5461  -44.0214 H         1 UNK         0.0600 
    151 H151        4.7182  -20.8440  -46.4147 H         1 UNK         0.0600 
    152 H152        5.0141  -19.1596  -46.0276 H         1 UNK         0.0600 
    153 H153        3.3607  -19.7456  -46.1857 H         1 UNK         0.0600 
    154 H154        2.8588  -18.9261  -43.8142 H         1 UNK         0.3000 
    155 H155        4.2534  -17.0901  -41.0847 H         1 UNK         0.0600 
    156 H156        3.4122  -16.1572  -43.8817 H         1 UNK         0.0600 
    157 H157        4.9276  -15.7674  -43.0818 H         1 UNK         0.0600 
    158 H158        3.4127  -15.1689  -42.4231 H         1 UNK         0.0600 
    159 H159        1.6851  -16.9509  -42.2384 H         1 UNK         0.3000 
    160 H160        0.1392  -19.4037  -40.1150 H         1 UNK         0.0600 
    161 H161       -1.1137  -17.3541  -39.4930 H         1 UNK         0.0600 
    162 H162        0.1555  -16.3386  -40.1741 H         1 UNK         0.0600 
    163 H163        0.4857  -17.3422  -38.7657 H         1 UNK         0.0600 
    164 H164       -0.2773  -17.4940  -42.3879 H         1 UNK         0.3000 
    165 H165       -1.6945  -20.0344  -44.3846 H         1 UNK         0.0600 
    166 H166       -3.6519  -18.5599  -44.6115 H         1 UNK         0.0600 
    167 H167       -3.7106  -19.3073  -43.0245 H         1 UNK         0.0600 
    168 H168       -3.1837  -17.6405  -43.1816 H         1 UNK         0.0600 
    169 H169       -1.4641  -17.2557  -44.8369 H         1 UNK         0.3000 
    170 H170        1.9459  -16.9736  -45.5733 H         1 UNK         0.0600 
    171 H171        1.0404  -18.0898  -47.6433 H         1 UNK         0.0600 
    172 H172       -0.3832  -17.0563  -47.5649 H         1 UNK         0.0600 
    173 H173        1.2089  -16.3548  -47.8298 H         1 UNK         0.0600 
    174 H174       -0.0191  -15.0875  -46.0693 H         1 UNK         0.3000 
    175 H175       -1.1254  -13.8691  -43.1888 H         1 UNK         0.0600 
    176 H176        1.7346  -12.9292  -43.7425 H         1 UNK         0.0600 
    177 H177        0.4685  -11.9137  -43.0515 H         1 UNK         0.0600 
    178 H178        1.0342  -13.3322  -42.1844 H         1 UNK         0.0600 
    179 H179        0.0206  -12.5724  -45.5598 H         1 UNK         0.3000 
    180 H180       -3.1119  -12.7632  -47.3517 H         1 UNK         0.0600 
    181 H181       -1.5015  -10.4661  -46.1121 H         1 UNK         0.0600 
    182 H182       -3.2141  -10.7761  -45.8518 H         1 UNK         0.0600 
    183 H183       -2.6405  -10.3304  -47.4511 H         1 UNK         0.0600 
    184 H184       -0.3648  -11.8205  -47.7978 H         1 UNK         0.3000 
    185 H185        0.3848  -14.4842  -50.0941 H         1 UNK         0.0600 
    186 H186       -0.3869  -12.3319  -51.1856 H         1 UNK         0.0600 
    187 H187        0.5038  -11.4095  -49.9788 H         1 UNK         0.0600 
    188 H188        1.3628  -12.4448  -51.1150 H         1 UNK         0.0600 
    189 H189        1.1254  -13.3089  -47.6021 H         1 UNK         0.3000 
    190 H190       -1.6550  -22.6168  -44.2922 H         1 UNK         0.3000 
    191 H191       -4.0372  -21.5563  -45.3113 H         1 UNK         0.0600 
    192 H192       -3.5991  -23.3290  -42.8456 H         1 UNK         0.0600 
    193 H193       -4.9656  -22.2521  -43.1088 H         1 UNK         0.0600 
    194 H194       -3.3571  -21.5892  -42.8964 H         1 UNK         0.0600 
    195 H195       -2.9311  -24.8238  -45.5919 H         1 UNK         0.3000 
    196 H196       -5.2973  -26.2943  -45.4178 H         1 UNK         0.0600 
    197 H197       -2.7616  -26.8670  -47.0425 H         1 UNK         0.0600 
    198 H198       -3.9863  -28.0576  -46.6200 H         1 UNK         0.0600 
    199 H199       -3.0371  -27.2968  -45.3539 H         1 UNK         0.0600 
    200 H200       -4.0749  -24.4708  -48.1804 H         1 UNK         0.3000 
    201 H201       -6.5253  -24.4309  -49.5628 H         1 UNK         0.0600 
    202 H202       -4.5075  -26.4182  -50.7596 H         1 UNK         0.0600 
    203 H203       -5.8988  -25.7747  -51.6215 H         1 UNK         0.0600 
    204 H204       -6.1435  -26.7935  -50.2247 H         1 UNK         0.0600 
    205 H205       -2.9798  -24.2208  -49.7143 H         1 UNK         0.3000 
    206 H206       -2.8107  -22.7474  -52.1052 H         1 UNK         0.0600 
    207 H207       -0.9226  -24.0097  -51.3650 H         1 UNK         0.0600 
    208 H208       -0.4323  -22.3284  -51.3054 H         1 UNK         0.0600 
    209 H209       -0.8501  -23.1827  -49.8186 H         1 UNK         0.0600 
    210 H210       -2.5642  -21.5192  -48.7122 H         1 UNK         0.3000 
    211 H211       -2.5343  -18.7316  -49.5722 H         1 UNK         0.0600 
    212 H212       -2.9154  -19.9652  -46.7980 H         1 UNK         0.0600 
    213 H213       -2.6589  -18.2612  -47.1364 H         1 UNK         0.0600 
    214 H214       -1.3915  -19.4127  -47.4994 H         1 UNK         0.0600 
    215 H215       -4.9968  -21.0773  -48.8206 H         1 UNK         0.3000 
    216 H216       -7.1868  -19.2553  -48.3310 H         1 UNK         0.0600 
    217 H217       -8.5507  -21.3052  -48.4695 H         1 UNK         0.0600 
    218 H218       -7.1185  -21.6363  -47.5084 H         1 UNK         0.0600 
    219 H219       -7.2170  -22.2004  -49.1769 H         1 UNK         0.0600 
    220 H220       -5.4601  -19.9550  -51.1220 H         1 UNK         0.3000 
    221 H221       -5.5735  -19.4066  -53.2209 H         1 UNK         0.0600 
    222 H222       -8.1921  -17.9068  -52.7266 H         1 UNK         0.0600 
    223 H223       -6.5821  -17.2376  -52.4560 H         1 UNK         0.0600 
    224 H224       -7.0846  -17.6915  -54.0741 H         1 UNK         0.0600 
    225 H225       -6.8749  -21.8597  -52.1641 H         1 UNK         0.3000 
    226 H226       -8.7648  -22.5987  -54.3225 H         1 UNK         0.0600 
    227 H227       -9.2495  -23.3910  -52.0294 H         1 UNK         0.0600 
    228 H228       -8.8800  -24.7512  -53.0790 H         1 UNK         0.0600 
    229 H229       -7.6774  -24.1763  -51.9324 H         1 UNK         0.0600 
    230 H230       -5.4206  -23.1659  -53.2155 H         1 UNK         0.3000 
    231 H231       -4.8339  -24.7121  -55.7238 H         1 UNK         0.0600 
    232 H232       -4.6509  -26.0679  -53.6713 H         1 UNK         0.0600 
    233 H233       -3.5436  -24.8969  -52.9552 H         1 UNK         0.0600 
    234 H234       -3.0652  -25.8155  -54.3740 H         1 UNK         0.0600 
    235 H235       -4.1402  -21.6780  -54.1890 H         1 UNK         0.3000 
    236 H236       -2.1401  -21.0616  -56.1508 H         1 UNK         0.0600 
    237 H237       -1.1346  -21.1304  -53.2545 H         1 UNK         0.0600 
    238 H238       -0.7195  -22.3378  -54.4619 H         1 UNK         0.0600 
    239 H239       -0.2190  -20.6795  -54.6858 H         1 UNK         0.0600 
    240 H240       -1.1183  -19.0245  -54.0606 H         1 UNK         0.3000 
    241 H241       -2.7179  -16.8824  -55.0264 H         1 UNK         0.0600 
    242 H242       -4.2461  -17.4175  -51.3573 H         1 UNK         0.3800 
    243 H243       -3.3097  -18.6941  -52.1101 H         1 UNK         0.3800 
    244 H244       -0.5536  -16.2158  -55.0027 H         1 UNK         0.0800 
    245 H245       -0.9713  -15.5471  -53.4666 H         1 UNK         0.0800 
    246 H246       -0.8242  -18.1044  -51.3809 H         1 UNK         0.0800 
    247 H247       -0.1214  -16.5223  -51.1341 H         1 UNK         0.0800 
@<TRIPOS>BOND
     1    1    2 1    
     2    1  127 1    
     3    1  128 1    
     4    1  129 1    
     5    2    3 2    
     6    2    4 am   BACKBONE|DICT|INTERRES
     7    4    5 1    
     8    4  130 1    
     9    5    6 1    
    10    5   65 1    
    11    5  131 1    
    12    6    7 1    
    13    6  132 1    
    14    6  133 1    
    15    7    8 1    
    16    8    9 1    
    17    8  134 1    
    18    8  135 1    
    19    9   10 ar   
    20    9   14 ar   
    21   10   11 ar   
    22   10  136 1    
    23   11   12 ar   
    24   11  126 1    
    25   12   13 ar   
    26   12  137 1    
    27   13   14 ar   
    28   13   15 1    
    29   14  138 1    
    30   15   16 1    
    31   15  139 1    
    32   15  140 1    
    33   16   17 1    
    34   17   18 1    
    35   17  141 1    
    36   17  142 1    
    37   18   19 1    
    38   18   67 1    
    39   18  143 1    
    40   19   20 am   BACKBONE|DICT|INTERRES
    41   19  144 1    
    42   20   21 2    
    43   20   22 1    
    44   22   23 1    
    45   22   24 1    
    46   22  145 1    
    47   23  146 1    
    48   23  147 1    
    49   23  148 1    
    50   24   25 am   BACKBONE|DICT|INTERRES
    51   24  149 1    
    52   25   26 2    
    53   25   27 1    
    54   27   28 1    
    55   27   29 1    
    56   27  150 1    
    57   28  151 1    
    58   28  152 1    
    59   28  153 1    
    60   29   30 am   BACKBONE|DICT|INTERRES
    61   29  154 1    
    62   30   31 2    
    63   30   32 1    
    64   32   33 1    
    65   32   34 1    
    66   32  155 1    
    67   33  156 1    
    68   33  157 1    
    69   33  158 1    
    70   34   35 am   BACKBONE|DICT|INTERRES
    71   34  159 1    
    72   35   36 2    
    73   35   37 1    
    74   37   38 1    
    75   37   39 1    
    76   37  160 1    
    77   38  161 1    
    78   38  162 1    
    79   38  163 1    
    80   39   40 am   BACKBONE|DICT|INTERRES
    81   39  164 1    
    82   40   41 2    
    83   40   42 1    
    84   42   43 1    
    85   42   44 1    
    86   42  165 1    
    87   43  166 1    
    88   43  167 1    
    89   43  168 1    
    90   44   45 am   BACKBONE|DICT|INTERRES
    91   44  169 1    
    92   45   46 2    
    93   45   47 1    
    94   47   48 1    
    95   47   49 1    
    96   47  170 1    
    97   48  171 1    
    98   48  172 1    
    99   48  173 1    
   100   49   50 am   BACKBONE|DICT|INTERRES
   101   49  174 1    
   102   50   51 2    
   103   50   52 1    
   104   52   53 1    
   105   52   54 1    
   106   52  175 1    
   107   53  176 1    
   108   53  177 1    
   109   53  178 1    
   110   54   55 am   BACKBONE|DICT|INTERRES
   111   54  179 1    
   112   55   56 2    
   113   55   57 1    
   114   57   58 1    
   115   57   59 1    
   116   57  180 1    
   117   58  181 1    
   118   58  182 1    
   119   58  183 1    
   120   59   60 am   BACKBONE|DICT|INTERRES
   121   59  184 1    
   122   60   61 2    
   123   60   62 1    
   124   62   63 1    
   125   62   64 1    
   126   62  185 1    
   127   63  186 1    
   128   63  187 1    
   129   63  188 1    
   130   64   65 am   BACKBONE|DICT|INTERRES
   131   64  189 1    
   132   65   66 2    
   133   67   68 2    
   134   67   69 am   BACKBONE|DICT|INTERRES
   135   69   70 1    
   136   69  190 1    
   137   70   71 1    
   138   70   72 1    
   139   70  191 1    
   140   71  192 1    
   141   71  193 1    
   142   71  194 1    
   143   72   73 2    
   144   72   74 am   BACKBONE|DICT|INTERRES
   145   74   75 1    
   146   74  195 1    
   147   75   76 1    
   148   75   77 1    
   149   75  196 1    
   150   76  197 1    
   151   76  198 1    
   152   76  199 1    
   153   77   78 2    
   154   77   79 am   BACKBONE|DICT|INTERRES
   155   79   80 1    
   156   79  200 1    
   157   80   81 1    
   158   80   82 1    
   159   80  201 1    
   160   81  202 1    
   161   81  203 1    
   162   81  204 1    
   163   82   83 2    
   164   82   84 am   BACKBONE|DICT|INTERRES
   165   84   85 1    
   166   84  205 1    
   167   85   86 1    
   168   85   87 1    
   169   85  206 1    
   170   86  207 1    
   171   86  208 1    
   172   86  209 1    
   173   87   88 2    
   174   87   89 am   BACKBONE|DICT|INTERRES
   175   89   90 1    
   176   89  210 1    
   177   90   91 1    
   178   90   92 1    
   179   90  211 1    
   180   91  212 1    
   181   91  213 1    
   182   91  214 1    
   183   92   93 2    
   184   92   94 am   BACKBONE|DICT|INTERRES
   185   94   95 1    
   186   94  215 1    
   187   95   96 1    
   188   95   97 1    
   189   95  216 1    
   190   96  217 1    
   191   96  218 1    
   192   96  219 1    
   193   97   98 2    
   194   97   99 am   BACKBONE|DICT|INTERRES
   195   99  100 1    
   196   99  220 1    
   197  100  101 1    
   198  100  102 1    
   199  100  221 1    
   200  101  222 1    
   201  101  223 1    
   202  101  224 1    
   203  102  103 2    
   204  102  104 am   BACKBONE|DICT|INTERRES
   205  104  105 1    
   206  104  225 1    
   207  105  106 1    
   208  105  107 1    
   209  105  226 1    
   210  106  227 1    
   211  106  228 1    
   212  106  229 1    
   213  107  108 2    
   214  107  109 am   BACKBONE|DICT|INTERRES
   215  109  110 1    
   216  109  230 1    
   217  110  111 1    
   218  110  112 1    
   219  110  231 1    
   220  111  232 1    
   221  111  233 1    
   222  111  234 1    
   223  112  113 2    
   224  112  114 am   BACKBONE|DICT|INTERRES
   225  114  115 1    
   226  114  235 1    
   227  115  116 1    
   228  115  117 1    
   229  115  236 1    
   230  116  237 1    
   231  116  238 1    
   232  116  239 1    
   233  117  118 2    
   234  117  119 am   BACKBONE|DICT|INTERRES
   235  119  120 1    
   236  119  240 1    
   237  120  121 1    
   238  120  124 1    
   239  120  241 1    
   240  121  122 am   BACKBONE|DICT|INTERRES
   241  121  123 2    
   242  122  242 1    
   243  122  243 1    
   244  124  125 1    
   245  124  244 1    
   246  124  245 1    
   247  125  126 1    
   248  126  246 1    
   249  126  247 1    
@<TRIPOS>SUBSTRUCTURE
     1 UNK         1 GROUP             0       ****    0 ROOT    
