@<TRIPOS>MOLECULE
3R540
247   249    1
SMALL
USER_CHARGES


@<TRIPOS>ATOM
      1 CA         -1.8871  -10.4044  -44.6296 C.3       0 UNK        -0.1800 
      2 C          -1.9382  -11.9278  -44.7266 C.2       0 UNK         0.5000 
      3 O          -2.4568  -12.5741  -43.8193 O.2       0 UNK        -0.5000 
      4 N          -1.4259  -12.5508  -45.7979 N.am      1 UNK        -0.5000 
      5 CA         -0.7653  -11.9353  -46.9623 C.3       1 UNK         0.1400 
      6 C6         -0.7853  -12.8665  -48.2010 C.3       23 UNK        -0.0398 
      7 S7         -2.4900  -13.2687  -48.7171 S.3       23 UNK        -0.2404 
      8 C8         -2.6653  -14.9897  -48.1528 C.3       23 UNK        -0.0205 
      9 C9         -2.4156  -15.9789  -49.2804 C.ar      23 UNK        -0.0193 
     10 C10        -3.4912  -16.4730  -50.0233 C.ar      23 UNK        -0.1150 
     11 C11        -3.2945  -17.4090  -51.0428 C.ar      23 UNK        -0.0193 
     12 C12        -1.9876  -17.8270  -51.3298 C.ar      23 UNK        -0.1150 
     13 C13        -0.9019  -17.3406  -50.5970 C.ar      23 UNK        -0.0193 
     14 C14        -1.1219  -16.4192  -49.5690 C.ar      23 UNK        -0.1150 
     15 C15         0.5092  -17.8085  -50.9258 C.3       23 UNK        -0.0205 
     16 S16         0.7639  -19.5779  -50.5709 S.3       23 UNK        -0.2404 
     17 C17         0.5738  -19.6199  -48.7575 C.3       23 UNK        -0.0398 
     18 CA         -0.3611  -20.7497  -48.2641 C.3       11 UNK         0.1400 
     19 N          -0.1745  -20.9942  -46.8345 N.am      11 UNK        -0.5000 
     20 C          -0.6544  -22.0437  -46.1552 C.2       10 UNK         0.5000 
     21 O          -1.2338  -22.9944  -46.6781 O.2       10 UNK        -0.5000 
     22 CA         -0.4816  -22.0037  -44.6253 C.3       10 UNK         0.1400 
     23 CB          0.8750  -22.5930  -44.2101 C.3       10 UNK        -0.1800 
     24 N          -0.6126  -20.6475  -44.0856 N.am      10 UNK        -0.5000 
     25 C          -1.7637  -19.9615  -44.0407 C.2       9 UNK         0.5000 
     26 O          -2.8427  -20.4165  -44.4176 O.2       9 UNK        -0.5000 
     27 CA         -1.6890  -18.5096  -43.5309 C.3       9 UNK         0.1400 
     28 CB         -1.7259  -18.4705  -41.9961 C.3       9 UNK        -0.1800 
     29 N          -0.5016  -17.7995  -44.0099 N.am      9 UNK        -0.5000 
     30 C          -0.2608  -17.5191  -45.2981 C.2       8 UNK         0.5000 
     31 O          -1.0370  -17.7935  -46.2115 O.2       8 UNK        -0.5000 
     32 CA          1.0959  -16.8764  -45.6334 C.3       8 UNK         0.1400 
     33 CB          1.0586  -15.3615  -45.3970 C.3       8 UNK        -0.1800 
     34 N           2.2074  -17.4653  -44.8861 N.am      8 UNK        -0.5000 
     35 C           2.6017  -18.7424  -44.9667 C.2       7 UNK         0.5000 
     36 O           2.0645  -19.5666  -45.7049 O.2       7 UNK        -0.5000 
     37 CA          3.7466  -19.2012  -44.0418 C.3       7 UNK         0.1400 
     38 CB          5.1248  -18.8625  -44.6406 C.3       7 UNK        -0.1800 
     39 N           3.6120  -18.7308  -42.6556 N.am      7 UNK        -0.5000 
     40 C           3.7056  -17.4797  -42.1871 C.2       6 UNK         0.5000 
     41 O           4.0230  -16.5043  -42.8729 O.2       6 UNK        -0.5000 
     42 CA          3.3413  -17.2871  -40.7037 C.3       6 UNK         0.1400 
     43 CB          4.6075  -17.2870  -39.8345 C.3       6 UNK        -0.1800 
     44 N           2.6106  -16.0424  -40.4719 N.am      6 UNK        -0.5000 
     45 C           1.4752  -15.6573  -41.0680 C.2       5 UNK         0.5000 
     46 O           0.8457  -16.3696  -41.8521 O.2       5 UNK        -0.5000 
     47 CA          0.9626  -14.2325  -40.7660 C.3       5 UNK         0.1400 
     48 CB         -0.0373  -14.2403  -39.5954 C.3       5 UNK        -0.1800 
     49 N           2.0144  -13.2201  -40.5711 N.am      5 UNK        -0.5000 
     50 C           2.9279  -13.1164  -39.5910 C.2       4 UNK         0.5000 
     51 O           2.9960  -13.8953  -38.6399 O.2       4 UNK        -0.5000 
     52 CA          3.9871  -12.0010  -39.7082 C.3       4 UNK         0.1400 
     53 CB          5.3596  -12.6102  -40.0389 C.3       4 UNK        -0.1800 
     54 N           3.6694  -10.9990  -40.7248 N.am      4 UNK        -0.5000 
     55 C           2.7852  -10.0045  -40.5741 C.2       3 UNK         0.5000 
     56 O           2.1796   -9.7799  -39.5257 O.2       3 UNK        -0.5000 
     57 CA          2.5166   -9.1268  -41.8138 C.3       3 UNK         0.1400 
     58 CB          3.3589   -7.8433  -41.7555 C.3       3 UNK        -0.1800 
     59 N           2.7631   -9.8033  -43.0944 N.am      3 UNK        -0.5000 
     60 C           2.0904  -10.8750  -43.5318 C.2       2 UNK         0.5000 
     61 O           1.2279  -11.4591  -42.8709 O.2       2 UNK        -0.5000 
     62 CA          2.4605  -11.4111  -44.9198 C.3       2 UNK         0.1400 
     63 CB          3.4814  -12.5532  -44.7924 C.3       2 UNK        -0.1800 
     64 N           1.2359  -11.9205  -45.5272 N.am      2 UNK        -0.5000 
     65 C           0.6742  -11.4639  -46.6526 C.2       1 UNK         0.5000 
     66 O           1.2262  -10.6736  -47.4187 O.2       1 UNK        -0.5000 
     67 C          -1.8468  -20.4947  -48.6062 C.2       11 UNK         0.5000 
     68 O          -2.3392  -21.0191  -49.6038 O.2       11 UNK        -0.5000 
     69 N          -2.5432  -19.7324  -47.7513 N.am      12 UNK        -0.5000 
     70 CA         -3.9685  -19.4386  -47.8785 C.3       12 UNK         0.1400 
     71 CB         -4.3456  -18.3035  -46.9149 C.3       12 UNK        -0.1800 
     72 C          -4.8655  -20.6653  -47.6389 C.2       12 UNK         0.5000 
     73 O          -5.8217  -20.8603  -48.3908 O.2       12 UNK        -0.5000 
     74 N          -4.5498  -21.4516  -46.5973 N.am      13 UNK        -0.5000 
     75 CA         -5.2938  -22.6224  -46.1204 C.3       13 UNK         0.1400 
     76 CB         -4.5460  -23.2459  -44.9304 C.3       13 UNK        -0.1800 
     77 C          -5.5530  -23.6678  -47.2215 C.2       13 UNK         0.5000 
     78 O          -4.6521  -24.4340  -47.5688 O.2       13 UNK        -0.5000 
     79 N          -6.7709  -23.6349  -47.7838 N.am      14 UNK        -0.5000 
     80 CA         -7.2481  -24.4370  -48.9174 C.3       14 UNK         0.1400 
     81 CB         -7.4164  -25.9121  -48.4957 C.3       14 UNK        -0.1800 
     82 C          -6.3788  -24.2792  -50.1851 C.2       14 UNK         0.5000 
     83 O          -6.2395  -25.2336  -50.9509 O.2       14 UNK        -0.5000 
     84 N          -5.7643  -23.0974  -50.3560 N.am      15 UNK        -0.5000 
     85 CA         -4.7518  -22.7769  -51.3687 C.3       15 UNK         0.1400 
     86 CB         -5.3860  -22.7178  -52.7753 C.3       15 UNK        -0.1800 
     87 C          -3.5310  -23.7212  -51.2968 C.2       15 UNK         0.5000 
     88 O          -3.0594  -24.1963  -52.3310 O.2       15 UNK        -0.5000 
     89 N          -3.0827  -24.0174  -50.0673 N.am      16 UNK        -0.5000 
     90 CA         -2.0291  -24.9697  -49.7044 C.3       16 UNK         0.1400 
     91 CB         -0.6627  -24.5211  -50.2633 C.3       16 UNK        -0.1800 
     92 C          -2.3993  -26.4100  -50.1103 C.2       16 UNK         0.5000 
     93 O          -1.5628  -27.1339  -50.6494 O.2       16 UNK        -0.5000 
     94 N          -3.6710  -26.7784  -49.8917 N.am      17 UNK        -0.5000 
     95 CA         -4.3260  -27.9998  -50.3794 C.3       17 UNK         0.1400 
     96 CB         -3.7647  -29.2498  -49.6706 C.3       17 UNK        -0.1800 
     97 C          -4.2765  -28.0924  -51.9213 C.2       17 UNK         0.5000 
     98 O          -3.8784  -29.1160  -52.4795 O.2       17 UNK        -0.5000 
     99 N          -4.6500  -26.9783  -52.5653 N.am      18 UNK        -0.5000 
    100 CA        -4.6552  -26.6988  -54.0046 C.3       18 UNK         0.1400 
    101 CB        -5.5959  -27.6672  -54.7501 C.3       18 UNK        -0.1800 
    102 C         -3.2639  -26.6130  -54.6722 C.2       18 UNK         0.5000 
    103 O         -3.2050  -26.4430  -55.8910 O.2       18 UNK        -0.5000 
    104 N         -2.1710  -26.7005  -53.8998 N.am      19 UNK        -0.5000 
    105 CA        -0.8001  -26.6412  -54.4122 C.3       19 UNK         0.1400 
    106 CB         0.1687  -27.2292  -53.3764 C.3       19 UNK        -0.1800 
    107 C         -0.3553  -25.2239  -54.8193 C.2       19 UNK         0.5000 
    108 O          0.4697  -25.0978  -55.7256 O.2       19 UNK        -0.5000 
    109 N         -0.8931  -24.1859  -54.1608 N.am      20 UNK        -0.5000 
    110 CA        -0.6059  -22.7848  -54.4820 C.3       20 UNK         0.1400 
    111 CB        -0.9032  -21.8921  -53.2649 C.3       20 UNK        -0.1800 
    112 C         -1.4062  -22.3033  -55.7042 C.2       20 UNK         0.5000 
    113 O         -0.9265  -21.4359  -56.4346 O.2       20 UNK        -0.5000 
    114 N         -2.6082  -22.8743  -55.8926 N.am      21 UNK        -0.5000 
    115 CA        -3.5686  -22.6035  -56.9720 C.3       21 UNK         0.1400 
    116 CB        -3.0259  -23.1322  -58.3153 C.3       21 UNK        -0.1800 
    117 C         -4.0172  -21.1249  -57.0453 C.2       21 UNK         0.5000 
    118 O         -4.3072  -20.6139  -58.1284 O.2       21 UNK        -0.5000 
    119 N         -4.0522  -20.4637  -55.8828 N.am      22 UNK        -0.5000 
    120 CA        -4.3509  -19.0340  -55.7110 C.3       22 UNK         0.1400 
    121 C         -5.8570  -18.6462  -55.8095 C.2       22 UNK         0.5000 
    122 N         -6.7854  -19.5908  -55.8997 N.am      22 UNK        -0.7600 
    123 O         -6.1874  -17.4635  -55.8197 O.2       22 UNK        -0.5000 
    124 C124       -3.6819  -18.4888  -54.4226 C.3       23 UNK        -0.0398 
    125 S125       -4.2402  -19.3454  -52.9064 S.3       23 UNK        -0.2404 
    126 C126       -4.5293  -17.9453  -51.7721 C.3       23 UNK        -0.0205 
    127 H127       -2.3842  -10.0653  -43.7205 H         1 UNK         0.0600 
    128 H128       -2.3953   -9.9416  -45.4754 H         1 UNK         0.0600 
    129 H129       -0.8588  -10.0465  -44.5944 H         1 UNK         0.0600 
    130 H130       -1.5156  -13.5540  -45.8401 H         1 UNK         0.3000 
    131 H131       -1.3260  -11.0388  -47.2327 H         1 UNK         0.0600 
    132 H132       -0.3014  -12.3793  -49.0496 H         1 UNK         0.0800 
    133 H133       -0.2183  -13.7799  -48.0187 H         1 UNK         0.0800 
    134 H134       -3.6777  -15.1175  -47.7671 H         1 UNK         0.0800 
    135 H135       -2.0004  -15.1988  -47.3141 H         1 UNK         0.0800 
    136 H136       -4.4935  -16.1399  -49.7926 H         1 UNK         0.1150 
    137 H137       -1.7955  -18.5500  -52.1079 H         1 UNK         0.1150 
    138 H138       -0.2883  -16.0454  -48.9921 H         1 UNK         0.1150 
    139 H139        0.7013  -17.6325  -51.9851 H         1 UNK         0.0800 
    140 H140        1.2513  -17.2239  -50.3799 H         1 UNK         0.0800 
    141 H141        0.2397  -18.6527  -48.3837 H         1 UNK         0.0800 
    142 H142        1.5740  -19.7650  -48.3476 H         1 UNK         0.0800 
    143 H143       -0.0626  -21.6663  -48.7726 H         1 UNK         0.0600 
    144 H144        0.3682  -20.3020  -46.3279 H         1 UNK         0.3000 
    145 H145       -1.2679  -22.6218  -44.1864 H         1 UNK         0.0600 
    146 H146        1.7084  -22.0223  -44.6201 H         1 UNK         0.0600 
    147 H147        0.9817  -22.6127  -43.1255 H         1 UNK         0.0600 
    148 H148        0.9766  -23.6194  -44.5650 H         1 UNK         0.0600 
    149 H149        0.2351  -20.1875  -43.7907 H         1 UNK         0.3000 
    150 H150       -2.5689  -17.9825  -43.9057 H         1 UNK         0.0600 
    151 H151       -2.5999  -18.9975  -41.6113 H         1 UNK         0.0600 
    152 H152       -1.7787  -17.4446  -41.6310 H         1 UNK         0.0600 
    153 H153       -0.8408  -18.9347  -41.5595 H         1 UNK         0.0600 
    154 H154        0.1514  -17.4708  -43.3034 H         1 UNK         0.3000 
    155 H155        1.2839  -17.0469  -46.6953 H         1 UNK         0.0600 
    156 H156        1.9641  -14.8880  -45.7750 H         1 UNK         0.0600 
    157 H157        0.9645  -15.1165  -44.3386 H         1 UNK         0.0600 
    158 H158        0.2152  -14.9102  -45.9171 H         1 UNK         0.0600 
    159 H159        2.7071  -16.8626  -44.2388 H         1 UNK         0.3000 
    160 H160        3.6806  -20.2890  -43.9861 H         1 UNK         0.0600 
    161 H161        5.9314  -19.2182  -43.9996 H         1 UNK         0.0600 
    162 H162        5.2594  -17.7906  -44.7869 H         1 UNK         0.0600 
    163 H163        5.2493  -19.3382  -45.6142 H         1 UNK         0.0600 
    164 H164        3.3382  -19.4495  -41.9999 H         1 UNK         0.3000 
    165 H165        2.6958  -18.1087  -40.3873 H         1 UNK         0.0600 
    166 H166        5.2705  -16.4601  -40.0931 H         1 UNK         0.0600 
    167 H167        4.3601  -17.1992  -38.7764 H         1 UNK         0.0600 
    168 H168        5.1706  -18.2126  -39.9610 H         1 UNK         0.0600 
    169 H169        3.0206  -15.3903  -39.8115 H         1 UNK         0.3000 
    170 H170        0.4170  -13.9126  -41.6554 H         1 UNK         0.0600 
    171 H171        0.4221  -14.5784  -38.6664 H         1 UNK         0.0600 
    172 H172       -0.4507  -13.2463  -39.4247 H         1 UNK         0.0600 
    173 H173       -0.8734  -14.9086  -39.8056 H         1 UNK         0.0600 
    174 H174        2.0387  -12.5183  -41.3026 H         1 UNK         0.3000 
    175 H175        4.0556  -11.5090  -38.7357 H         1 UNK         0.0600 
    176 H176        5.3499  -13.1267  -40.9998 H         1 UNK         0.0600 
    177 H177        6.1334  -11.8432  -40.0766 H         1 UNK         0.0600 
    178 H178        5.6606  -13.3348  -39.2810 H         1 UNK         0.0600 
    179 H179        4.1272  -11.0983  -41.6187 H         1 UNK         0.3000 
    180 H180        1.4620   -8.8442  -41.7865 H         1 UNK         0.0600 
    181 H181        4.4265   -8.0600  -41.8080 H         1 UNK         0.0600 
    182 H182        3.1797   -7.2995  -40.8269 H         1 UNK         0.0600 
    183 H183        3.1109   -7.1702  -42.5765 H         1 UNK         0.0600 
    184 H184        3.4677   -9.3898  -43.6886 H         1 UNK         0.3000 
    185 H185        2.8914  -10.6038  -45.5156 H         1 UNK         0.0600 
    186 H186        4.4181  -12.1939  -44.3648 H         1 UNK         0.0600 
    187 H187        3.1159  -13.3565  -44.1508 H         1 UNK         0.0600 
    188 H188        3.7137  -12.9825  -45.7671 H         1 UNK         0.0600 
    189 H189        0.6740  -12.4988  -44.9172 H         1 UNK         0.3000 
    190 H190       -2.0487  -19.2704  -46.9947 H         1 UNK         0.3000 
    191 H191       -4.1463  -19.0940  -48.8977 H         1 UNK         0.0600 
    192 H192       -4.2446  -18.6055  -45.8725 H         1 UNK         0.0600 
    193 H193       -3.7123  -17.4317  -47.0661 H         1 UNK         0.0600 
    194 H194       -5.3785  -17.9893  -47.0684 H         1 UNK         0.0600 
    195 H195       -3.7614  -21.1734  -46.0214 H         1 UNK         0.3000 
    196 H196       -6.2578  -22.2661  -45.7526 H         1 UNK         0.0600 
    197 H197       -4.4813  -22.5492  -44.0949 H         1 UNK         0.0600 
    198 H198       -3.5316  -23.5393  -45.2023 H         1 UNK         0.0600 
    199 H199       -5.0597  -24.1374  -44.5685 H         1 UNK         0.0600 
    200 H200       -7.4158  -22.9264  -47.4614 H         1 UNK         0.3000 
    201 H201       -8.2343  -24.0506  -49.1780 H         1 UNK         0.0600 
    202 H202       -7.8811  -26.4982  -49.2896 H         1 UNK         0.0600 
    203 H203       -8.0547  -25.9990  -47.6165 H         1 UNK         0.0600 
    204 H204       -6.4596  -26.3791  -48.2610 H         1 UNK         0.0600 
    205 H205       -5.9234  -22.3736  -49.6600 H         1 UNK         0.3000 
    206 H206       -4.3813  -21.7801  -51.1297 H         1 UNK         0.0600 
    207 H207       -5.7976  -23.6790  -53.0801 H         1 UNK         0.0600 
    208 H208       -4.6505  -22.4244  -53.5242 H         1 UNK         0.0600 
    209 H209       -6.1911  -21.9840  -52.8099 H         1 UNK         0.0600 
    210 H210       -3.5704  -23.6143  -49.2769 H         1 UNK         0.3000 
    211 H211       -1.9657  -24.9568  -48.6155 H         1 UNK         0.0600 
    212 H212       -0.4560  -23.4833  -50.0124 H         1 UNK         0.0600 
    213 H213        0.1448  -25.1257  -49.8494 H         1 UNK         0.0600 
    214 H214       -0.6157  -24.6127  -51.3475 H         1 UNK         0.0600 
    215 H215       -4.2787  -26.0997  -49.4521 H         1 UNK         0.3000 
    216 H216       -5.3799  -27.9145  -50.1108 H         1 UNK         0.0600 
    217 H217       -4.3277  -30.1406  -49.9511 H         1 UNK         0.0600 
    218 H218       -2.7205  -29.4306  -49.9268 H         1 UNK         0.0600 
    219 H219       -3.8319  -29.1509  -48.5873 H         1 UNK         0.0600 
    220 H220       -4.9976  -26.2150  -51.9891 H         1 UNK         0.3000 
    221 H221       -5.0811  -25.7001  -54.1003 H         1 UNK         0.0600 
    222 H222       -5.2045  -28.6846  -54.7627 H         1 UNK         0.0600 
    223 H223       -5.7332  -27.3599  -55.7875 H         1 UNK         0.0600 
    224 H224       -6.5830  -27.6916  -54.2884 H         1 UNK         0.0600 
    225 H225       -2.2838  -26.8094  -52.9004 H         1 UNK         0.3000 
    226 H226       -0.7483  -27.2698  -55.3038 H         1 UNK         0.0600 
    227 H227       -0.1441  -28.2242  -53.0589 H         1 UNK         0.0600 
    228 H228        1.1727  -27.3198  -53.7924 H         1 UNK         0.0600 
    229 H229        0.2418  -26.5999  -52.4897 H         1 UNK         0.0600 
    230 H230       -1.5937  -24.3556  -53.4412 H         1 UNK         0.3000 
    231 H231        0.4568  -22.6877  -54.7144 H         1 UNK         0.0600 
    232 H232       -0.5807  -20.8665  -53.4484 H         1 UNK         0.0600 
    233 H233       -0.3788  -22.2406  -52.3753 H         1 UNK         0.0600 
    234 H234       -1.9676  -21.8550  -53.0343 H         1 UNK         0.0600 
    235 H235       -2.8826  -23.5881  -55.2327 H         1 UNK         0.3000 
    236 H236       -4.4644  -23.1777  -56.7318 H         1 UNK         0.0600 
    237 H237       -2.7375  -24.1807  -58.2361 H         1 UNK         0.0600 
    238 H238       -3.7810  -23.0634  -59.0992 H         1 UNK         0.0600 
    239 H239       -2.1541  -22.5687  -58.6490 H         1 UNK         0.0600 
    240 H240       -3.8084  -20.9588  -55.0386 H         1 UNK         0.3000 
    241 H241       -3.8768  -18.5138  -56.5455 H         1 UNK         0.0600 
    242 H242       -7.7560  -19.3286  -55.9693 H         1 UNK         0.3800 
    243 H243       -6.5265  -20.5636  -55.8959 H         1 UNK         0.3800 
    244 H244       -3.8467  -17.4140  -54.3326 H         1 UNK         0.0800 
    245 H245       -2.6005  -18.6114  -54.4959 H         1 UNK         0.0800 
    246 H246       -5.0161  -17.1311  -52.3105 H         1 UNK         0.0800 
    247 H247       -5.2468  -18.2834  -51.0231 H         1 UNK         0.0800 
@<TRIPOS>BOND
     1    1    2 1    
     2    1  127 1    
     3    1  128 1    
     4    1  129 1    
     5    2    3 2    
     6    2    4 am   BACKBONE|DICT|INTERRES
     7    4    5 1    
     8    4  130 1    
     9    5    6 1    
    10    5   65 1    
    11    5  131 1    
    12    6    7 1    
    13    6  132 1    
    14    6  133 1    
    15    7    8 1    
    16    8    9 1    
    17    8  134 1    
    18    8  135 1    
    19    9   10 ar   
    20    9   14 ar   
    21   10   11 ar   
    22   10  136 1    
    23   11   12 ar   
    24   11  126 1    
    25   12   13 ar   
    26   12  137 1    
    27   13   14 ar   
    28   13   15 1    
    29   14  138 1    
    30   15   16 1    
    31   15  139 1    
    32   15  140 1    
    33   16   17 1    
    34   17   18 1    
    35   17  141 1    
    36   17  142 1    
    37   18   19 1    
    38   18   67 1    
    39   18  143 1    
    40   19   20 am   BACKBONE|DICT|INTERRES
    41   19  144 1    
    42   20   21 2    
    43   20   22 1    
    44   22   23 1    
    45   22   24 1    
    46   22  145 1    
    47   23  146 1    
    48   23  147 1    
    49   23  148 1    
    50   24   25 am   BACKBONE|DICT|INTERRES
    51   24  149 1    
    52   25   26 2    
    53   25   27 1    
    54   27   28 1    
    55   27   29 1    
    56   27  150 1    
    57   28  151 1    
    58   28  152 1    
    59   28  153 1    
    60   29   30 am   BACKBONE|DICT|INTERRES
    61   29  154 1    
    62   30   31 2    
    63   30   32 1    
    64   32   33 1    
    65   32   34 1    
    66   32  155 1    
    67   33  156 1    
    68   33  157 1    
    69   33  158 1    
    70   34   35 am   BACKBONE|DICT|INTERRES
    71   34  159 1    
    72   35   36 2    
    73   35   37 1    
    74   37   38 1    
    75   37   39 1    
    76   37  160 1    
    77   38  161 1    
    78   38  162 1    
    79   38  163 1    
    80   39   40 am   BACKBONE|DICT|INTERRES
    81   39  164 1    
    82   40   41 2    
    83   40   42 1    
    84   42   43 1    
    85   42   44 1    
    86   42  165 1    
    87   43  166 1    
    88   43  167 1    
    89   43  168 1    
    90   44   45 am   BACKBONE|DICT|INTERRES
    91   44  169 1    
    92   45   46 2    
    93   45   47 1    
    94   47   48 1    
    95   47   49 1    
    96   47  170 1    
    97   48  171 1    
    98   48  172 1    
    99   48  173 1    
   100   49   50 am   BACKBONE|DICT|INTERRES
   101   49  174 1    
   102   50   51 2    
   103   50   52 1    
   104   52   53 1    
   105   52   54 1    
   106   52  175 1    
   107   53  176 1    
   108   53  177 1    
   109   53  178 1    
   110   54   55 am   BACKBONE|DICT|INTERRES
   111   54  179 1    
   112   55   56 2    
   113   55   57 1    
   114   57   58 1    
   115   57   59 1    
   116   57  180 1    
   117   58  181 1    
   118   58  182 1    
   119   58  183 1    
   120   59   60 am   BACKBONE|DICT|INTERRES
   121   59  184 1    
   122   60   61 2    
   123   60   62 1    
   124   62   63 1    
   125   62   64 1    
   126   62  185 1    
   127   63  186 1    
   128   63  187 1    
   129   63  188 1    
   130   64   65 am   BACKBONE|DICT|INTERRES
   131   64  189 1    
   132   65   66 2    
   133   67   68 2    
   134   67   69 am   BACKBONE|DICT|INTERRES
   135   69   70 1    
   136   69  190 1    
   137   70   71 1    
   138   70   72 1    
   139   70  191 1    
   140   71  192 1    
   141   71  193 1    
   142   71  194 1    
   143   72   73 2    
   144   72   74 am   BACKBONE|DICT|INTERRES
   145   74   75 1    
   146   74  195 1    
   147   75   76 1    
   148   75   77 1    
   149   75  196 1    
   150   76  197 1    
   151   76  198 1    
   152   76  199 1    
   153   77   78 2    
   154   77   79 am   BACKBONE|DICT|INTERRES
   155   79   80 1    
   156   79  200 1    
   157   80   81 1    
   158   80   82 1    
   159   80  201 1    
   160   81  202 1    
   161   81  203 1    
   162   81  204 1    
   163   82   83 2    
   164   82   84 am   BACKBONE|DICT|INTERRES
   165   84   85 1    
   166   84  205 1    
   167   85   86 1    
   168   85   87 1    
   169   85  206 1    
   170   86  207 1    
   171   86  208 1    
   172   86  209 1    
   173   87   88 2    
   174   87   89 am   BACKBONE|DICT|INTERRES
   175   89   90 1    
   176   89  210 1    
   177   90   91 1    
   178   90   92 1    
   179   90  211 1    
   180   91  212 1    
   181   91  213 1    
   182   91  214 1    
   183   92   93 2    
   184   92   94 am   BACKBONE|DICT|INTERRES
   185   94   95 1    
   186   94  215 1    
   187   95   96 1    
   188   95   97 1    
   189   95  216 1    
   190   96  217 1    
   191   96  218 1    
   192   96  219 1    
   193   97   98 2    
   194   97   99 am   BACKBONE|DICT|INTERRES
   195   99  100 1    
   196   99  220 1    
   197  100  101 1    
   198  100  102 1    
   199  100  221 1    
   200  101  222 1    
   201  101  223 1    
   202  101  224 1    
   203  102  103 2    
   204  102  104 am   BACKBONE|DICT|INTERRES
   205  104  105 1    
   206  104  225 1    
   207  105  106 1    
   208  105  107 1    
   209  105  226 1    
   210  106  227 1    
   211  106  228 1    
   212  106  229 1    
   213  107  108 2    
   214  107  109 am   BACKBONE|DICT|INTERRES
   215  109  110 1    
   216  109  230 1    
   217  110  111 1    
   218  110  112 1    
   219  110  231 1    
   220  111  232 1    
   221  111  233 1    
   222  111  234 1    
   223  112  113 2    
   224  112  114 am   BACKBONE|DICT|INTERRES
   225  114  115 1    
   226  114  235 1    
   227  115  116 1    
   228  115  117 1    
   229  115  236 1    
   230  116  237 1    
   231  116  238 1    
   232  116  239 1    
   233  117  118 2    
   234  117  119 am   BACKBONE|DICT|INTERRES
   235  119  120 1    
   236  119  240 1    
   237  120  121 1    
   238  120  124 1    
   239  120  241 1    
   240  121  122 am   BACKBONE|DICT|INTERRES
   241  121  123 2    
   242  122  242 1    
   243  122  243 1    
   244  124  125 1    
   245  124  244 1    
   246  124  245 1    
   247  125  126 1    
   248  126  246 1    
   249  126  247 1    
@<TRIPOS>SUBSTRUCTURE
     1 UNK         1 GROUP             0       ****    0 ROOT    
