@<TRIPOS>MOLECULE
3R540
247   249    1
SMALL
USER_CHARGES


@<TRIPOS>ATOM
      1 CA          0.0554   -9.4275  -49.3363 C.3       0 UNK        -0.1800 
      2 C          -0.3787  -10.0917  -48.0378 C.2       0 UNK         0.5000 
      3 O          -1.0010   -9.4421  -47.1977 O.2       0 UNK        -0.5000 
      4 N          -0.0308  -11.3738  -47.8619 N.am      1 UNK        -0.5000 
      5 CA         -0.3583  -12.2693  -46.7376 C.3       1 UNK         0.1400 
      6 C6         -1.8783  -12.4716  -46.5016 C.3       23 UNK        -0.0398 
      7 S7         -2.6969  -13.2315  -47.9428 S.3       23 UNK        -0.2404 
      8 C8         -2.5501  -14.9840  -47.4873 C.3       23 UNK        -0.0205 
      9 C9         -2.9014  -15.8984  -48.6488 C.ar      23 UNK        -0.0193 
     10 C10        -1.9482  -16.1831  -49.6298 C.ar      23 UNK        -0.1150 
     11 C11        -2.2274  -17.0712  -50.6727 C.ar      23 UNK        -0.0193 
     12 C12        -3.5039  -17.6488  -50.7413 C.ar      23 UNK        -0.1150 
     13 C13        -4.4734  -17.3575  -49.7753 C.ar      23 UNK        -0.0193 
     14 C14        -4.1646  -16.4857  -48.7286 C.ar      23 UNK        -0.1150 
     15 C15        -5.8635  -17.9674  -49.8720 C.3       23 UNK        -0.0205 
     16 S16        -5.8591  -19.7658  -49.6036 S.3       23 UNK        -0.2404 
     17 C17        -5.4912  -19.9139  -47.8221 C.3       23 UNK        -0.0398 
     18 CA         -4.6406  -21.1769  -47.5529 C.3       11 UNK         0.1400 
     19 N          -3.2727  -21.0527  -48.0707 N.am      11 UNK        -0.5000 
     20 C          -2.4509  -22.0896  -48.2707 C.2       10 UNK         0.5000 
     21 O          -2.7612  -23.2569  -48.0292 O.2       10 UNK        -0.5000 
     22 CA         -1.0390  -21.7787  -48.7979 C.3       10 UNK         0.1400 
     23 CB         -1.0673  -21.7022  -50.3305 C.3       10 UNK        -0.1800 
     24 N          -0.4148  -20.5606  -48.2674 N.am      10 UNK        -0.5000 
     25 C          -0.2696  -20.2407  -46.9738 C.2       9 UNK         0.5000 
     26 O          -0.7895  -20.8677  -46.0489 O.2       9 UNK        -0.5000 
     27 CA          0.5770  -18.9927  -46.6734 C.3       9 UNK         0.1400 
     28 CB         -0.2510  -17.7214  -46.8805 C.3       9 UNK        -0.1800 
     29 N           1.0892  -19.0139  -45.3041 N.am      9 UNK        -0.5000 
     30 C           2.1880  -19.6828  -44.9262 C.2       8 UNK         0.5000 
     31 O           2.8962  -20.3128  -45.7132 O.2       8 UNK        -0.5000 
     32 CA          2.5896  -19.6410  -43.4376 C.3       8 UNK         0.1400 
     33 CB          3.9741  -18.9974  -43.2535 C.3       8 UNK        -0.1800 
     34 N           1.6137  -18.9411  -42.5978 N.am      8 UNK        -0.5000 
     35 C           0.5822  -19.5527  -41.9992 C.2       7 UNK         0.5000 
     36 O           0.3689  -20.7624  -42.0804 O.2       7 UNK        -0.5000 
     37 CA         -0.3768  -18.6856  -41.1628 C.3       7 UNK         0.1400 
     38 CB          0.1017  -18.6193  -39.7046 C.3       7 UNK        -0.1800 
     39 N          -0.5718  -17.3222  -41.6535 N.am      7 UNK        -0.5000 
     40 C          -1.0563  -16.9559  -42.8454 C.2       6 UNK         0.5000 
     41 O          -1.3176  -17.7557  -43.7413 O.2       6 UNK        -0.5000 
     42 CA         -1.2796  -15.4459  -43.0933 C.3       6 UNK         0.1400 
     43 CB         -2.6637  -14.9980  -42.5920 C.3       6 UNK        -0.1800 
     44 N          -0.2160  -14.5742  -42.5772 N.am      6 UNK        -0.5000 
     45 C           0.2131  -14.3980  -41.3169 C.2       5 UNK         0.5000 
     46 O          -0.3711  -14.8432  -40.3276 O.2       5 UNK        -0.5000 
     47 CA          1.5670  -13.6712  -41.1484 C.3       5 UNK         0.1400 
     48 CB          2.3019  -14.0835  -39.8569 C.3       5 UNK        -0.1800 
     49 N           2.4530  -13.8329  -42.3084 N.am      5 UNK        -0.5000 
     50 C           2.8688  -14.9788  -42.8762 C.2       4 UNK         0.5000 
     51 O           2.6210  -16.0963  -42.4193 O.2       4 UNK        -0.5000 
     52 CA          3.6191  -14.8649  -44.2196 C.3       4 UNK         0.1400 
     53 CB          2.8576  -15.6192  -45.3241 C.3       4 UNK        -0.1800 
     54 N           3.7626  -13.4732  -44.6484 N.am      4 UNK        -0.5000 
     55 C           4.8509  -12.7116  -44.4803 C.2       3 UNK         0.5000 
     56 O           5.9065  -13.1208  -43.9967 O.2       3 UNK        -0.5000 
     57 CA          4.7310  -11.2334  -44.9073 C.3       3 UNK         0.1400 
     58 CB          5.2818  -11.0396  -46.3282 C.3       3 UNK        -0.1800 
     59 N           3.3578  -10.7203  -44.8570 N.am      3 UNK        -0.5000 
     60 C           2.6406  -10.5531  -43.7366 C.2       2 UNK         0.5000 
     61 O           3.0706  -10.7942  -42.6092 O.2       2 UNK        -0.5000 
     62 CA          1.1768  -10.1060  -43.9075 C.3       2 UNK         0.1400 
     63 CB          1.0774   -8.5737  -43.9095 C.3       2 UNK        -0.1800 
     64 N           0.5367  -10.6301  -45.1168 N.am      2 UNK        -0.5000 
     65 C           0.3586  -11.9229  -45.4159 C.2       1 UNK         0.5000 
     66 O           0.7621  -12.8422  -44.7022 O.2       1 UNK        -0.5000 
     67 C          -4.7053  -21.6229  -46.0753 C.2       11 UNK         0.5000 
     68 O          -5.7520  -22.1161  -45.6534 O.2       11 UNK        -0.5000 
     69 N          -3.6006  -21.4854  -45.3309 N.am      12 UNK        -0.5000 
     70 CA         -3.4650  -21.9592  -43.9567 C.3       12 UNK         0.1400 
     71 CB         -2.9256  -20.8162  -43.0842 C.3       12 UNK        -0.1800 
     72 C          -2.5409  -23.1861  -43.8926 C.2       12 UNK         0.5000 
     73 O          -2.9335  -24.2146  -43.3417 O.2       12 UNK        -0.5000 
     74 N          -1.3335  -23.0616  -44.4579 N.am      13 UNK        -0.5000 
     75 CA         -0.2477  -24.0348  -44.3374 C.3       13 UNK         0.1400 
     76 CB          1.0745  -23.3591  -44.7296 C.3       13 UNK        -0.1800 
     77 C          -0.4553  -25.3136  -45.1651 C.2       13 UNK         0.5000 
     78 O          -0.0121  -26.3807  -44.7388 O.2       13 UNK        -0.5000 
     79 N          -1.1135  -25.1883  -46.3240 N.am      14 UNK        -0.5000 
     80 CA         -1.3893  -26.2897  -47.2501 C.3       14 UNK         0.1400 
     81 CB         -0.7721  -25.9571  -48.6213 C.3       14 UNK        -0.1800 
     82 C          -2.8984  -26.5673  -47.3666 C.2       14 UNK         0.5000 
     83 O          -3.3071  -27.2857  -48.2785 O.2       14 UNK        -0.5000 
     84 N          -3.7083  -25.9685  -46.4778 N.am      15 UNK        -0.5000 
     85 CA         -5.1740  -26.0568  -46.4152 C.3       15 UNK         0.1400 
     86 CB         -5.5998  -27.4531  -45.9172 C.3       15 UNK        -0.1800 
     87 C          -5.8756  -25.6559  -47.7340 C.2       15 UNK         0.5000 
     88 O          -6.9280  -26.2030  -48.0666 O.2       15 UNK        -0.5000 
     89 N          -5.2545  -24.7203  -48.4664 N.am      16 UNK        -0.5000 
     90 CA         -5.6412  -24.1968  -49.7778 C.3       16 UNK         0.1400 
     91 CB         -7.0502  -23.5672  -49.7531 C.3       16 UNK        -0.1800 
     92 C          -5.4506  -25.1827  -50.9487 C.2       16 UNK         0.5000 
     93 O          -5.9118  -24.8879  -52.0514 O.2       16 UNK        -0.5000 
     94 N          -4.7350  -26.2992  -50.7399 N.am      17 UNK        -0.5000 
     95 CA         -4.4027  -27.2544  -51.8037 C.3       17 UNK         0.1400 
     96 CB         -3.8935  -28.5655  -51.1871 C.3       17 UNK        -0.1800 
     97 C          -3.3700  -26.6885  -52.7978 C.2       17 UNK         0.5000 
     98 O          -3.4695  -26.9469  -53.9973 O.2       17 UNK        -0.5000 
     99 N          -2.4147  -25.9044  -52.2798 N.am      18 UNK        -0.5000 
    100 CA        -1.3651  -25.2379  -53.0555 C.3       18 UNK         0.1400 
    101 CB        -0.0937  -25.1617  -52.1945 C.3       18 UNK        -0.1800 
    102 C         -1.7752  -23.8316  -53.5374 C.2       18 UNK         0.5000 
    103 O         -1.0287  -23.2122  -54.2965 O.2       18 UNK        -0.5000 
    104 N         -2.9432  -23.3377  -53.0972 N.am      19 UNK        -0.5000 
    105 CA        -3.4194  -21.9707  -53.3361 C.3       19 UNK         0.1400 
    106 CB        -4.5699  -21.6416  -52.3775 C.3       19 UNK        -0.1800 
    107 C         -3.7976  -21.6577  -54.7960 C.2       19 UNK         0.5000 
    108 O         -4.0227  -20.4932  -55.1197 O.2       19 UNK        -0.5000 
    109 N         -3.8004  -22.6711  -55.6722 N.am      20 UNK        -0.5000 
    110 CA        -3.8975  -22.5167  -57.1260 C.3       20 UNK         0.1400 
    111 CB        -3.9875  -23.9094  -57.7678 C.3       20 UNK        -0.1800 
    112 C         -2.7260  -21.7131  -57.7352 C.2       20 UNK         0.5000 
    113 O         -2.8907  -21.1229  -58.8033 O.2       20 UNK        -0.5000 
    114 N         -1.5762  -21.6899  -57.0441 N.am      21 UNK        -0.5000 
    115 CA        -0.4022  -20.8958  -57.4056 C.3       21 UNK         0.1400 
    116 CB         0.8381  -21.5406  -56.7669 C.3       21 UNK        -0.1800 
    117 C         -0.5092  -19.4134  -56.9875 C.2       21 UNK         0.5000 
    118 O          0.2640  -18.5976  -57.4922 O.2       21 UNK        -0.5000 
    119 N         -1.4262  -19.0851  -56.0672 N.am      22 UNK        -0.5000 
    120 CA        -1.6407  -17.7245  -55.5486 C.3       22 UNK         0.1400 
    121 C         -2.3866  -16.8165  -56.5647 C.2       22 UNK         0.5000 
    122 N         -2.0958  -15.5225  -56.5756 N.am      22 UNK        -0.7600 
    123 O         -3.2517  -17.2608  -57.3163 O.2       22 UNK        -0.5000 
    124 C124       -2.3733  -17.7345  -54.1815 C.3       23 UNK        -0.0398 
    125 S125       -1.4486  -18.6669  -52.9112 S.3       23 UNK        -0.2404 
    126 C126       -1.1038  -17.3743  -51.6687 C.3       23 UNK        -0.0205 
    127 H127        0.6090  -10.1132  -49.9781 H         1 UNK         0.0600 
    128 H128        0.6935   -8.5697  -49.1240 H         1 UNK         0.0600 
    129 H129       -0.8175   -9.0766  -49.8868 H         1 UNK         0.0600 
    130 H130        0.5017  -11.8181  -48.5968 H         1 UNK         0.3000 
    131 H131        0.0516  -13.2375  -47.0301 H         1 UNK         0.0600 
    132 H132       -2.0580  -13.1020  -45.6282 H         1 UNK         0.0800 
    133 H133       -2.3693  -11.5219  -46.2856 H         1 UNK         0.0800 
    134 H134       -3.1914  -15.1918  -46.6291 H         1 UNK         0.0800 
    135 H135       -1.5293  -15.1881  -47.1639 H         1 UNK         0.0800 
    136 H136       -0.9698  -15.7274  -49.5639 H         1 UNK         0.1150 
    137 H137       -3.7592  -18.3335  -51.5364 H         1 UNK         0.1150 
    138 H138       -4.9072  -16.2625  -47.9754 H         1 UNK         0.1150 
    139 H139       -6.5492  -17.5002  -49.1633 H         1 UNK         0.0800 
    140 H140       -6.2672  -17.7644  -50.8648 H         1 UNK         0.0800 
    141 H141       -6.4481  -19.9627  -47.2989 H         1 UNK         0.0800 
    142 H142       -4.9829  -19.0211  -47.4562 H         1 UNK         0.0800 
    143 H143       -5.1118  -21.9912  -48.0995 H         1 UNK         0.0600 
    144 H144       -2.9511  -20.1222  -48.2939 H         1 UNK         0.3000 
    145 H145       -0.4004  -22.6162  -48.5102 H         1 UNK         0.0600 
    146 H146       -0.0619  -21.6391  -50.7468 H         1 UNK         0.0600 
    147 H147       -1.5384  -22.5887  -50.7535 H         1 UNK         0.0600 
    148 H148       -1.6314  -20.8358  -50.6785 H         1 UNK         0.0600 
    149 H149        0.0229  -19.9652  -48.9550 H         1 UNK         0.3000 
    150 H150        1.4209  -18.9663  -47.3662 H         1 UNK         0.0600 
    151 H151       -0.4880  -17.6045  -47.9354 H         1 UNK         0.0600 
    152 H152        0.2951  -16.8317  -46.5685 H         1 UNK         0.0600 
    153 H153       -1.1944  -17.7518  -46.3350 H         1 UNK         0.0600 
    154 H154        0.4951  -18.5989  -44.5965 H         1 UNK         0.3000 
    155 H155        2.6758  -20.6774  -43.1051 H         1 UNK         0.0600 
    156 H156        4.0103  -17.9833  -43.6471 H         1 UNK         0.0600 
    157 H157        4.7426  -19.5725  -43.7713 H         1 UNK         0.0600 
    158 H158        4.2543  -18.9578  -42.2008 H         1 UNK         0.0600 
    159 H159        1.7486  -17.9415  -42.4751 H         1 UNK         0.3000 
    160 H160       -1.3523  -19.1743  -41.1771 H         1 UNK         0.0600 
    161 H161        1.0551  -18.0957  -39.6203 H         1 UNK         0.0600 
    162 H162        0.2362  -19.6191  -39.2894 H         1 UNK         0.0600 
    163 H163       -0.6218  -18.1010  -39.0749 H         1 UNK         0.0600 
    164 H164       -0.3981  -16.5737  -40.9881 H         1 UNK         0.3000 
    165 H165       -1.2649  -15.3087  -44.1758 H         1 UNK         0.0600 
    166 H166       -2.7646  -15.1148  -41.5128 H         1 UNK         0.0600 
    167 H167       -2.8504  -13.9521  -42.8358 H         1 UNK         0.0600 
    168 H168       -3.4542  -15.5872  -43.0584 H         1 UNK         0.0600 
    169 H169        0.3316  -14.1167  -43.3011 H         1 UNK         0.3000 
    170 H170        1.3372  -12.6071  -41.0800 H         1 UNK         0.0600 
    171 H171        1.7086  -13.8449  -38.9735 H         1 UNK         0.0600 
    172 H172        2.5080  -15.1542  -39.8341 H         1 UNK         0.0600 
    173 H173        3.2513  -13.5570  -39.7597 H         1 UNK         0.0600 
    174 H174        2.7200  -12.9675  -42.7589 H         1 UNK         0.3000 
    175 H175        4.5986  -15.3298  -44.0923 H         1 UNK         0.0600 
    176 H176        1.8606  -15.2066  -45.4799 H         1 UNK         0.0600 
    177 H177        3.3912  -15.5716  -46.2734 H         1 UNK         0.0600 
    178 H178        2.7356  -16.6724  -45.0773 H         1 UNK         0.0600 
    179 H179        2.9246  -13.0435  -45.0187 H         1 UNK         0.3000 
    180 H180        5.3388  -10.6419  -44.2194 H         1 UNK         0.0600 
    181 H181        4.6989  -11.5935  -47.0651 H         1 UNK         0.0600 
    182 H182        6.3138  -11.3863  -46.3979 H         1 UNK         0.0600 
    183 H183        5.2742   -9.9877  -46.6146 H         1 UNK         0.0600 
    184 H184        2.9208  -10.5022  -45.7405 H         1 UNK         0.3000 
    185 H185        0.6172  -10.4847  -43.0497 H         1 UNK         0.0600 
    186 H186        1.5898   -8.1386  -44.7684 H         1 UNK         0.0600 
    187 H187        0.0379   -8.2465  -43.9388 H         1 UNK         0.0600 
    188 H188        1.5254   -8.1508  -43.0092 H         1 UNK         0.0600 
    189 H189        0.1315   -9.9514  -45.7556 H         1 UNK         0.3000 
    190 H190       -2.7600  -21.1110  -45.7583 H         1 UNK         0.3000 
    191 H191       -4.4332  -22.2563  -43.5484 H         1 UNK         0.0600 
    192 H192       -2.7485  -21.1511  -42.0615 H         1 UNK         0.0600 
    193 H193       -3.6318  -19.9871  -43.0405 H         1 UNK         0.0600 
    194 H194       -1.9847  -20.4266  -43.4732 H         1 UNK         0.0600 
    195 H195       -1.0983  -22.1882  -44.9273 H         1 UNK         0.3000 
    196 H196       -0.1758  -24.3300  -43.2884 H         1 UNK         0.0600 
    197 H197        1.0602  -23.0116  -45.7635 H         1 UNK         0.0600 
    198 H198        1.2768  -22.5003  -44.0910 H         1 UNK         0.0600 
    199 H199        1.9146  -24.0466  -44.6244 H         1 UNK         0.0600 
    200 H200       -1.4737  -24.2816  -46.5957 H         1 UNK         0.3000 
    201 H201       -0.9336  -27.2163  -46.8963 H         1 UNK         0.0600 
    202 H202       -1.2499  -25.0942  -49.0832 H         1 UNK         0.0600 
    203 H203       -0.8737  -26.7954  -49.3116 H         1 UNK         0.0600 
    204 H204        0.2927  -25.7417  -48.5322 H         1 UNK         0.0600 
    205 H205       -3.2735  -25.3961  -45.7680 H         1 UNK         0.3000 
    206 H206       -5.4928  -25.3259  -45.6704 H         1 UNK         0.0600 
    207 H207       -5.1064  -27.7035  -44.9780 H         1 UNK         0.0600 
    208 H208       -6.6747  -27.4962  -45.7381 H         1 UNK         0.0600 
    209 H209       -5.3564  -28.2310  -46.6417 H         1 UNK         0.0600 
    210 H210       -4.3708  -24.3618  -48.1143 H         1 UNK         0.3000 
    211 H211       -4.9345  -23.3921  -49.9717 H         1 UNK         0.0600 
    212 H212       -7.2310  -22.9829  -50.6560 H         1 UNK         0.0600 
    213 H213       -7.1739  -22.8936  -48.9055 H         1 UNK         0.0600 
    214 H214       -7.8323  -24.3244  -49.6960 H         1 UNK         0.0600 
    215 H215       -4.3829  -26.5094  -49.8109 H         1 UNK         0.3000 
    216 H216       -5.3160  -27.4776  -52.3595 H         1 UNK         0.0600 
    217 H217       -2.9459  -28.4262  -50.6656 H         1 UNK         0.0600 
    218 H218       -3.7333  -29.3206  -51.9577 H         1 UNK         0.0600 
    219 H219       -4.6115  -28.9731  -50.4751 H         1 UNK         0.0600 
    220 H220       -2.4079  -25.7559  -51.2817 H         1 UNK         0.3000 
    221 H221       -1.1344  -25.8301  -53.9434 H         1 UNK         0.0600 
    222 H222        0.2284  -26.1542  -51.8787 H         1 UNK         0.0600 
    223 H223       -0.2435  -24.5581  -51.2997 H         1 UNK         0.0600 
    224 H224        0.7314  -24.7175  -52.7529 H         1 UNK         0.0600 
    225 H225       -3.5379  -23.9347  -52.5428 H         1 UNK         0.3000 
    226 H226       -2.5938  -21.3024  -53.0905 H         1 UNK         0.0600 
    227 H227       -5.4214  -22.3062  -52.5200 H         1 UNK         0.0600 
    228 H228       -4.2421  -21.7105  -51.3413 H         1 UNK         0.0600 
    229 H229       -4.9247  -20.6210  -52.5275 H         1 UNK         0.0600 
    230 H230       -3.6099  -23.5995  -55.3252 H         1 UNK         0.3000 
    231 H231       -4.8189  -21.9738  -57.3461 H         1 UNK         0.0600 
    232 H232       -3.0977  -24.5055  -57.5609 H         1 UNK         0.0600 
    233 H233       -4.0883  -23.8345  -58.8514 H         1 UNK         0.0600 
    234 H234       -4.8539  -24.4590  -57.3993 H         1 UNK         0.0600 
    235 H235       -1.5135  -22.2126  -56.1777 H         1 UNK         0.3000 
    236 H236       -0.2774  -20.9234  -58.4901 H         1 UNK         0.0600 
    237 H237        0.9549  -22.5759  -57.0878 H         1 UNK         0.0600 
    238 H238        1.7468  -21.0082  -57.0504 H         1 UNK         0.0600 
    239 H239        0.7786  -21.5320  -55.6777 H         1 UNK         0.0600 
    240 H240       -2.0825  -19.7851  -55.7477 H         1 UNK         0.3000 
    241 H241       -0.6554  -17.2833  -55.3835 H         1 UNK         0.0600 
    242 H242       -2.5814  -14.9180  -57.2206 H         1 UNK         0.3800 
    243 H243       -1.3926  -15.1305  -55.9682 H         1 UNK         0.3800 
    244 H244       -3.3687  -18.1682  -54.2770 H         1 UNK         0.0800 
    245 H245       -2.5318  -16.7142  -53.8286 H         1 UNK         0.0800 
    246 H246       -0.8105  -16.4538  -52.1753 H         1 UNK         0.0800 
    247 H247       -0.2299  -17.6986  -51.1019 H         1 UNK         0.0800 
@<TRIPOS>BOND
     1    1    2 1    
     2    1  127 1    
     3    1  128 1    
     4    1  129 1    
     5    2    3 2    
     6    2    4 am   BACKBONE|DICT|INTERRES
     7    4    5 1    
     8    4  130 1    
     9    5    6 1    
    10    5   65 1    
    11    5  131 1    
    12    6    7 1    
    13    6  132 1    
    14    6  133 1    
    15    7    8 1    
    16    8    9 1    
    17    8  134 1    
    18    8  135 1    
    19    9   10 ar   
    20    9   14 ar   
    21   10   11 ar   
    22   10  136 1    
    23   11   12 ar   
    24   11  126 1    
    25   12   13 ar   
    26   12  137 1    
    27   13   14 ar   
    28   13   15 1    
    29   14  138 1    
    30   15   16 1    
    31   15  139 1    
    32   15  140 1    
    33   16   17 1    
    34   17   18 1    
    35   17  141 1    
    36   17  142 1    
    37   18   19 1    
    38   18   67 1    
    39   18  143 1    
    40   19   20 am   BACKBONE|DICT|INTERRES
    41   19  144 1    
    42   20   21 2    
    43   20   22 1    
    44   22   23 1    
    45   22   24 1    
    46   22  145 1    
    47   23  146 1    
    48   23  147 1    
    49   23  148 1    
    50   24   25 am   BACKBONE|DICT|INTERRES
    51   24  149 1    
    52   25   26 2    
    53   25   27 1    
    54   27   28 1    
    55   27   29 1    
    56   27  150 1    
    57   28  151 1    
    58   28  152 1    
    59   28  153 1    
    60   29   30 am   BACKBONE|DICT|INTERRES
    61   29  154 1    
    62   30   31 2    
    63   30   32 1    
    64   32   33 1    
    65   32   34 1    
    66   32  155 1    
    67   33  156 1    
    68   33  157 1    
    69   33  158 1    
    70   34   35 am   BACKBONE|DICT|INTERRES
    71   34  159 1    
    72   35   36 2    
    73   35   37 1    
    74   37   38 1    
    75   37   39 1    
    76   37  160 1    
    77   38  161 1    
    78   38  162 1    
    79   38  163 1    
    80   39   40 am   BACKBONE|DICT|INTERRES
    81   39  164 1    
    82   40   41 2    
    83   40   42 1    
    84   42   43 1    
    85   42   44 1    
    86   42  165 1    
    87   43  166 1    
    88   43  167 1    
    89   43  168 1    
    90   44   45 am   BACKBONE|DICT|INTERRES
    91   44  169 1    
    92   45   46 2    
    93   45   47 1    
    94   47   48 1    
    95   47   49 1    
    96   47  170 1    
    97   48  171 1    
    98   48  172 1    
    99   48  173 1    
   100   49   50 am   BACKBONE|DICT|INTERRES
   101   49  174 1    
   102   50   51 2    
   103   50   52 1    
   104   52   53 1    
   105   52   54 1    
   106   52  175 1    
   107   53  176 1    
   108   53  177 1    
   109   53  178 1    
   110   54   55 am   BACKBONE|DICT|INTERRES
   111   54  179 1    
   112   55   56 2    
   113   55   57 1    
   114   57   58 1    
   115   57   59 1    
   116   57  180 1    
   117   58  181 1    
   118   58  182 1    
   119   58  183 1    
   120   59   60 am   BACKBONE|DICT|INTERRES
   121   59  184 1    
   122   60   61 2    
   123   60   62 1    
   124   62   63 1    
   125   62   64 1    
   126   62  185 1    
   127   63  186 1    
   128   63  187 1    
   129   63  188 1    
   130   64   65 am   BACKBONE|DICT|INTERRES
   131   64  189 1    
   132   65   66 2    
   133   67   68 2    
   134   67   69 am   BACKBONE|DICT|INTERRES
   135   69   70 1    
   136   69  190 1    
   137   70   71 1    
   138   70   72 1    
   139   70  191 1    
   140   71  192 1    
   141   71  193 1    
   142   71  194 1    
   143   72   73 2    
   144   72   74 am   BACKBONE|DICT|INTERRES
   145   74   75 1    
   146   74  195 1    
   147   75   76 1    
   148   75   77 1    
   149   75  196 1    
   150   76  197 1    
   151   76  198 1    
   152   76  199 1    
   153   77   78 2    
   154   77   79 am   BACKBONE|DICT|INTERRES
   155   79   80 1    
   156   79  200 1    
   157   80   81 1    
   158   80   82 1    
   159   80  201 1    
   160   81  202 1    
   161   81  203 1    
   162   81  204 1    
   163   82   83 2    
   164   82   84 am   BACKBONE|DICT|INTERRES
   165   84   85 1    
   166   84  205 1    
   167   85   86 1    
   168   85   87 1    
   169   85  206 1    
   170   86  207 1    
   171   86  208 1    
   172   86  209 1    
   173   87   88 2    
   174   87   89 am   BACKBONE|DICT|INTERRES
   175   89   90 1    
   176   89  210 1    
   177   90   91 1    
   178   90   92 1    
   179   90  211 1    
   180   91  212 1    
   181   91  213 1    
   182   91  214 1    
   183   92   93 2    
   184   92   94 am   BACKBONE|DICT|INTERRES
   185   94   95 1    
   186   94  215 1    
   187   95   96 1    
   188   95   97 1    
   189   95  216 1    
   190   96  217 1    
   191   96  218 1    
   192   96  219 1    
   193   97   98 2    
   194   97   99 am   BACKBONE|DICT|INTERRES
   195   99  100 1    
   196   99  220 1    
   197  100  101 1    
   198  100  102 1    
   199  100  221 1    
   200  101  222 1    
   201  101  223 1    
   202  101  224 1    
   203  102  103 2    
   204  102  104 am   BACKBONE|DICT|INTERRES
   205  104  105 1    
   206  104  225 1    
   207  105  106 1    
   208  105  107 1    
   209  105  226 1    
   210  106  227 1    
   211  106  228 1    
   212  106  229 1    
   213  107  108 2    
   214  107  109 am   BACKBONE|DICT|INTERRES
   215  109  110 1    
   216  109  230 1    
   217  110  111 1    
   218  110  112 1    
   219  110  231 1    
   220  111  232 1    
   221  111  233 1    
   222  111  234 1    
   223  112  113 2    
   224  112  114 am   BACKBONE|DICT|INTERRES
   225  114  115 1    
   226  114  235 1    
   227  115  116 1    
   228  115  117 1    
   229  115  236 1    
   230  116  237 1    
   231  116  238 1    
   232  116  239 1    
   233  117  118 2    
   234  117  119 am   BACKBONE|DICT|INTERRES
   235  119  120 1    
   236  119  240 1    
   237  120  121 1    
   238  120  124 1    
   239  120  241 1    
   240  121  122 am   BACKBONE|DICT|INTERRES
   241  121  123 2    
   242  122  242 1    
   243  122  243 1    
   244  124  125 1    
   245  124  244 1    
   246  124  245 1    
   247  125  126 1    
   248  126  246 1    
   249  126  247 1    
@<TRIPOS>SUBSTRUCTURE
     1 UNK         1 GROUP             0       ****    0 ROOT    
