@<TRIPOS>MOLECULE
3R540
247   249    1
SMALL
USER_CHARGES


@<TRIPOS>ATOM
      1 CA          5.3525  -11.7069  -53.0002 C.3       0 UNK        -0.1800 
      2 C           4.7071  -12.5474  -51.9073 C.2       0 UNK         0.5000 
      3 O           5.1639  -13.6589  -51.6393 O.2       0 UNK        -0.5000 
      4 N           3.6443  -12.0251  -51.2840 N.am      1 UNK        -0.5000 
      5 CA          2.9160  -12.6593  -50.1819 C.3       1 UNK         0.1400 
      6 C6          1.5908  -11.9240  -49.8692 C.3       23 UNK        -0.0398 
      7 S7          0.3869  -12.0499  -51.2331 S.3       23 UNK        -0.2404 
      8 C8         -0.8522  -13.1788  -50.5222 C.3       23 UNK        -0.0205 
      9 C9         -0.3743  -14.6235  -50.5065 C.ar      23 UNK        -0.0193 
     10 C10        -0.5711  -15.4329  -51.6275 C.ar      23 UNK        -0.1150 
     11 C11        -0.1976  -16.7819  -51.6115 C.ar      23 UNK        -0.0193 
     12 C12         0.4248  -17.3001  -50.4709 C.ar      23 UNK        -0.1150 
     13 C13         0.6420  -16.4994  -49.3447 C.ar      23 UNK        -0.0193 
     14 C14         0.2329  -15.1623  -49.3687 C.ar      23 UNK        -0.1150 
     15 C15         1.3326  -17.0655  -48.1097 C.3       23 UNK        -0.0205 
     16 S16         0.3763  -18.3994  -47.3177 S.3       23 UNK        -0.2404 
     17 C17         1.3669  -19.8567  -47.7970 C.3       23 UNK        -0.0398 
     18 CA          0.8694  -21.2012  -47.2148 C.3       11 UNK         0.1400 
     19 N           0.7978  -21.2058  -45.7497 N.am      11 UNK        -0.5000 
     20 C           0.7210  -22.3244  -45.0139 C.2       10 UNK         0.5000 
     21 O           0.7194  -23.4582  -45.4908 O.2       10 UNK        -0.5000 
     22 CA          0.5643  -22.1450  -43.4992 C.3       10 UNK         0.1400 
     23 CB          1.9037  -21.7736  -42.8454 C.3       10 UNK        -0.1800 
     24 N          -0.4296  -21.1283  -43.1762 N.am      10 UNK        -0.5000 
     25 C          -1.7526  -21.2525  -43.3390 C.2       9 UNK         0.5000 
     26 O          -2.2795  -22.2396  -43.8547 O.2       9 UNK        -0.5000 
     27 CA         -2.6177  -20.0630  -42.8635 C.3       9 UNK         0.1400 
     28 CB         -4.0347  -20.4880  -42.4288 C.3       9 UNK        -0.1800 
     29 N          -1.9590  -19.2558  -41.8275 N.am      9 UNK        -0.5000 
     30 C          -1.5880  -19.6359  -40.5944 C.2       8 UNK         0.5000 
     31 O          -1.8857  -20.7185  -40.0891 O.2       8 UNK        -0.5000 
     32 CA         -0.6851  -18.6654  -39.8039 C.3       8 UNK         0.1400 
     33 CB          0.7596  -19.1903  -39.7817 C.3       8 UNK        -0.1800 
     34 N          -0.6753  -17.3046  -40.3442 N.am      8 UNK        -0.5000 
     35 C          -1.6619  -16.4133  -40.1800 C.2       7 UNK         0.5000 
     36 O          -2.6669  -16.6221  -39.4997 O.2       7 UNK        -0.5000 
     37 CA         -1.5139  -15.0755  -40.9291 C.3       7 UNK         0.1400 
     38 CB         -0.6713  -14.0867  -40.1094 C.3       7 UNK        -0.1800 
     39 N          -0.9260  -15.2287  -42.2621 N.am      7 UNK        -0.5000 
     40 C          -1.4923  -15.8997  -43.2760 C.2       6 UNK         0.5000 
     41 O          -2.5937  -16.4445  -43.2077 O.2       6 UNK        -0.5000 
     42 CA         -0.6669  -16.0302  -44.5667 C.3       6 UNK         0.1400 
     43 CB         -0.7418  -14.7409  -45.3967 C.3       6 UNK        -0.1800 
     44 N           0.7310  -16.3643  -44.2986 N.am      6 UNK        -0.5000 
     45 C           1.1501  -17.5110  -43.7467 C.2       5 UNK         0.5000 
     46 O           0.4057  -18.4409  -43.4429 O.2       5 UNK        -0.5000 
     47 CA          2.6518  -17.6325  -43.4516 C.3       5 UNK         0.1400 
     48 CB          3.4083  -18.1281  -44.6921 C.3       5 UNK        -0.1800 
     49 N           3.2161  -16.3661  -42.9873 N.am      5 UNK        -0.5000 
     50 C           2.9555  -15.8246  -41.7885 C.2       4 UNK         0.5000 
     51 O           2.2406  -16.3568  -40.9385 O.2       4 UNK        -0.5000 
     52 CA          3.5633  -14.4371  -41.5126 C.3       4 UNK         0.1400 
     53 CB          5.0241  -14.5651  -41.0559 C.3       4 UNK        -0.1800 
     54 N           3.4931  -13.5514  -42.6763 N.am      4 UNK        -0.5000 
     55 C           2.3513  -13.0736  -43.1901 C.2       3 UNK         0.5000 
     56 O           1.2397  -13.3078  -42.7166 O.2       3 UNK        -0.5000 
     57 CA          2.4643  -12.2303  -44.4745 C.3       3 UNK         0.1400 
     58 CB          2.7304  -10.7574  -44.1311 C.3       3 UNK        -0.1800 
     59 N           3.4813  -12.6983  -45.4229 N.am      3 UNK        -0.5000 
     60 C           3.5300  -13.9255  -45.9560 C.2       2 UNK         0.5000 
     61 O           2.7598  -14.8346  -45.6465 O.2       2 UNK        -0.5000 
     62 CA          4.5751  -14.1595  -47.0580 C.3       2 UNK         0.1400 
     63 CB          5.1361  -15.5911  -47.0274 C.3       2 UNK        -0.1800 
     64 N           3.9453  -13.9247  -48.3534 N.am      2 UNK        -0.5000 
     65 C           3.7896  -12.7207  -48.9139 C.2       1 UNK         0.5000 
     66 O           4.2700  -11.6822  -48.4533 O.2       1 UNK        -0.5000 
     67 C          -0.4526  -21.6677  -47.8581 C.2       11 UNK         0.5000 
     68 O          -0.4209  -22.3372  -48.8907 O.2       11 UNK        -0.5000 
     69 N          -1.5834  -21.3545  -47.2074 N.am      12 UNK        -0.5000 
     70 CA         -2.9150  -21.8032  -47.6045 C.3       12 UNK         0.1400 
     71 CB         -3.9871  -21.0664  -46.7883 C.3       12 UNK        -0.1800 
     72 C          -3.0688  -23.3289  -47.4886 C.2       12 UNK         0.5000 
     73 O          -3.5581  -23.9573  -48.4280 O.2       12 UNK        -0.5000 
     74 N          -2.6083  -23.8877  -46.3602 N.am      13 UNK        -0.5000 
     75 CA         -2.5812  -25.3240  -46.0894 C.3       13 UNK         0.1400 
     76 CB         -2.2651  -25.5554  -44.6043 C.3       13 UNK        -0.1800 
     77 C          -1.5839  -26.0840  -46.9821 C.2       13 UNK         0.5000 
     78 O          -1.9148  -27.1656  -47.4687 O.2       13 UNK        -0.5000 
     79 N          -0.3937  -25.5053  -47.2058 N.am      14 UNK        -0.5000 
     80 CA          0.6520  -26.0617  -48.0717 C.3       14 UNK         0.1400 
     81 CB          1.9318  -25.2226  -47.9483 C.3       14 UNK        -0.1800 
     82 C           0.2188  -26.1669  -49.5454 C.2       14 UNK         0.5000 
     83 O           0.5668  -27.1396  -50.2148 O.2       14 UNK        -0.5000 
     84 N          -0.5767  -25.1924  -50.0032 N.am      15 UNK        -0.5000 
     85 CA         -1.2132  -25.1646  -51.3196 C.3       15 UNK         0.1400 
     86 CB         -1.2179  -23.7149  -51.8278 C.3       15 UNK        -0.1800 
     87 C          -2.6277  -25.7872  -51.2986 C.2       15 UNK         0.5000 
     88 O          -3.4672  -25.4148  -52.1228 O.2       15 UNK        -0.5000 
     89 N          -2.8712  -26.7095  -50.3538 N.am      16 UNK        -0.5000 
     90 CA         -4.0767  -27.5084  -50.0966 C.3       16 UNK         0.1400 
     91 CB         -4.4243  -28.4019  -51.3030 C.3       16 UNK        -0.1800 
     92 C          -5.2961  -26.6912  -49.6332 C.2       16 UNK         0.5000 
     93 O          -5.8631  -26.9792  -48.5784 O.2       16 UNK        -0.5000 
     94 N          -5.6720  -25.6941  -50.4331 N.am      17 UNK        -0.5000 
     95 CA         -6.7596  -24.7540  -50.2007 C.3       17 UNK         0.1400 
     96 CB         -8.0905  -25.3560  -50.6909 C.3       17 UNK        -0.1800 
     97 C          -6.3992  -23.4288  -50.8871 C.2       17 UNK         0.5000 
     98 O          -7.1839  -22.9036  -51.6798 O.2       17 UNK        -0.5000 
     99 N          -5.1780  -22.9427  -50.6133 N.am      18 UNK        -0.5000 
    100 CA        -4.5866  -21.7077  -51.1437 C.3       18 UNK         0.1400 
    101 CB        -5.3144  -20.4887  -50.5436 C.3       18 UNK        -0.1800 
    102 C         -4.5222  -21.6737  -52.6862 C.2       18 UNK         0.5000 
    103 O         -4.7278  -20.6195  -53.2921 O.2       18 UNK        -0.5000 
    104 N         -4.3094  -22.8501  -53.2986 N.am      19 UNK        -0.5000 
    105 CA        -4.3250  -23.1269  -54.7419 C.3       19 UNK         0.1400 
    106 CB        -3.1340  -22.4278  -55.4311 C.3       19 UNK        -0.1800 
    107 C         -5.6645  -22.7929  -55.4415 C.2       19 UNK         0.5000 
    108 O         -5.7036  -22.7373  -56.6715 O.2       19 UNK        -0.5000 
    109 N         -6.7237  -22.5414  -54.6531 N.am      20 UNK        -0.5000 
    110 CA        -8.0105  -21.9580  -55.0439 C.3       20 UNK         0.1400 
    111 CB        -8.8218  -22.9514  -55.9014 C.3       20 UNK        -0.1800 
    112 C         -7.8709  -20.5628  -55.7004 C.2       20 UNK         0.5000 
    113 O         -8.7079  -20.1939  -56.5270 O.2       20 UNK        -0.5000 
    114 N         -6.8146  -19.8183  -55.3376 N.am      21 UNK        -0.5000 
    115 CA        -6.4432  -18.5469  -55.9621 C.3       21 UNK         0.1400 
    116 CB        -5.3554  -18.8001  -57.0192 C.3       21 UNK        -0.1800 
    117 C         -5.9728  -17.5028  -54.9384 C.2       21 UNK         0.5000 
    118 O         -6.3240  -16.3300  -55.0751 O.2       21 UNK        -0.5000 
    119 N         -5.1995  -17.9319  -53.9340 N.am      22 UNK        -0.5000 
    120 CA        -4.6582  -17.0733  -52.8667 C.3       22 UNK         0.1400 
    121 C         -5.6258  -16.8782  -51.6613 C.2       22 UNK         0.5000 
    122 N         -6.8044  -17.4892  -51.6426 N.am      22 UNK        -0.7600 
    123 O         -5.3100  -16.1423  -50.7308 O.2       22 UNK        -0.5000 
    124 C124       -3.2566  -17.5576  -52.4092 C.3       23 UNK        -0.0398 
    125 S125       -2.0012  -17.3636  -53.7202 S.3       23 UNK        -0.2404 
    126 C126       -0.4510  -17.6983  -52.8091 C.3       23 UNK        -0.0205 
    127 H127        6.3857  -11.4787  -52.7369 H         1 UNK         0.0600 
    128 H128        5.3523  -12.2537  -53.9435 H         1 UNK         0.0600 
    129 H129        4.8242  -10.7651  -53.1533 H         1 UNK         0.0600 
    130 H130        3.3207  -11.1051  -51.5455 H         1 UNK         0.3000 
    131 H131        2.6753  -13.6806  -50.4863 H         1 UNK         0.0600 
    132 H132        1.7778  -10.8658  -49.6776 H         1 UNK         0.0800 
    133 H133        1.1365  -12.3105  -48.9556 H         1 UNK         0.0800 
    134 H134       -1.7660  -13.1069  -51.1140 H         1 UNK         0.0800 
    135 H135       -1.1236  -12.8521  -49.5171 H         1 UNK         0.0800 
    136 H136       -1.0388  -15.0121  -52.5062 H         1 UNK         0.1150 
    137 H137        0.7334  -18.3349  -50.4559 H         1 UNK         0.1150 
    138 H138        0.3888  -14.5372  -48.5024 H         1 UNK         0.1150 
    139 H139        2.3279  -17.4169  -48.3834 H         1 UNK         0.0800 
    140 H140        1.4857  -16.2818  -47.3690 H         1 UNK         0.0800 
    141 H141        2.3921  -19.6883  -47.4647 H         1 UNK         0.0800 
    142 H142        1.4167  -19.9134  -48.8852 H         1 UNK         0.0800 
    143 H143        1.6176  -21.9458  -47.4936 H         1 UNK         0.0600 
    144 H144        0.7519  -20.3068  -45.2904 H         1 UNK         0.3000 
    145 H145        0.2296  -23.0963  -43.0798 H         1 UNK         0.0600 
    146 H146        1.8068  -21.7086  -41.7615 H         1 UNK         0.0600 
    147 H147        2.6641  -22.5257  -43.0594 H         1 UNK         0.0600 
    148 H148        2.2785  -20.8153  -43.2051 H         1 UNK         0.0600 
    149 H149       -0.0809  -20.2261  -42.8685 H         1 UNK         0.3000 
    150 H150       -2.7229  -19.4066  -43.7284 H         1 UNK         0.0600 
    151 H151       -4.5773  -20.9444  -43.2572 H         1 UNK         0.0600 
    152 H152       -4.6174  -19.6297  -42.0942 H         1 UNK         0.0600 
    153 H153       -4.0102  -21.2157  -41.6175 H         1 UNK         0.0600 
    154 H154       -1.6420  -18.3474  -42.1406 H         1 UNK         0.3000 
    155 H155       -1.0540  -18.6333  -38.7766 H         1 UNK         0.0600 
    156 H156        1.1864  -19.2341  -40.7843 H         1 UNK         0.0600 
    157 H157        0.8074  -20.1951  -39.3601 H         1 UNK         0.0600 
    158 H158        1.4014  -18.5523  -39.1739 H         1 UNK         0.0600 
    159 H159        0.1455  -17.0310  -40.8717 H         1 UNK         0.3000 
    160 H160       -2.5129  -14.6523  -41.0516 H         1 UNK         0.0600 
    161 H161       -0.6376  -13.1077  -40.5878 H         1 UNK         0.0600 
    162 H162        0.3551  -14.4354  -39.9900 H         1 UNK         0.0600 
    163 H163       -1.0905  -13.9470  -39.1122 H         1 UNK         0.0600 
    164 H164       -0.0370  -14.7628  -42.4207 H         1 UNK         0.3000 
    165 H165       -1.0967  -16.8411  -45.1580 H         1 UNK         0.0600 
    166 H166       -0.1581  -14.8293  -46.3104 H         1 UNK         0.0600 
    167 H167       -1.7706  -14.5230  -45.6854 H         1 UNK         0.0600 
    168 H168       -0.3666  -13.8805  -44.8437 H         1 UNK         0.0600 
    169 H169        1.4294  -15.6837  -44.5840 H         1 UNK         0.3000 
    170 H170        2.7804  -18.3720  -42.6586 H         1 UNK         0.0600 
    171 H171        3.0664  -19.1216  -44.9838 H         1 UNK         0.0600 
    172 H172        3.2541  -17.4706  -45.5466 H         1 UNK         0.0600 
    173 H173        4.4800  -18.1946  -44.5049 H         1 UNK         0.0600 
    174 H174        3.7482  -15.8324  -43.6588 H         1 UNK         0.3000 
    175 H175        2.9915  -13.9797  -40.7022 H         1 UNK         0.0600 
    176 H176        5.4380  -13.5943  -40.7831 H         1 UNK         0.0600 
    177 H177        5.1031  -15.2089  -40.1788 H         1 UNK         0.0600 
    178 H178        5.6558  -14.9929  -41.8354 H         1 UNK         0.0600 
    179 H179        4.3633  -13.3140  -43.1293 H         1 UNK         0.3000 
    180 H180        1.5005  -12.2875  -44.9838 H         1 UNK         0.0600 
    181 H181        3.7042  -10.6238  -43.6584 H         1 UNK         0.0600 
    182 H182        1.9756  -10.3736  -43.4433 H         1 UNK         0.0600 
    183 H183        2.7014  -10.1327  -45.0239 H         1 UNK         0.0600 
    184 H184        4.1264  -12.0006  -45.7669 H         1 UNK         0.3000 
    185 H185        5.4074  -13.4677  -46.9110 H         1 UNK         0.0600 
    186 H186        4.3735  -16.3322  -47.2662 H         1 UNK         0.0600 
    187 H187        5.9459  -15.7077  -47.7477 H         1 UNK         0.0600 
    188 H188        5.5382  -15.8348  -46.0433 H         1 UNK         0.0600 
    189 H189        3.5168  -14.7276  -48.7896 H         1 UNK         0.3000 
    190 H190       -1.5141  -20.8102  -46.3615 H         1 UNK         0.3000 
    191 H191       -3.0488  -21.5312  -48.6499 H         1 UNK         0.0600 
    192 H192       -3.9183  -19.9877  -46.9300 H         1 UNK         0.0600 
    193 H193       -3.9011  -21.2713  -45.7220 H         1 UNK         0.0600 
    194 H194       -4.9876  -21.3715  -47.0974 H         1 UNK         0.0600 
    195 H195       -2.2645  -23.2850  -45.6197 H         1 UNK         0.3000 
    196 H196       -3.5776  -25.7228  -46.2923 H         1 UNK         0.0600 
    197 H197       -2.2515  -26.6201  -44.3677 H         1 UNK         0.0600 
    198 H198       -3.0154  -25.0891  -43.9654 H         1 UNK         0.0600 
    199 H199       -1.2929  -25.1437  -44.3306 H         1 UNK         0.0600 
    200 H200       -0.1630  -24.6478  -46.7112 H         1 UNK         0.3000 
    201 H201        0.8723  -27.0711  -47.7186 H         1 UNK         0.0600 
    202 H202        2.2927  -25.2002  -46.9200 H         1 UNK         0.0600 
    203 H203        1.7689  -24.1947  -48.2717 H         1 UNK         0.0600 
    204 H204        2.7316  -25.6370  -48.5633 H         1 UNK         0.0600 
    205 H205       -0.7864  -24.4116  -49.3914 H         1 UNK         0.3000 
    206 H206       -0.6235  -25.7553  -52.0231 H         1 UNK         0.0600 
    207 H207       -0.2084  -23.3044  -51.8530 H         1 UNK         0.0600 
    208 H208       -1.6153  -23.6514  -52.8400 H         1 UNK         0.0600 
    209 H209       -1.8188  -23.0730  -51.1865 H         1 UNK         0.0600 
    210 H210       -2.1328  -26.8705  -49.6806 H         1 UNK         0.3000 
    211 H211       -3.8158  -28.1709  -49.2699 H         1 UNK         0.0600 
    212 H212       -4.6908  -27.8182  -52.1844 H         1 UNK         0.0600 
    213 H213       -5.2715  -29.0496  -51.0744 H         1 UNK         0.0600 
    214 H214       -3.5860  -29.0455  -51.5693 H         1 UNK         0.0600 
    215 H215       -5.0891  -25.5168  -51.2478 H         1 UNK         0.3000 
    216 H216       -6.8384  -24.5466  -49.1315 H         1 UNK         0.0600 
    217 H217       -8.9182  -24.6665  -50.5209 H         1 UNK         0.0600 
    218 H218       -8.3251  -26.2798  -50.1621 H         1 UNK         0.0600 
    219 H219       -8.0597  -25.5796  -51.7580 H         1 UNK         0.0600 
    220 H220       -4.6048  -23.4567  -49.9472 H         1 UNK         0.3000 
    221 H221       -3.5533  -21.6771  -50.8055 H         1 UNK         0.0600 
    222 H222       -6.3153  -20.3698  -50.9599 H         1 UNK         0.0600 
    223 H223       -5.4140  -20.5780  -49.4625 H         1 UNK         0.0600 
    224 H224       -4.7669  -19.5691  -50.7347 H         1 UNK         0.0600 
    225 H225       -4.1508  -23.6686  -52.7185 H         1 UNK         0.3000 
    226 H226       -4.1871  -24.2041  -54.8455 H         1 UNK         0.0600 
    227 H227       -2.1914  -22.6761  -54.9448 H         1 UNK         0.0600 
    228 H228       -3.0467  -22.7359  -56.4736 H         1 UNK         0.0600 
    229 H229       -3.2399  -21.3426  -55.4209 H         1 UNK         0.0600 
    230 H230       -6.5993  -22.6417  -53.6510 H         1 UNK         0.3000 
    231 H231       -8.5610  -21.7988  -54.1157 H         1 UNK         0.0600 
    232 H232       -8.9028  -23.9207  -55.4095 H         1 UNK         0.0600 
    233 H233       -8.3673  -23.1081  -56.8799 H         1 UNK         0.0600 
    234 H234       -9.8365  -22.5879  -56.0670 H         1 UNK         0.0600 
    235 H235       -6.1761  -20.1882  -54.6414 H         1 UNK         0.3000 
    236 H236       -7.3101  -18.1140  -56.4655 H         1 UNK         0.0600 
    237 H237       -5.0534  -17.8701  -57.5022 H         1 UNK         0.0600 
    238 H238       -4.4642  -19.2479  -56.5776 H         1 UNK         0.0600 
    239 H239       -5.7139  -19.4719  -57.7994 H         1 UNK         0.0600 
    240 H240       -4.9581  -18.9168  -53.8579 H         1 UNK         0.3000 
    241 H241       -4.5244  -16.0690  -53.2734 H         1 UNK         0.0600 
    242 H242       -7.4252  -17.3458  -50.8621 H         1 UNK         0.3800 
    243 H243       -7.0830  -18.0836  -52.4056 H         1 UNK         0.3800 
    244 H244       -2.9278  -16.9973  -51.5332 H         1 UNK         0.0800 
    245 H245       -3.2795  -18.6048  -52.1114 H         1 UNK         0.0800 
    246 H246        0.3867  -17.6016  -53.5005 H         1 UNK         0.0800 
    247 H247       -0.4674  -18.7409  -52.4875 H         1 UNK         0.0800 
@<TRIPOS>BOND
     1    1    2 1    
     2    1  127 1    
     3    1  128 1    
     4    1  129 1    
     5    2    3 2    
     6    2    4 am   BACKBONE|DICT|INTERRES
     7    4    5 1    
     8    4  130 1    
     9    5    6 1    
    10    5   65 1    
    11    5  131 1    
    12    6    7 1    
    13    6  132 1    
    14    6  133 1    
    15    7    8 1    
    16    8    9 1    
    17    8  134 1    
    18    8  135 1    
    19    9   10 ar   
    20    9   14 ar   
    21   10   11 ar   
    22   10  136 1    
    23   11   12 ar   
    24   11  126 1    
    25   12   13 ar   
    26   12  137 1    
    27   13   14 ar   
    28   13   15 1    
    29   14  138 1    
    30   15   16 1    
    31   15  139 1    
    32   15  140 1    
    33   16   17 1    
    34   17   18 1    
    35   17  141 1    
    36   17  142 1    
    37   18   19 1    
    38   18   67 1    
    39   18  143 1    
    40   19   20 am   BACKBONE|DICT|INTERRES
    41   19  144 1    
    42   20   21 2    
    43   20   22 1    
    44   22   23 1    
    45   22   24 1    
    46   22  145 1    
    47   23  146 1    
    48   23  147 1    
    49   23  148 1    
    50   24   25 am   BACKBONE|DICT|INTERRES
    51   24  149 1    
    52   25   26 2    
    53   25   27 1    
    54   27   28 1    
    55   27   29 1    
    56   27  150 1    
    57   28  151 1    
    58   28  152 1    
    59   28  153 1    
    60   29   30 am   BACKBONE|DICT|INTERRES
    61   29  154 1    
    62   30   31 2    
    63   30   32 1    
    64   32   33 1    
    65   32   34 1    
    66   32  155 1    
    67   33  156 1    
    68   33  157 1    
    69   33  158 1    
    70   34   35 am   BACKBONE|DICT|INTERRES
    71   34  159 1    
    72   35   36 2    
    73   35   37 1    
    74   37   38 1    
    75   37   39 1    
    76   37  160 1    
    77   38  161 1    
    78   38  162 1    
    79   38  163 1    
    80   39   40 am   BACKBONE|DICT|INTERRES
    81   39  164 1    
    82   40   41 2    
    83   40   42 1    
    84   42   43 1    
    85   42   44 1    
    86   42  165 1    
    87   43  166 1    
    88   43  167 1    
    89   43  168 1    
    90   44   45 am   BACKBONE|DICT|INTERRES
    91   44  169 1    
    92   45   46 2    
    93   45   47 1    
    94   47   48 1    
    95   47   49 1    
    96   47  170 1    
    97   48  171 1    
    98   48  172 1    
    99   48  173 1    
   100   49   50 am   BACKBONE|DICT|INTERRES
   101   49  174 1    
   102   50   51 2    
   103   50   52 1    
   104   52   53 1    
   105   52   54 1    
   106   52  175 1    
   107   53  176 1    
   108   53  177 1    
   109   53  178 1    
   110   54   55 am   BACKBONE|DICT|INTERRES
   111   54  179 1    
   112   55   56 2    
   113   55   57 1    
   114   57   58 1    
   115   57   59 1    
   116   57  180 1    
   117   58  181 1    
   118   58  182 1    
   119   58  183 1    
   120   59   60 am   BACKBONE|DICT|INTERRES
   121   59  184 1    
   122   60   61 2    
   123   60   62 1    
   124   62   63 1    
   125   62   64 1    
   126   62  185 1    
   127   63  186 1    
   128   63  187 1    
   129   63  188 1    
   130   64   65 am   BACKBONE|DICT|INTERRES
   131   64  189 1    
   132   65   66 2    
   133   67   68 2    
   134   67   69 am   BACKBONE|DICT|INTERRES
   135   69   70 1    
   136   69  190 1    
   137   70   71 1    
   138   70   72 1    
   139   70  191 1    
   140   71  192 1    
   141   71  193 1    
   142   71  194 1    
   143   72   73 2    
   144   72   74 am   BACKBONE|DICT|INTERRES
   145   74   75 1    
   146   74  195 1    
   147   75   76 1    
   148   75   77 1    
   149   75  196 1    
   150   76  197 1    
   151   76  198 1    
   152   76  199 1    
   153   77   78 2    
   154   77   79 am   BACKBONE|DICT|INTERRES
   155   79   80 1    
   156   79  200 1    
   157   80   81 1    
   158   80   82 1    
   159   80  201 1    
   160   81  202 1    
   161   81  203 1    
   162   81  204 1    
   163   82   83 2    
   164   82   84 am   BACKBONE|DICT|INTERRES
   165   84   85 1    
   166   84  205 1    
   167   85   86 1    
   168   85   87 1    
   169   85  206 1    
   170   86  207 1    
   171   86  208 1    
   172   86  209 1    
   173   87   88 2    
   174   87   89 am   BACKBONE|DICT|INTERRES
   175   89   90 1    
   176   89  210 1    
   177   90   91 1    
   178   90   92 1    
   179   90  211 1    
   180   91  212 1    
   181   91  213 1    
   182   91  214 1    
   183   92   93 2    
   184   92   94 am   BACKBONE|DICT|INTERRES
   185   94   95 1    
   186   94  215 1    
   187   95   96 1    
   188   95   97 1    
   189   95  216 1    
   190   96  217 1    
   191   96  218 1    
   192   96  219 1    
   193   97   98 2    
   194   97   99 am   BACKBONE|DICT|INTERRES
   195   99  100 1    
   196   99  220 1    
   197  100  101 1    
   198  100  102 1    
   199  100  221 1    
   200  101  222 1    
   201  101  223 1    
   202  101  224 1    
   203  102  103 2    
   204  102  104 am   BACKBONE|DICT|INTERRES
   205  104  105 1    
   206  104  225 1    
   207  105  106 1    
   208  105  107 1    
   209  105  226 1    
   210  106  227 1    
   211  106  228 1    
   212  106  229 1    
   213  107  108 2    
   214  107  109 am   BACKBONE|DICT|INTERRES
   215  109  110 1    
   216  109  230 1    
   217  110  111 1    
   218  110  112 1    
   219  110  231 1    
   220  111  232 1    
   221  111  233 1    
   222  111  234 1    
   223  112  113 2    
   224  112  114 am   BACKBONE|DICT|INTERRES
   225  114  115 1    
   226  114  235 1    
   227  115  116 1    
   228  115  117 1    
   229  115  236 1    
   230  116  237 1    
   231  116  238 1    
   232  116  239 1    
   233  117  118 2    
   234  117  119 am   BACKBONE|DICT|INTERRES
   235  119  120 1    
   236  119  240 1    
   237  120  121 1    
   238  120  124 1    
   239  120  241 1    
   240  121  122 am   BACKBONE|DICT|INTERRES
   241  121  123 2    
   242  122  242 1    
   243  122  243 1    
   244  124  125 1    
   245  124  244 1    
   246  124  245 1    
   247  125  126 1    
   248  126  246 1    
   249  126  247 1    
@<TRIPOS>SUBSTRUCTURE
     1 UNK         1 GROUP             0       ****    0 ROOT    
