@<TRIPOS>MOLECULE
3R540
247   249    1
SMALL
USER_CHARGES


@<TRIPOS>ATOM
      1 CA          1.5903  -13.8839  -50.6866 C.3       0 UNK        -0.1800 
      2 C           3.0003  -13.7727  -50.1282 C.2       0 UNK         0.5000 
      3 O           3.4503  -12.6738  -49.8046 O.2       0 UNK        -0.5000 
      4 N           3.7019  -14.9086  -50.0281 N.am      1 UNK        -0.5000 
      5 CA          5.0848  -14.9936  -49.5354 C.3       1 UNK         0.1400 
      6 C6          5.7787  -16.3090  -49.9659 C.3       23 UNK        -0.0398 
      7 S7          5.8116  -16.5184  -51.7777 S.3       23 UNK        -0.2404 
      8 C8          5.7371  -18.3327  -51.9386 C.3       23 UNK        -0.0205 
      9 C9          4.4186  -18.9313  -51.4610 C.ar      23 UNK        -0.0193 
     10 C10         3.2031  -18.4852  -51.9875 C.ar      23 UNK        -0.1150 
     11 C11         1.9964  -19.0620  -51.5819 C.ar      23 UNK        -0.0193 
     12 C12         2.0083  -20.1041  -50.6508 C.ar      23 UNK        -0.1150 
     13 C13         3.2178  -20.5644  -50.1207 C.ar      23 UNK        -0.0193 
     14 C14         4.4171  -19.9683  -50.5230 C.ar      23 UNK        -0.1150 
     15 C15         3.2415  -21.7479  -49.1652 C.3       23 UNK        -0.0205 
     16 S16         3.2666  -21.2559  -47.4101 S.3       23 UNK        -0.2404 
     17 C17         1.5660  -20.6648  -47.1084 C.3       23 UNK        -0.0398 
     18 CA          0.5849  -21.8008  -46.7087 C.3       11 UNK         0.1400 
     19 N          -0.4341  -21.3600  -45.7507 N.am      11 UNK        -0.5000 
     20 C          -1.3277  -22.1615  -45.1509 C.2       10 UNK         0.5000 
     21 O          -1.3474  -23.3841  -45.2857 O.2       10 UNK        -0.5000 
     22 CA         -2.4188  -21.4834  -44.3010 C.3       10 UNK         0.1400 
     23 CB         -1.9090  -21.1773  -42.8853 C.3       10 UNK        -0.1800 
     24 N          -2.9322  -20.2629  -44.9242 N.am      10 UNK        -0.5000 
     25 C          -3.6008  -20.2388  -46.0862 C.2       9 UNK         0.5000 
     26 O          -3.9257  -21.2501  -46.7081 O.2       9 UNK        -0.5000 
     27 CA         -3.9129  -18.8572  -46.6840 C.3       9 UNK         0.1400 
     28 CB         -5.1831  -18.2556  -46.0669 C.3       9 UNK        -0.1800 
     29 N          -2.8038  -17.9134  -46.5510 N.am      9 UNK        -0.5000 
     30 C          -1.6008  -18.0663  -47.1226 C.2       8 UNK         0.5000 
     31 O          -1.3111  -18.9984  -47.8711 O.2       8 UNK        -0.5000 
     32 CA         -0.5196  -17.0412  -46.7373 C.3       8 UNK         0.1400 
     33 CB         -0.6788  -15.7398  -47.5385 C.3       8 UNK        -0.1800 
     34 N          -0.5250  -16.7478  -45.3021 N.am      8 UNK        -0.5000 
     35 C          -0.2482  -17.6431  -44.3428 C.2       7 UNK         0.5000 
     36 O           0.1024  -18.7980  -44.5747 O.2       7 UNK        -0.5000 
     37 CA         -0.4505  -17.1989  -42.8831 C.3       7 UNK         0.1400 
     38 CB          0.7835  -16.4713  -42.3309 C.3       7 UNK        -0.1800 
     39 N          -1.6299  -16.3509  -42.7308 N.am      7 UNK        -0.5000 
     40 C          -2.8910  -16.7924  -42.8297 C.2       6 UNK         0.5000 
     41 O          -3.1902  -17.9723  -43.0128 O.2       6 UNK        -0.5000 
     42 CA         -3.9974  -15.7243  -42.7573 C.3       6 UNK         0.1400 
     43 CB         -4.3532  -15.4104  -41.2966 C.3       6 UNK        -0.1800 
     44 N          -3.6222  -14.4860  -43.4435 N.am      6 UNK        -0.5000 
     45 C          -3.4328  -14.3877  -44.7668 C.2       5 UNK         0.5000 
     46 O          -3.5921  -15.3240  -45.5484 O.2       5 UNK        -0.5000 
     47 CA         -2.9285  -13.0328  -45.2961 C.3       5 UNK         0.1400 
     48 CB         -4.1043  -12.0755  -45.5409 C.3       5 UNK        -0.1800 
     49 N          -1.9560  -12.3915  -44.4068 N.am      5 UNK        -0.5000 
     50 C          -0.7523  -12.8945  -44.1042 C.2       4 UNK         0.5000 
     51 O          -0.3330  -13.9751  -44.5259 O.2       4 UNK        -0.5000 
     52 CA          0.0997  -12.0780  -43.1265 C.3       4 UNK         0.1400 
     53 CB         -0.3147  -12.3688  -41.6735 C.3       4 UNK        -0.1800 
     54 N           1.5071  -12.4198  -43.3066 N.am      4 UNK        -0.5000 
     55 C           2.5327  -11.5804  -43.1221 C.2       3 UNK         0.5000 
     56 O           2.3915  -10.4084  -42.7690 O.2       3 UNK        -0.5000 
     57 CA          3.9604  -12.1240  -43.3436 C.3       3 UNK         0.1400 
     58 CB          4.6966  -12.2513  -41.9999 C.3       3 UNK        -0.1800 
     59 N           4.0242  -13.4176  -44.0295 N.am      3 UNK        -0.5000 
     60 C           3.8073  -13.6064  -45.3366 C.2       2 UNK         0.5000 
     61 O           3.4621  -12.7097  -46.1091 O.2       2 UNK        -0.5000 
     62 CA          3.9842  -15.0530  -45.8377 C.3       2 UNK         0.1400 
     63 CB          2.8078  -15.9268  -45.3872 C.3       2 UNK        -0.1800 
     64 N           4.0846  -15.1310  -47.2924 N.am      2 UNK        -0.5000 
     65 C           5.1794  -14.8315  -48.0028 C.2       1 UNK         0.5000 
     66 O           6.2424  -14.4675  -47.4966 O.2       1 UNK        -0.5000 
     67 C          -0.0580  -22.4482  -47.9509 C.2       11 UNK         0.5000 
     68 O           0.3227  -23.5571  -48.3219 O.2       11 UNK        -0.5000 
     69 N          -1.0456  -21.7653  -48.5466 N.am      12 UNK        -0.5000 
     70 CA         -1.8088  -22.2440  -49.6992 C.3       12 UNK         0.1400 
     71 CB         -2.7525  -21.1354  -50.1836 C.3       12 UNK        -0.1800 
     72 C          -2.5738  -23.5493  -49.4079 C.2       12 UNK         0.5000 
     73 O          -2.5303  -24.4692  -50.2251 O.2       12 UNK        -0.5000 
     74 N          -3.1986  -23.6361  -48.2250 N.am      13 UNK        -0.5000 
     75 CA         -3.8620  -24.8420  -47.7291 C.3       13 UNK         0.1400 
     76 CB         -4.6148  -24.5211  -46.4298 C.3       13 UNK        -0.1800 
     77 C          -2.8864  -26.0181  -47.5270 C.2       13 UNK         0.5000 
     78 O          -3.1883  -27.1332  -47.9527 O.2       13 UNK        -0.5000 
     79 N          -1.7171  -25.7482  -46.9268 N.am      14 UNK        -0.5000 
     80 CA         -0.6335  -26.7180  -46.7318 C.3       14 UNK         0.1400 
     81 CB          0.4426  -26.1128  -45.8180 C.3       14 UNK        -0.1800 
     82 C          -0.0133  -27.2095  -48.0549 C.2       14 UNK         0.5000 
     83 O           0.3693  -28.3757  -48.1517 O.2       14 UNK        -0.5000 
     84 N           0.0288  -26.3278  -49.0623 N.am      15 UNK        -0.5000 
     85 CA          0.4343  -26.6173  -50.4396 C.3       15 UNK         0.1400 
     86 CB          0.8260  -25.2982  -51.1272 C.3       15 UNK        -0.1800 
     87 C          -0.6364  -27.3751  -51.2586 C.2       15 UNK         0.5000 
     88 O          -0.3879  -27.6783  -52.4263 O.2       15 UNK        -0.5000 
     89 N          -1.7930  -27.6699  -50.6454 N.am      16 UNK        -0.5000 
     90 CA         -2.9467  -28.3916  -51.1908 C.3       16 UNK         0.1400 
     91 CB         -2.5645  -29.8200  -51.6344 C.3       16 UNK        -0.1800 
     92 C          -3.7231  -27.6063  -52.2676 C.2       16 UNK         0.5000 
     93 O          -4.4182  -28.2134  -53.0853 O.2       16 UNK        -0.5000 
     94 N          -3.6310  -26.2720  -52.2258 N.am      17 UNK        -0.5000 
     95 CA         -4.5036  -25.3540  -52.9525 C.3       17 UNK         0.1400 
     96 CB         -3.6759  -24.1319  -53.3922 C.3       17 UNK        -0.1800 
     97 C          -5.6874  -24.9495  -52.0497 C.2       17 UNK         0.5000 
     98 O          -5.8318  -25.4637  -50.9360 O.2       17 UNK        -0.5000 
     99 N          -6.5246  -24.0271  -52.5397 N.am      18 UNK        -0.5000 
    100 CA        -7.5822  -23.3890  -51.7547 C.3       18 UNK         0.1400 
    101 CB        -8.4658  -22.5511  -52.6916 C.3       18 UNK        -0.1800 
    102 C         -6.9887  -22.5027  -50.6435 C.2       18 UNK         0.5000 
    103 O         -5.9432  -21.8831  -50.8516 O.2       18 UNK        -0.5000 
    104 N         -7.6795  -22.4235  -49.5002 N.am      19 UNK        -0.5000 
    105 CA        -7.2859  -21.6341  -48.3294 C.3       19 UNK         0.1400 
    106 CB        -7.9655  -22.2267  -47.0819 C.3       19 UNK        -0.1800 
    107 C         -7.5822  -20.1284  -48.5116 C.2       19 UNK         0.5000 
    108 O         -8.2936  -19.5292  -47.7035 O.2       19 UNK        -0.5000 
    109 N         -7.0357  -19.5511  -49.5833 N.am      20 UNK        -0.5000 
    110 CA        -7.0563  -18.1311  -49.9112 C.3       20 UNK         0.1400 
    111 CB        -7.6533  -17.9580  -51.3161 C.3       20 UNK        -0.1800 
    112 C         -5.6130  -17.6135  -49.8750 C.2       20 UNK         0.5000 
    113 O         -4.6825  -18.3890  -50.1054 O.2       20 UNK        -0.5000 
    114 N         -5.4448  -16.3144  -49.6017 N.am      21 UNK        -0.5000 
    115 CA        -4.1596  -15.6310  -49.4162 C.3       21 UNK         0.1400 
    116 CB        -4.4209  -14.3024  -48.6860 C.3       21 UNK        -0.1800 
    117 C         -3.3585  -15.4402  -50.7252 C.2       21 UNK         0.5000 
    118 O         -3.0174  -14.3125  -51.0855 O.2       21 UNK        -0.5000 
    119 N         -3.0884  -16.5527  -51.4159 N.am      22 UNK        -0.5000 
    120 CA        -2.3325  -16.6679  -52.6748 C.3       22 UNK         0.1400 
    121 C         -3.0278  -16.0356  -53.9207 C.2       22 UNK         0.5000 
    122 N         -4.3119  -15.7030  -53.8679 N.am      22 UNK        -0.7600 
    123 O         -2.4069  -15.8746  -54.9681 O.2       22 UNK        -0.5000 
    124 C124       -0.8480  -16.2300  -52.5352 C.3       23 UNK        -0.0398 
    125 S125        0.0529  -17.1442  -51.2346 S.3       23 UNK        -0.2404 
    126 C126        0.6882  -18.5660  -52.1722 C.3       23 UNK        -0.0205 
    127 H127        0.9148  -14.2967  -49.9375 H         1 UNK         0.0600 
    128 H128        1.5767  -14.5300  -51.5641 H         1 UNK         0.0600 
    129 H129        1.2131  -12.9055  -50.9846 H         1 UNK         0.0600 
    130 H130        3.2920  -15.7779  -50.3403 H         1 UNK         0.3000 
    131 H131        5.6470  -14.1658  -49.9736 H         1 UNK         0.0600 
    132 H132        6.8118  -16.3318  -49.6138 H         1 UNK         0.0800 
    133 H133        5.2811  -17.1649  -49.5067 H         1 UNK         0.0800 
    134 H134        6.5806  -18.7676  -51.4002 H         1 UNK         0.0800 
    135 H135        5.8761  -18.5954  -52.9880 H         1 UNK         0.0800 
    136 H136        3.1969  -17.6886  -52.7185 H         1 UNK         0.1150 
    137 H137        1.0771  -20.5638  -50.3507 H         1 UNK         0.1150 
    138 H138        5.3527  -20.3323  -50.1216 H         1 UNK         0.1150 
    139 H139        2.4030  -22.4123  -49.3663 H         1 UNK         0.0800 
    140 H140        4.1333  -22.3451  -49.3610 H         1 UNK         0.0800 
    141 H141        1.2063  -20.0770  -47.9536 H         1 UNK         0.0800 
    142 H142        1.6547  -19.9525  -46.2888 H         1 UNK         0.0800 
    143 H143        1.1529  -22.5799  -46.1955 H         1 UNK         0.0600 
    144 H144       -0.4491  -20.3688  -45.5286 H         1 UNK         0.3000 
    145 H145       -3.2515  -22.1840  -44.2121 H         1 UNK         0.0600 
    146 H146       -2.6939  -20.7370  -42.2701 H         1 UNK         0.0600 
    147 H147       -1.5771  -22.0889  -42.3870 H         1 UNK         0.0600 
    148 H148       -1.0665  -20.4869  -42.8971 H         1 UNK         0.0600 
    149 H149       -2.7557  -19.3897  -44.4395 H         1 UNK         0.3000 
    150 H150       -4.0897  -19.0116  -47.7467 H         1 UNK         0.0600 
    151 H151       -6.0221  -18.9473  -46.1437 H         1 UNK         0.0600 
    152 H152       -5.4697  -17.3356  -46.5769 H         1 UNK         0.0600 
    153 H153       -5.0471  -18.0234  -45.0110 H         1 UNK         0.0600 
    154 H154       -2.9765  -17.0836  -45.9898 H         1 UNK         0.3000 
    155 H155        0.4510  -17.4747  -46.9874 H         1 UNK         0.0600 
    156 H156       -1.6239  -15.2449  -47.3220 H         1 UNK         0.0600 
    157 H157       -0.6545  -15.9367  -48.6100 H         1 UNK         0.0600 
    158 H158        0.1233  -15.0357  -47.3185 H         1 UNK         0.0600 
    159 H159       -0.7392  -15.7931  -45.0297 H         1 UNK         0.3000 
    160 H160       -0.5997  -18.0992  -42.2833 H         1 UNK         0.0600 
    161 H161        0.9780  -15.5391  -42.8594 H         1 UNK         0.0600 
    162 H162        1.6733  -17.0958  -42.4175 H         1 UNK         0.0600 
    163 H163        0.6579  -16.2335  -41.2745 H         1 UNK         0.0600 
    164 H164       -1.4693  -15.3605  -42.6299 H         1 UNK         0.3000 
    165 H165       -4.8853  -16.1299  -43.2470 H         1 UNK         0.0600 
    166 H166       -5.1862  -14.7097  -41.2359 H         1 UNK         0.0600 
    167 H167       -4.6516  -16.3151  -40.7652 H         1 UNK         0.0600 
    168 H168       -3.5092  -14.9766  -40.7588 H         1 UNK         0.0600 
    169 H169       -3.4730  -13.6691  -42.8702 H         1 UNK         0.3000 
    170 H170       -2.4338  -13.2155  -46.2517 H         1 UNK         0.0600 
    171 H171       -4.8449  -12.5237  -46.2039 H         1 UNK         0.0600 
    172 H172       -4.6127  -11.8146  -44.6119 H         1 UNK         0.0600 
    173 H173       -3.7680  -11.1512  -46.0110 H         1 UNK         0.0600 
    174 H174       -2.2288  -11.5032  -44.0110 H         1 UNK         0.3000 
    175 H175       -0.0559  -11.0198  -43.3469 H         1 UNK         0.0600 
    176 H176       -0.1688  -13.4187  -41.4162 H         1 UNK         0.0600 
    177 H177        0.2668  -11.7707  -40.9717 H         1 UNK         0.0600 
    178 H178       -1.3658  -12.1305  -41.5063 H         1 UNK         0.0600 
    179 H179        1.6785  -13.3474  -43.6697 H         1 UNK         0.3000 
    180 H180        4.4920  -11.3892  -43.9522 H         1 UNK         0.0600 
    181 H181        4.2166  -12.9807  -41.3463 H         1 UNK         0.0600 
    182 H182        4.7145  -11.2981  -41.4697 H         1 UNK         0.0600 
    183 H183        5.7327  -12.5582  -42.1442 H         1 UNK         0.0600 
    184 H184        4.2889  -14.2077  -43.4590 H         1 UNK         0.3000 
    185 H185        4.9020  -15.4589  -45.4067 H         1 UNK         0.0600 
    186 H186        2.8583  -16.9273  -45.8176 H         1 UNK         0.0600 
    187 H187        2.8095  -16.0439  -44.3049 H         1 UNK         0.0600 
    188 H188        1.8556  -15.4811  -45.6721 H         1 UNK         0.0600 
    189 H189        3.2424  -15.3671  -47.7945 H         1 UNK         0.3000 
    190 H190       -1.2797  -20.8373  -48.1996 H         1 UNK         0.3000 
    191 H191       -1.0951  -22.4499  -50.4991 H         1 UNK         0.0600 
    192 H192       -3.5112  -20.8965  -49.4377 H         1 UNK         0.0600 
    193 H193       -3.2722  -21.4359  -51.0935 H         1 UNK         0.0600 
    194 H194       -2.2076  -20.2181  -50.4086 H         1 UNK         0.0600 
    195 H195       -3.2264  -22.8176  -47.6236 H         1 UNK         0.3000 
    196 H196       -4.5963  -25.1442  -48.4785 H         1 UNK         0.0600 
    197 H197       -5.1628  -25.3930  -46.0708 H         1 UNK         0.0600 
    198 H198       -5.3380  -23.7207  -46.5821 H         1 UNK         0.0600 
    199 H199       -3.9363  -24.2088  -45.6361 H         1 UNK         0.0600 
    200 H200       -1.5547  -24.8118  -46.5655 H         1 UNK         0.3000 
    201 H201       -1.0560  -27.5881  -46.2252 H         1 UNK         0.0600 
    202 H202        0.0272  -25.8395  -44.8479 H         1 UNK         0.0600 
    203 H203        0.8865  -25.2182  -46.2551 H         1 UNK         0.0600 
    204 H204        1.2486  -26.8252  -45.6378 H         1 UNK         0.0600 
    205 H205       -0.2330  -25.3660  -48.8659 H         1 UNK         0.3000 
    206 H206        1.3201  -27.2545  -50.4074 H         1 UNK         0.0600 
    207 H207        1.6090  -24.7809  -50.5724 H         1 UNK         0.0600 
    208 H208        1.2066  -25.4763  -52.1335 H         1 UNK         0.0600 
    209 H209       -0.0244  -24.6223  -51.2140 H         1 UNK         0.0600 
    210 H210       -1.9140  -27.3443  -49.6939 H         1 UNK         0.3000 
    211 H211       -3.6411  -28.4943  -50.3560 H         1 UNK         0.0600 
    212 H212       -1.9451  -29.8163  -52.5314 H         1 UNK         0.0600 
    213 H213       -3.4539  -30.4101  -51.8576 H         1 UNK         0.0600 
    214 H214       -2.0187  -30.3440  -50.8497 H         1 UNK         0.0600 
    215 H215       -3.0930  -25.8453  -51.4759 H         1 UNK         0.3000 
    216 H216       -4.9051  -25.8388  -53.8444 H         1 UNK         0.0600 
    217 H217       -4.2428  -23.4916  -54.0683 H         1 UNK         0.0600 
    218 H218       -2.7734  -24.4373  -53.9221 H         1 UNK         0.0600 
    219 H219       -3.3725  -23.5201  -52.5428 H         1 UNK         0.0600 
    220 H220       -6.3371  -23.6274  -53.4470 H         1 UNK         0.3000 
    221 H221       -8.1943  -24.1701  -51.2987 H         1 UNK         0.0600 
    222 H222       -7.8974  -21.7569  -53.1775 H         1 UNK         0.0600 
    223 H223       -8.9139  -23.1690  -53.4700 H         1 UNK         0.0600 
    224 H224       -9.2816  -22.0799  -52.1418 H         1 UNK         0.0600 
    225 H225       -8.5509  -22.9275  -49.4211 H         1 UNK         0.3000 
    226 H226       -6.2067  -21.7327  -48.1925 H         1 UNK         0.0600 
    227 H227       -7.7220  -23.2824  -46.9621 H         1 UNK         0.0600 
    228 H228       -7.6343  -21.7143  -46.1777 H         1 UNK         0.0600 
    229 H229       -9.0514  -22.1383  -47.1335 H         1 UNK         0.0600 
    230 H230       -6.4216  -20.1218  -50.1595 H         1 UNK         0.3000 
    231 H231       -7.6547  -17.5713  -49.1895 H         1 UNK         0.0600 
    232 H232       -8.6724  -18.3428  -51.3591 H         1 UNK         0.0600 
    233 H233       -7.0664  -18.4837  -52.0709 H         1 UNK         0.0600 
    234 H234       -7.6904  -16.9058  -51.6006 H         1 UNK         0.0600 
    235 H235       -6.2650  -15.7404  -49.4700 H         1 UNK         0.3000 
    236 H236       -3.5440  -16.2487  -48.7604 H         1 UNK         0.0600 
    237 H237       -3.4858  -13.7913  -48.4553 H         1 UNK         0.0600 
    238 H238       -5.0283  -13.6243  -49.2865 H         1 UNK         0.0600 
    239 H239       -4.9403  -14.4700  -47.7428 H         1 UNK         0.0600 
    240 H240       -3.4625  -17.4230  -51.0426 H         1 UNK         0.3000 
    241 H241       -2.3242  -17.7357  -52.8953 H         1 UNK         0.0600 
    242 H242       -4.7557  -15.3060  -54.6812 H         1 UNK         0.3800 
    243 H243       -4.8372  -15.8291  -53.0186 H         1 UNK         0.3800 
    244 H244       -0.7911  -15.1661  -52.3029 H         1 UNK         0.0800 
    245 H245       -0.3141  -16.3494  -53.4788 H         1 UNK         0.0800 
    246 H246        0.8476  -18.2973  -53.2172 H         1 UNK         0.0800 
    247 H247       -0.0604  -19.3599  -52.1699 H         1 UNK         0.0800 
@<TRIPOS>BOND
     1    1    2 1    
     2    1  127 1    
     3    1  128 1    
     4    1  129 1    
     5    2    3 2    
     6    2    4 am   BACKBONE|DICT|INTERRES
     7    4    5 1    
     8    4  130 1    
     9    5    6 1    
    10    5   65 1    
    11    5  131 1    
    12    6    7 1    
    13    6  132 1    
    14    6  133 1    
    15    7    8 1    
    16    8    9 1    
    17    8  134 1    
    18    8  135 1    
    19    9   10 ar   
    20    9   14 ar   
    21   10   11 ar   
    22   10  136 1    
    23   11   12 ar   
    24   11  126 1    
    25   12   13 ar   
    26   12  137 1    
    27   13   14 ar   
    28   13   15 1    
    29   14  138 1    
    30   15   16 1    
    31   15  139 1    
    32   15  140 1    
    33   16   17 1    
    34   17   18 1    
    35   17  141 1    
    36   17  142 1    
    37   18   19 1    
    38   18   67 1    
    39   18  143 1    
    40   19   20 am   BACKBONE|DICT|INTERRES
    41   19  144 1    
    42   20   21 2    
    43   20   22 1    
    44   22   23 1    
    45   22   24 1    
    46   22  145 1    
    47   23  146 1    
    48   23  147 1    
    49   23  148 1    
    50   24   25 am   BACKBONE|DICT|INTERRES
    51   24  149 1    
    52   25   26 2    
    53   25   27 1    
    54   27   28 1    
    55   27   29 1    
    56   27  150 1    
    57   28  151 1    
    58   28  152 1    
    59   28  153 1    
    60   29   30 am   BACKBONE|DICT|INTERRES
    61   29  154 1    
    62   30   31 2    
    63   30   32 1    
    64   32   33 1    
    65   32   34 1    
    66   32  155 1    
    67   33  156 1    
    68   33  157 1    
    69   33  158 1    
    70   34   35 am   BACKBONE|DICT|INTERRES
    71   34  159 1    
    72   35   36 2    
    73   35   37 1    
    74   37   38 1    
    75   37   39 1    
    76   37  160 1    
    77   38  161 1    
    78   38  162 1    
    79   38  163 1    
    80   39   40 am   BACKBONE|DICT|INTERRES
    81   39  164 1    
    82   40   41 2    
    83   40   42 1    
    84   42   43 1    
    85   42   44 1    
    86   42  165 1    
    87   43  166 1    
    88   43  167 1    
    89   43  168 1    
    90   44   45 am   BACKBONE|DICT|INTERRES
    91   44  169 1    
    92   45   46 2    
    93   45   47 1    
    94   47   48 1    
    95   47   49 1    
    96   47  170 1    
    97   48  171 1    
    98   48  172 1    
    99   48  173 1    
   100   49   50 am   BACKBONE|DICT|INTERRES
   101   49  174 1    
   102   50   51 2    
   103   50   52 1    
   104   52   53 1    
   105   52   54 1    
   106   52  175 1    
   107   53  176 1    
   108   53  177 1    
   109   53  178 1    
   110   54   55 am   BACKBONE|DICT|INTERRES
   111   54  179 1    
   112   55   56 2    
   113   55   57 1    
   114   57   58 1    
   115   57   59 1    
   116   57  180 1    
   117   58  181 1    
   118   58  182 1    
   119   58  183 1    
   120   59   60 am   BACKBONE|DICT|INTERRES
   121   59  184 1    
   122   60   61 2    
   123   60   62 1    
   124   62   63 1    
   125   62   64 1    
   126   62  185 1    
   127   63  186 1    
   128   63  187 1    
   129   63  188 1    
   130   64   65 am   BACKBONE|DICT|INTERRES
   131   64  189 1    
   132   65   66 2    
   133   67   68 2    
   134   67   69 am   BACKBONE|DICT|INTERRES
   135   69   70 1    
   136   69  190 1    
   137   70   71 1    
   138   70   72 1    
   139   70  191 1    
   140   71  192 1    
   141   71  193 1    
   142   71  194 1    
   143   72   73 2    
   144   72   74 am   BACKBONE|DICT|INTERRES
   145   74   75 1    
   146   74  195 1    
   147   75   76 1    
   148   75   77 1    
   149   75  196 1    
   150   76  197 1    
   151   76  198 1    
   152   76  199 1    
   153   77   78 2    
   154   77   79 am   BACKBONE|DICT|INTERRES
   155   79   80 1    
   156   79  200 1    
   157   80   81 1    
   158   80   82 1    
   159   80  201 1    
   160   81  202 1    
   161   81  203 1    
   162   81  204 1    
   163   82   83 2    
   164   82   84 am   BACKBONE|DICT|INTERRES
   165   84   85 1    
   166   84  205 1    
   167   85   86 1    
   168   85   87 1    
   169   85  206 1    
   170   86  207 1    
   171   86  208 1    
   172   86  209 1    
   173   87   88 2    
   174   87   89 am   BACKBONE|DICT|INTERRES
   175   89   90 1    
   176   89  210 1    
   177   90   91 1    
   178   90   92 1    
   179   90  211 1    
   180   91  212 1    
   181   91  213 1    
   182   91  214 1    
   183   92   93 2    
   184   92   94 am   BACKBONE|DICT|INTERRES
   185   94   95 1    
   186   94  215 1    
   187   95   96 1    
   188   95   97 1    
   189   95  216 1    
   190   96  217 1    
   191   96  218 1    
   192   96  219 1    
   193   97   98 2    
   194   97   99 am   BACKBONE|DICT|INTERRES
   195   99  100 1    
   196   99  220 1    
   197  100  101 1    
   198  100  102 1    
   199  100  221 1    
   200  101  222 1    
   201  101  223 1    
   202  101  224 1    
   203  102  103 2    
   204  102  104 am   BACKBONE|DICT|INTERRES
   205  104  105 1    
   206  104  225 1    
   207  105  106 1    
   208  105  107 1    
   209  105  226 1    
   210  106  227 1    
   211  106  228 1    
   212  106  229 1    
   213  107  108 2    
   214  107  109 am   BACKBONE|DICT|INTERRES
   215  109  110 1    
   216  109  230 1    
   217  110  111 1    
   218  110  112 1    
   219  110  231 1    
   220  111  232 1    
   221  111  233 1    
   222  111  234 1    
   223  112  113 2    
   224  112  114 am   BACKBONE|DICT|INTERRES
   225  114  115 1    
   226  114  235 1    
   227  115  116 1    
   228  115  117 1    
   229  115  236 1    
   230  116  237 1    
   231  116  238 1    
   232  116  239 1    
   233  117  118 2    
   234  117  119 am   BACKBONE|DICT|INTERRES
   235  119  120 1    
   236  119  240 1    
   237  120  121 1    
   238  120  124 1    
   239  120  241 1    
   240  121  122 am   BACKBONE|DICT|INTERRES
   241  121  123 2    
   242  122  242 1    
   243  122  243 1    
   244  124  125 1    
   245  124  244 1    
   246  124  245 1    
   247  125  126 1    
   248  126  246 1    
   249  126  247 1    
@<TRIPOS>SUBSTRUCTURE
     1 UNK         1 GROUP             0       ****    0 ROOT    
