@<TRIPOS>MOLECULE
3R540
247   249    1
SMALL
USER_CHARGES


@<TRIPOS>ATOM
      1 CA         -2.3830  -16.3373  -45.9334 C.3       0 UNK        -0.1800 
      2 C          -2.3435  -15.1142  -46.8389 C.2       0 UNK         0.5000 
      3 O          -3.0681  -14.1489  -46.6006 O.2       0 UNK        -0.5000 
      4 N          -1.5041  -15.1599  -47.8808 N.am      1 UNK        -0.5000 
      5 CA         -1.3190  -14.0807  -48.8615 C.3       1 UNK         0.1400 
      6 C6         -0.7346  -14.6221  -50.1882 C.3       23 UNK        -0.0398 
      7 S7         -1.9562  -15.5824  -51.1452 S.3       23 UNK        -0.2404 
      8 C8         -1.6602  -17.2983  -50.5919 C.3       23 UNK        -0.0205 
      9 C9         -0.2911  -17.8983  -50.9165 C.ar      23 UNK        -0.0193 
     10 C10         0.5857  -17.3483  -51.8638 C.ar      23 UNK        -0.1150 
     11 C11         1.8158  -17.9568  -52.1349 C.ar      23 UNK        -0.0193 
     12 C12         2.1624  -19.1349  -51.4687 C.ar      23 UNK        -0.1150 
     13 C13         1.2931  -19.7045  -50.5369 C.ar      23 UNK        -0.0193 
     14 C14         0.0754  -19.0787  -50.2624 C.ar      23 UNK        -0.1150 
     15 C15         1.6497  -21.0104  -49.8473 C.3       23 UNK        -0.0205 
     16 S16         2.1264  -20.7456  -48.1110 S.3       23 UNK        -0.2404 
     17 C17         2.2960  -22.4717  -47.5416 C.3       23 UNK        -0.0398 
     18 CA          1.0889  -23.0689  -46.7715 C.3       11 UNK         0.1400 
     19 N           0.9792  -22.6190  -45.3800 N.am      11 UNK        -0.5000 
     20 C           0.2649  -23.2881  -44.4600 C.2       10 UNK         0.5000 
     21 O          -0.3530  -24.3250  -44.7032 O.2       10 UNK        -0.5000 
     22 CA          0.1952  -22.7037  -43.0409 C.3       10 UNK         0.1400 
     23 CB          1.4938  -22.9871  -42.2713 C.3       10 UNK        -0.1800 
     24 N          -0.0988  -21.2728  -43.0259 N.am      10 UNK        -0.5000 
     25 C          -1.2313  -20.7209  -43.4849 C.2       9 UNK         0.5000 
     26 O          -2.1639  -21.3666  -43.9626 O.2       9 UNK        -0.5000 
     27 CA         -1.3163  -19.1839  -43.4487 C.3       9 UNK         0.1400 
     28 CB         -1.6537  -18.6778  -42.0387 C.3       9 UNK        -0.1800 
     29 N          -0.0836  -18.5506  -43.9130 N.am      9 UNK        -0.5000 
     30 C           0.4106  -18.6856  -45.1517 C.2       8 UNK         0.5000 
     31 O          -0.1558  -19.3032  -46.0524 O.2       8 UNK        -0.5000 
     32 CA          1.7859  -18.0530  -45.4095 C.3       8 UNK         0.1400 
     33 CB          1.6543  -16.5436  -45.6570 C.3       8 UNK        -0.1800 
     34 N           2.7117  -18.3012  -44.3043 N.am      8 UNK        -0.5000 
     35 C           3.2131  -19.5071  -43.9976 C.2       7 UNK         0.5000 
     36 O           2.9673  -20.5363  -44.6275 O.2       7 UNK        -0.5000 
     37 CA          4.1106  -19.5793  -42.7491 C.3       7 UNK         0.1400 
     38 CB          5.5452  -19.1459  -43.0858 C.3       7 UNK        -0.1800 
     39 N           3.6044  -18.7668  -41.6414 N.am      7 UNK        -0.5000 
     40 C           2.4600  -19.0100  -40.9869 C.2       6 UNK         0.5000 
     41 O           1.7149  -19.9541  -41.2399 O.2       6 UNK        -0.5000 
     42 CA          2.0559  -18.0049  -39.8950 C.3       6 UNK         0.1400 
     43 CB          2.7096  -18.3711  -38.5543 C.3       6 UNK        -0.1800 
     44 N           2.3810  -16.6177  -40.2334 N.am      6 UNK        -0.5000 
     45 C           1.8695  -15.9500  -41.2749 C.2       5 UNK         0.5000 
     46 O           1.1104  -16.4506  -42.1100 O.2       5 UNK        -0.5000 
     47 CA          2.3134  -14.4861  -41.4309 C.3       5 UNK         0.1400 
     48 CB          3.3853  -14.3669  -42.5249 C.3       5 UNK        -0.1800 
     49 N           1.1750  -13.6294  -41.7598 N.am      5 UNK        -0.5000 
     50 C           0.2057  -13.3014  -40.8933 C.2       4 UNK         0.5000 
     51 O           0.2153  -13.6417  -39.7083 O.2       4 UNK        -0.5000 
     52 CA         -0.9678  -12.4620  -41.4446 C.3       4 UNK         0.1400 
     53 CB         -1.7450  -11.7154  -40.3399 C.3       4 UNK        -0.1800 
     54 N          -0.5835  -11.5405  -42.5198 N.am      4 UNK        -0.5000 
     55 C           0.2722  -10.5106  -42.4631 C.2       3 UNK         0.5000 
     56 O           0.9086  -10.2009  -41.4543 O.2       3 UNK        -0.5000 
     57 CA          0.4500   -9.7104  -43.7748 C.3       3 UNK         0.1400 
     58 CB          1.3282   -8.4592  -43.5912 C.3       3 UNK        -0.1800 
     59 N           1.0154  -10.5227  -44.8565 N.am      3 UNK        -0.5000 
     60 C           0.3741  -11.4853  -45.5310 C.2       2 UNK         0.5000 
     61 O          -0.8024  -11.7898  -45.3172 O.2       2 UNK        -0.5000 
     62 CA          1.2046  -12.2564  -46.5762 C.3       2 UNK         0.1400 
     63 CB          2.3602  -13.0126  -45.9025 C.3       2 UNK        -0.1800 
     64 N           0.3854  -13.2272  -47.3007 N.am      2 UNK        -0.5000 
     65 C          -0.4410  -12.9337  -48.3130 C.2       1 UNK         0.5000 
     66 O          -0.5252  -11.8131  -48.8186 O.2       1 UNK        -0.5000 
     67 C          -0.2541  -22.9604  -47.5245 C.2       11 UNK         0.5000 
     68 O          -0.5805  -23.8669  -48.2896 O.2       11 UNK        -0.5000 
     69 N          -1.0322  -21.8976  -47.2620 N.am      12 UNK        -0.5000 
     70 CA         -2.3835  -21.7193  -47.7959 C.3       12 UNK         0.1400 
     71 CB         -2.9090  -20.3183  -47.4480 C.3       12 UNK        -0.1800 
     72 C          -3.3554  -22.8060  -47.3024 C.2       12 UNK         0.5000 
     73 O          -4.1248  -23.3367  -48.1035 O.2       12 UNK        -0.5000 
     74 N          -3.2783  -23.1497  -46.0088 N.am      13 UNK        -0.5000 
     75 CA         -4.0440  -24.2357  -45.3971 C.3       13 UNK         0.1400 
     76 CB         -3.8720  -24.2032  -43.8711 C.3       13 UNK        -0.1800 
     77 C          -3.6668  -25.6150  -45.9665 C.2       13 UNK         0.5000 
     78 O          -4.5608  -26.3927  -46.3003 O.2       13 UNK        -0.5000 
     79 N          -2.3592  -25.8765  -46.1106 N.am      14 UNK        -0.5000 
     80 CA         -1.8117  -27.1062  -46.6910 C.3       14 UNK         0.1400 
     81 CB         -0.2869  -27.1262  -46.5080 C.3       14 UNK        -0.1800 
     82 C          -2.1822  -27.2945  -48.1745 C.2       14 UNK         0.5000 
     83 O          -2.4666  -28.4176  -48.5921 O.2       14 UNK        -0.5000 
     84 N          -2.2039  -26.1910  -48.9338 N.am      15 UNK        -0.5000 
     85 CA         -2.6316  -26.1438  -50.3332 C.3       15 UNK         0.1400 
     86 CB         -2.1265  -24.8335  -50.9604 C.3       15 UNK        -0.1800 
     87 C          -4.1582  -26.2641  -50.5180 C.2       15 UNK         0.5000 
     88 O          -4.6026  -26.4901  -51.6433 O.2       15 UNK        -0.5000 
     89 N          -4.9268  -26.0894  -49.4309 N.am      16 UNK        -0.5000 
     90 CA         -6.3884  -25.9791  -49.3825 C.3       16 UNK         0.1400 
     91 CB         -7.0662  -27.3028  -49.7934 C.3       16 UNK        -0.1800 
     92 C          -6.8790  -24.7583  -50.1869 C.2       16 UNK         0.5000 
     93 O          -7.7522  -24.8786  -51.0489 O.2       16 UNK        -0.5000 
     94 N          -6.2497  -23.6073  -49.9124 N.am      17 UNK        -0.5000 
     95 CA         -6.3762  -22.2950  -50.5515 C.3       17 UNK         0.1400 
     96 CB         -7.8172  -21.7540  -50.4945 C.3       17 UNK        -0.1800 
     97 C          -5.8109  -22.2472  -51.9811 C.2       17 UNK         0.5000 
     98 O          -5.0445  -21.3345  -52.2854 O.2       17 UNK        -0.5000 
     99 N          -6.1962  -23.2107  -52.8301 N.am      18 UNK        -0.5000 
    100 CA        -5.7618  -23.4003  -54.2212 C.3       18 UNK         0.1400 
    101 CB        -4.3015  -23.8972  -54.2557 C.3       18 UNK        -0.1800 
    102 C         -5.9850  -22.1563  -55.1103 C.2       18 UNK         0.5000 
    103 O         -5.1236  -21.8188  -55.9231 O.2       18 UNK        -0.5000 
    104 N         -7.1233  -21.4748  -54.9021 N.am      19 UNK        -0.5000 
    105 CA        -7.5071  -20.1930  -55.5117 C.3       19 UNK         0.1400 
    106 CB        -7.7534  -20.3531  -57.0270 C.3       19 UNK        -0.1800 
    107 C         -6.5165  -19.0560  -55.1700 C.2       19 UNK         0.5000 
    108 O         -6.1571  -18.2599  -56.0387 O.2       19 UNK        -0.5000 
    109 N         -6.0912  -19.0263  -53.8977 N.am      20 UNK        -0.5000 
    110 CA        -5.0749  -18.1483  -53.3066 C.3       20 UNK         0.1400 
    111 CB        -5.4907  -16.6640  -53.3822 C.3       20 UNK        -0.1800 
    112 C         -3.6583  -18.4168  -53.8567 C.2       20 UNK         0.5000 
    113 O         -2.8692  -17.4810  -53.9858 O.2       20 UNK        -0.5000 
    114 N         -3.3739  -19.6959  -54.1478 N.am      21 UNK        -0.5000 
    115 CA        -2.1162  -20.2929  -54.6094 C.3       21 UNK         0.1400 
    116 CB        -1.2039  -20.5762  -53.4016 C.3       21 UNK        -0.1800 
    117 C         -1.4133  -19.4972  -55.7291 C.2       21 UNK         0.5000 
    118 O         -1.7011  -19.7245  -56.9052 O.2       21 UNK        -0.5000 
    119 N         -0.5119  -18.5842  -55.3444 N.am      22 UNK        -0.5000 
    120 CA         0.1787  -17.6411  -56.2374 C.3       22 UNK         0.1400 
    121 C         -0.7509  -16.5998  -56.9292 C.2       22 UNK         0.5000 
    122 N         -1.9324  -16.3077  -56.4001 N.am      22 UNK        -0.7600 
    123 O         -0.3890  -16.0468  -57.9643 O.2       22 UNK        -0.5000 
    124 C124        1.3321  -16.9024  -55.5133 C.3       23 UNK        -0.0398 
    125 S125        2.5874  -18.0226  -54.8045 S.3       23 UNK        -0.2404 
    126 C126        2.7899  -17.3404  -53.1278 C.3       23 UNK        -0.0205 
    127 H127       -1.9582  -17.2125  -46.4249 H         1 UNK         0.0600 
    128 H128       -3.4114  -16.5746  -45.6610 H         1 UNK         0.0600 
    129 H129       -1.8213  -16.1480  -45.0185 H         1 UNK         0.0600 
    130 H130       -0.9508  -15.9895  -48.0345 H         1 UNK         0.3000 
    131 H131       -2.2957  -13.6413  -49.0768 H         1 UNK         0.0600 
    132 H132       -0.4222  -13.8001  -50.8352 H         1 UNK         0.0800 
    133 H133        0.1624  -15.2158  -50.0069 H         1 UNK         0.0800 
    134 H134       -2.4171  -17.9304  -51.0572 H         1 UNK         0.0800 
    135 H135       -1.8412  -17.3572  -49.5187 H         1 UNK         0.0800 
    136 H136        0.3202  -16.4458  -52.3937 H         1 UNK         0.1150 
    137 H137        3.1087  -19.6118  -51.6825 H         1 UNK         0.1150 
    138 H138       -0.5941  -19.5260  -49.5414 H         1 UNK         0.1150 
    139 H139        0.7927  -21.6826  -49.9013 H         1 UNK         0.0800 
    140 H140        2.4658  -21.5098  -50.3717 H         1 UNK         0.0800 
    141 H141        2.5196  -23.1009  -48.4046 H         1 UNK         0.0800 
    142 H142        3.1861  -22.5255  -46.9133 H         1 UNK         0.0800 
    143 H143        1.3010  -24.1388  -46.7136 H         1 UNK         0.0600 
    144 H144        1.4884  -21.7784  -45.1219 H         1 UNK         0.3000 
    145 H145       -0.6192  -23.2098  -42.5184 H         1 UNK         0.0600 
    146 H146        1.4068  -22.6837  -41.2280 H         1 UNK         0.0600 
    147 H147        2.3432  -22.4587  -42.7044 H         1 UNK         0.0600 
    148 H148        1.7295  -24.0520  -42.2799 H         1 UNK         0.0600 
    149 H149        0.6029  -20.6743  -42.5988 H         1 UNK         0.3000 
    150 H150       -2.1213  -18.8798  -44.1209 H         1 UNK         0.0600 
    151 H151       -2.5905  -19.1088  -41.6836 H         1 UNK         0.0600 
    152 H152       -1.7672  -17.5935  -42.0267 H         1 UNK         0.0600 
    153 H153       -0.8775  -18.9395  -41.3194 H         1 UNK         0.0600 
    154 H154        0.4285  -17.9907  -43.2387 H         1 UNK         0.3000 
    155 H155        2.2056  -18.5033  -46.3095 H         1 UNK         0.0600 
    156 H156        1.0223  -16.3496  -46.5237 H         1 UNK         0.0600 
    157 H157        2.6266  -16.0934  -45.8569 H         1 UNK         0.0600 
    158 H158        1.2105  -16.0298  -44.8039 H         1 UNK         0.0600 
    159 H159        2.9213  -17.5211  -43.7002 H         1 UNK         0.3000 
    160 H160        4.1381  -20.6201  -42.4194 H         1 UNK         0.0600 
    161 H161        5.5904  -18.1006  -43.3940 H         1 UNK         0.0600 
    162 H162        5.9524  -19.7464  -43.9005 H         1 UNK         0.0600 
    163 H163        6.2066  -19.2724  -42.2286 H         1 UNK         0.0600 
    164 H164        4.1555  -17.9666  -41.3687 H         1 UNK         0.3000 
    165 H165        0.9726  -18.0704  -39.7738 H         1 UNK         0.0600 
    166 H166        2.3576  -17.7211  -37.7530 H         1 UNK         0.0600 
    167 H167        2.4672  -19.3959  -38.2692 H         1 UNK         0.0600 
    168 H168        3.7964  -18.2913  -38.5995 H         1 UNK         0.0600 
    169 H169        3.0016  -16.1355  -39.5992 H         1 UNK         0.3000 
    170 H170        2.7434  -14.1345  -40.4904 H         1 UNK         0.0600 
    171 H171        3.0585  -14.8131  -43.4634 H         1 UNK         0.0600 
    172 H172        3.6463  -13.3258  -42.7163 H         1 UNK         0.0600 
    173 H173        4.2999  -14.8807  -42.2265 H         1 UNK         0.0600 
    174 H174        1.0827  -13.3368  -42.7199 H         1 UNK         0.3000 
    175 H175       -1.6546  -13.1785  -41.8972 H         1 UNK         0.0600 
    176 H176       -1.1060  -11.0207  -39.7939 H         1 UNK         0.0600 
    177 H177       -2.5771  -11.1487  -40.7575 H         1 UNK         0.0600 
    178 H178       -2.1633  -12.4137  -39.6140 H         1 UNK         0.0600 
    179 H179       -0.9941  -11.7313  -43.4311 H         1 UNK         0.3000 
    180 H180       -0.5425   -9.3722  -44.0800 H         1 UNK         0.0600 
    181 H181        2.3478   -8.7199  -43.3047 H         1 UNK         0.0600 
    182 H182        0.9243   -7.8079  -42.8149 H         1 UNK         0.0600 
    183 H183        1.3770   -7.8736  -44.5094 H         1 UNK         0.0600 
    184 H184        1.9874  -10.3505  -45.0694 H         1 UNK         0.3000 
    185 H185        1.6199  -11.5365  -47.2846 H         1 UNK         0.0600 
    186 H186        1.9874  -13.6910  -45.1372 H         1 UNK         0.0600 
    187 H187        2.9263  -13.5986  -46.6269 H         1 UNK         0.0600 
    188 H188        3.0631  -12.3302  -45.4236 H         1 UNK         0.0600 
    189 H189        0.3429  -14.1566  -46.9139 H         1 UNK         0.3000 
    190 H190       -0.6796  -21.1617  -46.6568 H         1 UNK         0.3000 
    191 H191       -2.3241  -21.7972  -48.8836 H         1 UNK         0.0600 
    192 H192       -2.2698  -19.5402  -47.8637 H         1 UNK         0.0600 
    193 H193       -2.9605  -20.1637  -46.3698 H         1 UNK         0.0600 
    194 H194       -3.9107  -20.1653  -47.8514 H         1 UNK         0.0600 
    195 H195       -2.6565  -22.6299  -45.3961 H         1 UNK         0.3000 
    196 H196       -5.0992  -24.0638  -45.6194 H         1 UNK         0.0600 
    197 H197       -4.2243  -23.2587  -43.4563 H         1 UNK         0.0600 
    198 H198       -2.8294  -24.3272  -43.5781 H         1 UNK         0.0600 
    199 H199       -4.4445  -25.0008  -43.3960 H         1 UNK         0.0600 
    200 H200       -1.6845  -25.1975  -45.7674 H         1 UNK         0.3000 
    201 H201       -2.2307  -27.9483  -46.1364 H         1 UNK         0.0600 
    202 H202       -0.0146  -27.0600  -45.4546 H         1 UNK         0.0600 
    203 H203        0.1906  -26.2973  -47.0306 H         1 UNK         0.0600 
    204 H204        0.1413  -28.0506  -46.8976 H         1 UNK         0.0600 
    205 H205       -1.8788  -25.3154  -48.5335 H         1 UNK         0.3000 
    206 H206       -2.1691  -26.9780  -50.8645 H         1 UNK         0.0600 
    207 H207       -1.0420  -24.7521  -50.8862 H         1 UNK         0.0600 
    208 H208       -2.5627  -23.9607  -50.4727 H         1 UNK         0.0600 
    209 H209       -2.3812  -24.7795  -52.0189 H         1 UNK         0.0600 
    210 H210       -4.4547  -25.9144  -48.5532 H         1 UNK         0.3000 
    211 H211       -6.6471  -25.7870  -48.3402 H         1 UNK         0.0600 
    212 H212       -6.8994  -27.5408  -50.8441 H         1 UNK         0.0600 
    213 H213       -8.1445  -27.2494  -49.6400 H         1 UNK         0.0600 
    214 H214       -6.6938  -28.1359  -49.1974 H         1 UNK         0.0600 
    215 H215       -5.5060  -23.6445  -49.2155 H         1 UNK         0.3000 
    216 H216       -5.7568  -21.6257  -49.9520 H         1 UNK         0.0600 
    217 H217       -7.8607  -20.7297  -50.8664 H         1 UNK         0.0600 
    218 H218       -8.1925  -21.7436  -49.4712 H         1 UNK         0.0600 
    219 H219       -8.5052  -22.3466  -51.0977 H         1 UNK         0.0600 
    220 H220       -6.8334  -23.9117  -52.4612 H         1 UNK         0.3000 
    221 H221       -6.3899  -24.1885  -54.6383 H         1 UNK         0.0600 
    222 H222       -3.6124  -23.1621  -53.8388 H         1 UNK         0.0600 
    223 H223       -4.1906  -24.8198  -53.6882 H         1 UNK         0.0600 
    224 H224       -3.9792  -24.1105  -55.2754 H         1 UNK         0.0600 
    225 H225       -7.7636  -21.8394  -54.2107 H         1 UNK         0.3000 
    226 H226       -8.4575  -19.9103  -55.0567 H         1 UNK         0.0600 
    227 H227       -8.4643  -21.1543  -57.2284 H         1 UNK         0.0600 
    228 H228       -8.1674  -19.4385  -57.4530 H         1 UNK         0.0600 
    229 H229       -6.8336  -20.5765  -57.5682 H         1 UNK         0.0600 
    230 H230       -6.4032  -19.7704  -53.2891 H         1 UNK         0.3000 
    231 H231       -5.0320  -18.4149  -52.2496 H         1 UNK         0.0600 
    232 H232       -4.8140  -16.0415  -52.7954 H         1 UNK         0.0600 
    233 H233       -6.4945  -16.5137  -52.9853 H         1 UNK         0.0600 
    234 H234       -5.4717  -16.2869  -54.4048 H         1 UNK         0.0600 
    235 H235       -4.1142  -20.3649  -53.9749 H         1 UNK         0.3000 
    236 H236       -2.3830  -21.2568  -55.0452 H         1 UNK         0.0600 
    237 H237       -0.9914  -19.6688  -52.8421 H         1 UNK         0.0600 
    238 H238       -1.6708  -21.2837  -52.7158 H         1 UNK         0.0600 
    239 H239       -0.2510  -21.0055  -53.7139 H         1 UNK         0.0600 
    240 H240       -0.3619  -18.4470  -54.3556 H         1 UNK         0.3000 
    241 H241        0.6202  -18.2343  -57.0403 H         1 UNK         0.0600 
    242 H242       -2.5297  -15.6355  -56.8531 H         1 UNK         0.3800 
    243 H243       -2.2334  -16.7483  -55.5316 H         1 UNK         0.3800 
    244 H244        0.9255  -16.2601  -54.7310 H         1 UNK         0.0800 
    245 H245        1.8514  -16.2381  -56.2065 H         1 UNK         0.0800 
    246 H246        2.6884  -16.2542  -53.1439 H         1 UNK         0.0800 
    247 H247        3.8116  -17.5358  -52.7988 H         1 UNK         0.0800 
@<TRIPOS>BOND
     1    1    2 1    
     2    1  127 1    
     3    1  128 1    
     4    1  129 1    
     5    2    3 2    
     6    2    4 am   BACKBONE|DICT|INTERRES
     7    4    5 1    
     8    4  130 1    
     9    5    6 1    
    10    5   65 1    
    11    5  131 1    
    12    6    7 1    
    13    6  132 1    
    14    6  133 1    
    15    7    8 1    
    16    8    9 1    
    17    8  134 1    
    18    8  135 1    
    19    9   10 ar   
    20    9   14 ar   
    21   10   11 ar   
    22   10  136 1    
    23   11   12 ar   
    24   11  126 1    
    25   12   13 ar   
    26   12  137 1    
    27   13   14 ar   
    28   13   15 1    
    29   14  138 1    
    30   15   16 1    
    31   15  139 1    
    32   15  140 1    
    33   16   17 1    
    34   17   18 1    
    35   17  141 1    
    36   17  142 1    
    37   18   19 1    
    38   18   67 1    
    39   18  143 1    
    40   19   20 am   BACKBONE|DICT|INTERRES
    41   19  144 1    
    42   20   21 2    
    43   20   22 1    
    44   22   23 1    
    45   22   24 1    
    46   22  145 1    
    47   23  146 1    
    48   23  147 1    
    49   23  148 1    
    50   24   25 am   BACKBONE|DICT|INTERRES
    51   24  149 1    
    52   25   26 2    
    53   25   27 1    
    54   27   28 1    
    55   27   29 1    
    56   27  150 1    
    57   28  151 1    
    58   28  152 1    
    59   28  153 1    
    60   29   30 am   BACKBONE|DICT|INTERRES
    61   29  154 1    
    62   30   31 2    
    63   30   32 1    
    64   32   33 1    
    65   32   34 1    
    66   32  155 1    
    67   33  156 1    
    68   33  157 1    
    69   33  158 1    
    70   34   35 am   BACKBONE|DICT|INTERRES
    71   34  159 1    
    72   35   36 2    
    73   35   37 1    
    74   37   38 1    
    75   37   39 1    
    76   37  160 1    
    77   38  161 1    
    78   38  162 1    
    79   38  163 1    
    80   39   40 am   BACKBONE|DICT|INTERRES
    81   39  164 1    
    82   40   41 2    
    83   40   42 1    
    84   42   43 1    
    85   42   44 1    
    86   42  165 1    
    87   43  166 1    
    88   43  167 1    
    89   43  168 1    
    90   44   45 am   BACKBONE|DICT|INTERRES
    91   44  169 1    
    92   45   46 2    
    93   45   47 1    
    94   47   48 1    
    95   47   49 1    
    96   47  170 1    
    97   48  171 1    
    98   48  172 1    
    99   48  173 1    
   100   49   50 am   BACKBONE|DICT|INTERRES
   101   49  174 1    
   102   50   51 2    
   103   50   52 1    
   104   52   53 1    
   105   52   54 1    
   106   52  175 1    
   107   53  176 1    
   108   53  177 1    
   109   53  178 1    
   110   54   55 am   BACKBONE|DICT|INTERRES
   111   54  179 1    
   112   55   56 2    
   113   55   57 1    
   114   57   58 1    
   115   57   59 1    
   116   57  180 1    
   117   58  181 1    
   118   58  182 1    
   119   58  183 1    
   120   59   60 am   BACKBONE|DICT|INTERRES
   121   59  184 1    
   122   60   61 2    
   123   60   62 1    
   124   62   63 1    
   125   62   64 1    
   126   62  185 1    
   127   63  186 1    
   128   63  187 1    
   129   63  188 1    
   130   64   65 am   BACKBONE|DICT|INTERRES
   131   64  189 1    
   132   65   66 2    
   133   67   68 2    
   134   67   69 am   BACKBONE|DICT|INTERRES
   135   69   70 1    
   136   69  190 1    
   137   70   71 1    
   138   70   72 1    
   139   70  191 1    
   140   71  192 1    
   141   71  193 1    
   142   71  194 1    
   143   72   73 2    
   144   72   74 am   BACKBONE|DICT|INTERRES
   145   74   75 1    
   146   74  195 1    
   147   75   76 1    
   148   75   77 1    
   149   75  196 1    
   150   76  197 1    
   151   76  198 1    
   152   76  199 1    
   153   77   78 2    
   154   77   79 am   BACKBONE|DICT|INTERRES
   155   79   80 1    
   156   79  200 1    
   157   80   81 1    
   158   80   82 1    
   159   80  201 1    
   160   81  202 1    
   161   81  203 1    
   162   81  204 1    
   163   82   83 2    
   164   82   84 am   BACKBONE|DICT|INTERRES
   165   84   85 1    
   166   84  205 1    
   167   85   86 1    
   168   85   87 1    
   169   85  206 1    
   170   86  207 1    
   171   86  208 1    
   172   86  209 1    
   173   87   88 2    
   174   87   89 am   BACKBONE|DICT|INTERRES
   175   89   90 1    
   176   89  210 1    
   177   90   91 1    
   178   90   92 1    
   179   90  211 1    
   180   91  212 1    
   181   91  213 1    
   182   91  214 1    
   183   92   93 2    
   184   92   94 am   BACKBONE|DICT|INTERRES
   185   94   95 1    
   186   94  215 1    
   187   95   96 1    
   188   95   97 1    
   189   95  216 1    
   190   96  217 1    
   191   96  218 1    
   192   96  219 1    
   193   97   98 2    
   194   97   99 am   BACKBONE|DICT|INTERRES
   195   99  100 1    
   196   99  220 1    
   197  100  101 1    
   198  100  102 1    
   199  100  221 1    
   200  101  222 1    
   201  101  223 1    
   202  101  224 1    
   203  102  103 2    
   204  102  104 am   BACKBONE|DICT|INTERRES
   205  104  105 1    
   206  104  225 1    
   207  105  106 1    
   208  105  107 1    
   209  105  226 1    
   210  106  227 1    
   211  106  228 1    
   212  106  229 1    
   213  107  108 2    
   214  107  109 am   BACKBONE|DICT|INTERRES
   215  109  110 1    
   216  109  230 1    
   217  110  111 1    
   218  110  112 1    
   219  110  231 1    
   220  111  232 1    
   221  111  233 1    
   222  111  234 1    
   223  112  113 2    
   224  112  114 am   BACKBONE|DICT|INTERRES
   225  114  115 1    
   226  114  235 1    
   227  115  116 1    
   228  115  117 1    
   229  115  236 1    
   230  116  237 1    
   231  116  238 1    
   232  116  239 1    
   233  117  118 2    
   234  117  119 am   BACKBONE|DICT|INTERRES
   235  119  120 1    
   236  119  240 1    
   237  120  121 1    
   238  120  124 1    
   239  120  241 1    
   240  121  122 am   BACKBONE|DICT|INTERRES
   241  121  123 2    
   242  122  242 1    
   243  122  243 1    
   244  124  125 1    
   245  124  244 1    
   246  124  245 1    
   247  125  126 1    
   248  126  246 1    
   249  126  247 1    
@<TRIPOS>SUBSTRUCTURE
     1 UNK         1 GROUP             0       ****    0 ROOT    
