@<TRIPOS>MOLECULE
3R540
247   249    1
SMALL
USER_CHARGES


@<TRIPOS>ATOM
      1 CA          3.2687  -11.2482  -52.1774 C.3       0 UNK        -0.1800 
      2 C           3.6235  -12.5069  -51.3981 C.2       0 UNK         0.5000 
      3 O           4.2690  -13.4029  -51.9426 O.2       0 UNK        -0.5000 
      4 N           3.2086  -12.5739  -50.1294 N.am      1 UNK        -0.5000 
      5 CA          3.4161  -13.7178  -49.2355 C.3       1 UNK         0.1400 
      6 C6          2.3572  -14.8446  -49.4136 C.3       23 UNK        -0.0398 
      7 S7          0.6191  -14.2778  -49.3947 S.3       23 UNK        -0.2404 
      8 C8         -0.2738  -15.7946  -48.9186 C.3       23 UNK        -0.0205 
      9 C9         -0.0627  -16.9351  -49.9046 C.ar      23 UNK        -0.0193 
     10 C10        -0.6979  -16.9115  -51.1498 C.ar      23 UNK        -0.1150 
     11 C11        -0.4955  -17.9457  -52.0676 C.ar      23 UNK        -0.0193 
     12 C12         0.3420  -19.0106  -51.7277 C.ar      23 UNK        -0.1150 
     13 C13         0.9617  -19.0666  -50.4766 C.ar      23 UNK        -0.0193 
     14 C14         0.7616  -18.0164  -49.5722 C.ar      23 UNK        -0.1150 
     15 C15         1.8846  -20.2397  -50.1519 C.3       23 UNK        -0.0205 
     16 S16         1.6997  -20.9017  -48.4625 S.3       23 UNK        -0.2404 
     17 C17         0.0528  -21.6884  -48.5155 C.3       23 UNK        -0.0398 
     18 CA         -0.0810  -22.7877  -47.4322 C.3       11 UNK         0.1400 
     19 N          -0.0309  -22.2542  -46.0665 N.am      11 UNK        -0.5000 
     20 C           0.1002  -22.9996  -44.9603 C.2       10 UNK         0.5000 
     21 O           0.1967  -24.2264  -44.9738 O.2       10 UNK        -0.5000 
     22 CA          0.0736  -22.2619  -43.6088 C.3       10 UNK         0.1400 
     23 CB          1.4101  -21.5568  -43.3334 C.3       10 UNK        -0.1800 
     24 N          -1.0251  -21.3008  -43.5143 N.am      10 UNK        -0.5000 
     25 C          -2.3236  -21.6333  -43.5339 C.2       9 UNK         0.5000 
     26 O          -2.7316  -22.7931  -43.5912 O.2       9 UNK        -0.5000 
     27 CA         -3.3388  -20.4759  -43.5455 C.3       9 UNK         0.1400 
     28 CB         -3.5634  -19.9185  -42.1322 C.3       9 UNK        -0.1800 
     29 N          -2.9425  -19.3945  -44.4468 N.am      9 UNK        -0.5000 
     30 C          -2.8172  -19.5321  -45.7747 C.2       8 UNK         0.5000 
     31 O          -3.0614  -20.5724  -46.3825 O.2       8 UNK        -0.5000 
     32 CA         -2.2878  -18.3162  -46.5486 C.3       8 UNK         0.1400 
     33 CB         -3.4150  -17.2941  -46.7507 C.3       8 UNK        -0.1800 
     34 N          -1.1469  -17.6809  -45.8871 N.am      8 UNK        -0.5000 
     35 C           0.0138  -18.2957  -45.6180 C.2       7 UNK         0.5000 
     36 O           0.2530  -19.4571  -45.9347 O.2       7 UNK        -0.5000 
     37 CA          1.0591  -17.5204  -44.7991 C.3       7 UNK         0.1400 
     38 CB          1.8672  -16.5596  -45.6771 C.3       7 UNK        -0.1800 
     39 N           0.4680  -16.7870  -43.6843 N.am      7 UNK        -0.5000 
     40 C          -0.1538  -17.3595  -42.6453 C.2       6 UNK         0.5000 
     41 O          -0.2727  -18.5768  -42.5019 O.2       6 UNK        -0.5000 
     42 CA         -0.7794  -16.4046  -41.6174 C.3       6 UNK         0.1400 
     43 CB          0.2834  -15.8720  -40.6440 C.3       6 UNK        -0.1800 
     44 N          -1.4504  -15.2822  -42.2715 N.am      6 UNK        -0.5000 
     45 C          -2.6257  -15.3752  -42.9077 C.2       5 UNK         0.5000 
     46 O          -3.2837  -16.4139  -42.9823 O.2       5 UNK        -0.5000 
     47 CA         -3.1353  -14.0957  -43.5986 C.3       5 UNK         0.1400 
     48 CB         -3.8250  -13.1691  -42.5861 C.3       5 UNK        -0.1800 
     49 N          -2.0761  -13.3570  -44.2910 N.am      5 UNK        -0.5000 
     50 C          -1.4273  -13.8196  -45.3678 C.2       4 UNK         0.5000 
     51 O          -1.6484  -14.9142  -45.8766 O.2       4 UNK        -0.5000 
     52 CA         -0.3230  -12.9376  -45.9676 C.3       4 UNK         0.1400 
     53 CB         -0.9185  -11.9109  -46.9417 C.3       4 UNK        -0.1800 
     54 N           0.5308  -12.2481  -45.0022 N.am      4 UNK        -0.5000 
     55 C           1.1927  -12.8067  -43.9812 C.2       3 UNK         0.5000 
     56 O           1.0004  -13.9535  -43.5726 O.2       3 UNK        -0.5000 
     57 CA          2.3105  -11.9403  -43.3690 C.3       3 UNK         0.1400 
     58 CB          2.7877  -12.4752  -42.0070 C.3       3 UNK        -0.1800 
     59 N           3.4519  -11.8875  -44.2841 N.am      3 UNK        -0.5000 
     60 C           3.5053  -11.1920  -45.4290 C.2       2 UNK         0.5000 
     61 O           2.6392  -10.3852  -45.7751 O.2       2 UNK        -0.5000 
     62 CA          4.7042  -11.4499  -46.3660 C.3       2 UNK         0.1400 
     63 CB          5.8522  -12.2553  -45.7152 C.3       2 UNK        -0.1800 
     64 N           4.2918  -12.0806  -47.6272 N.am      2 UNK        -0.5000 
     65 C           3.6393  -13.2460  -47.7829 C.2       1 UNK         0.5000 
     66 O           3.2558  -13.9419  -46.8442 O.2       1 UNK        -0.5000 
     67 C          -1.3265  -23.6665  -47.6665 C.2       11 UNK         0.5000 
     68 O          -1.2119  -24.6872  -48.3454 O.2       11 UNK        -0.5000 
     69 N          -2.4703  -23.2985  -47.0703 N.am      12 UNK        -0.5000 
     70 CA         -3.6935  -24.1015  -47.0649 C.3       12 UNK         0.1400 
     71 CB         -4.8605  -23.2816  -46.4955 C.3       12 UNK        -0.1800 
     72 C          -3.5293  -25.4110  -46.2749 C.2       12 UNK         0.5000 
     73 O          -3.8913  -26.4707  -46.7851 O.2       12 UNK        -0.5000 
     74 N          -2.9649  -25.3219  -45.0609 N.am      13 UNK        -0.5000 
     75 CA         -2.7083  -26.4598  -44.1728 C.3       13 UNK         0.1400 
     76 CB         -2.2375  -25.9484  -42.8030 C.3       13 UNK        -0.1800 
     77 C          -1.6976  -27.4653  -44.7540 C.2       13 UNK         0.5000 
     78 O          -1.8875  -28.6735  -44.6099 O.2       13 UNK        -0.5000 
     79 N          -0.6632  -26.9491  -45.4298 N.am      14 UNK        -0.5000 
     80 CA          0.3337  -27.7323  -46.1607 C.3       14 UNK         0.1400 
     81 CB          1.5523  -26.8367  -46.4365 C.3       14 UNK        -0.1800 
     82 C          -0.1963  -28.3210  -47.4842 C.2       14 UNK         0.5000 
     83 O           0.4543  -29.2036  -48.0453 O.2       14 UNK        -0.5000 
     84 N          -1.3345  -27.8021  -47.9729 N.am      15 UNK        -0.5000 
     85 CA         -1.9417  -28.0505  -49.2860 C.3       15 UNK         0.1400 
     86 CB         -2.4450  -29.5041  -49.3984 C.3       15 UNK        -0.1800 
     87 C          -1.0108  -27.6332  -50.4458 C.2       15 UNK         0.5000 
     88 O          -0.9742  -28.2885  -51.4890 O.2       15 UNK        -0.5000 
     89 N          -0.2573  -26.5502  -50.2223 N.am      16 UNK        -0.5000 
     90 CA          0.7371  -26.0055  -51.1402 C.3       16 UNK         0.1400 
     91 CB          1.8137  -25.2749  -50.3217 C.3       16 UNK        -0.1800 
     92 C           0.1150  -25.0522  -52.1721 C.2       16 UNK         0.5000 
     93 O           0.6578  -24.9198  -53.2698 O.2       16 UNK        -0.5000 
     94 N          -0.9985  -24.4029  -51.8107 N.am      17 UNK        -0.5000 
     95 CA         -1.7126  -23.4406  -52.6417 C.3       17 UNK         0.1400 
     96 CB         -0.9688  -22.0948  -52.6383 C.3       17 UNK        -0.1800 
     97 C          -3.1475  -23.2739  -52.1241 C.2       17 UNK         0.5000 
     98 O          -3.4634  -23.7176  -51.0161 O.2       17 UNK        -0.5000 
     99 N          -3.9861  -22.6146  -52.9322 N.am      18 UNK        -0.5000 
    100 CA        -5.4039  -22.3437  -52.6812 C.3       18 UNK         0.1400 
    101 CB        -6.0889  -22.0557  -54.0305 C.3       18 UNK        -0.1800 
    102 C         -5.6317  -21.2102  -51.6571 C.2       18 UNK         0.5000 
    103 O         -6.3366  -20.2437  -51.9524 O.2       18 UNK        -0.5000 
    104 N         -5.0310  -21.3479  -50.4685 N.am      19 UNK        -0.5000 
    105 CA        -5.0735  -20.4130  -49.3426 C.3       19 UNK         0.1400 
    106 CB        -6.4707  -20.4344  -48.6803 C.3       19 UNK        -0.1800 
    107 C         -4.5948  -19.0050  -49.7518 C.2       19 UNK         0.5000 
    108 O         -3.4067  -18.8367  -50.0166 O.2       19 UNK        -0.5000 
    109 N         -5.5177  -18.0354  -49.7939 N.am      20 UNK        -0.5000 
    110 CA        -5.2844  -16.6686  -50.2603 C.3       20 UNK         0.1400 
    111 CB        -5.8518  -15.6910  -49.2170 C.3       20 UNK        -0.1800 
    112 C         -5.9326  -16.4018  -51.6336 C.2       20 UNK         0.5000 
    113 O         -5.6765  -15.3469  -52.2162 O.2       20 UNK        -0.5000 
    114 N         -6.7584  -17.3321  -52.1422 N.am      21 UNK        -0.5000 
    115 CA        -7.5097  -17.1832  -53.3967 C.3       21 UNK         0.1400 
    116 CB        -8.5730  -18.2880  -53.4960 C.3       21 UNK        -0.1800 
    117 C         -6.6095  -17.1785  -54.6466 C.2       21 UNK         0.5000 
    118 O         -6.9990  -16.6364  -55.6815 O.2       21 UNK        -0.5000 
    119 N         -5.4099  -17.7499  -54.5075 N.am      22 UNK        -0.5000 
    120 CA        -4.2891  -17.6489  -55.4492 C.3       22 UNK         0.1400 
    121 C         -3.6388  -16.2348  -55.5509 C.2       22 UNK         0.5000 
    122 N         -3.9435  -15.2820  -54.6761 N.am      22 UNK        -0.7600 
    123 O         -2.8428  -15.9946  -56.4543 O.2       22 UNK        -0.5000 
    124 C124       -3.2302  -18.7476  -55.1702 C.3       23 UNK        -0.0398 
    125 S125       -2.7232  -18.8532  -53.4164 S.3       23 UNK        -0.2404 
    126 C126       -1.1668  -17.9139  -53.4312 C.3       23 UNK        -0.0205 
    127 H127        2.7083  -10.5383  -51.5686 H         1 UNK         0.0600 
    128 H128        2.6616  -11.5041  -53.0457 H         1 UNK         0.0600 
    129 H129        4.1754  -10.7548  -52.5272 H         1 UNK         0.0600 
    130 H130        2.6600  -11.8188  -49.7411 H         1 UNK         0.3000 
    131 H131        4.3779  -14.1663  -49.4936 H         1 UNK         0.0600 
    132 H132        2.4946  -15.6269  -48.6659 H         1 UNK         0.0800 
    133 H133        2.5213  -15.3340  -50.3746 H         1 UNK         0.0800 
    134 H134        0.0310  -16.0930  -47.9177 H         1 UNK         0.0800 
    135 H135       -1.3386  -15.5684  -48.8526 H         1 UNK         0.0800 
    136 H136       -1.3433  -16.0834  -51.4063 H         1 UNK         0.1150 
    137 H137        0.5121  -19.7977  -52.4471 H         1 UNK         0.1150 
    138 H138        1.2512  -18.0407  -48.6094 H         1 UNK         0.1150 
    139 H139        1.7393  -21.0552  -50.8623 H         1 UNK         0.0800 
    140 H140        2.9146  -19.9047  -50.2781 H         1 UNK         0.0800 
    141 H141       -0.0876  -22.1151  -49.5099 H         1 UNK         0.0800 
    142 H142       -0.7137  -20.9209  -48.3920 H         1 UNK         0.0800 
    143 H143        0.7784  -23.4535  -47.5372 H         1 UNK         0.0600 
    144 H144       -0.0509  -21.2388  -45.9793 H         1 UNK         0.3000 
    145 H145       -0.0760  -23.0105  -42.8280 H         1 UNK         0.0600 
    146 H146        1.4095  -21.0805  -42.3528 H         1 UNK         0.0600 
    147 H147        2.2360  -22.2690  -43.3502 H         1 UNK         0.0600 
    148 H148        1.6253  -20.7893  -44.0764 H         1 UNK         0.0600 
    149 H149       -0.7721  -20.3209  -43.4373 H         1 UNK         0.3000 
    150 H150       -4.2895  -20.8745  -43.9054 H         1 UNK         0.0600 
    151 H151       -4.3274  -19.1408  -42.1325 H         1 UNK         0.0600 
    152 H152       -2.6524  -19.4898  -41.7148 H         1 UNK         0.0600 
    153 H153       -3.8975  -20.7036  -41.4528 H         1 UNK         0.0600 
    154 H154       -2.7231  -18.5020  -44.0237 H         1 UNK         0.3000 
    155 H155       -1.9567  -18.6633  -47.5299 H         1 UNK         0.0600 
    156 H156       -4.3208  -17.7731  -47.1213 H         1 UNK         0.0600 
    157 H157       -3.6756  -16.7904  -45.8194 H         1 UNK         0.0600 
    158 H158       -3.1284  -16.5345  -47.4771 H         1 UNK         0.0600 
    159 H159       -1.2642  -16.7010  -45.6394 H         1 UNK         0.3000 
    160 H160        1.7537  -18.2526  -44.3823 H         1 UNK         0.0600 
    161 H161        2.7057  -16.1365  -45.1237 H         1 UNK         0.0600 
    162 H162        1.2578  -15.7286  -46.0286 H         1 UNK         0.0600 
    163 H163        2.2771  -17.0687  -46.5498 H         1 UNK         0.0600 
    164 H164        0.5493  -15.7730  -43.7067 H         1 UNK         0.3000 
    165 H165       -1.5177  -16.9666  -41.0410 H         1 UNK         0.0600 
    166 H166       -0.1650  -15.2348  -39.8817 H         1 UNK         0.0600 
    167 H167        0.7846  -16.6923  -40.1287 H         1 UNK         0.0600 
    168 H168        1.0499  -15.2906  -41.1579 H         1 UNK         0.0600 
    169 H169       -0.9310  -14.4174  -42.3340 H         1 UNK         0.3000 
    170 H170       -3.8768  -14.3966  -44.3420 H         1 UNK         0.0600 
    171 H171       -3.1274  -12.8055  -41.8306 H         1 UNK         0.0600 
    172 H172       -4.2659  -12.3034  -43.0808 H         1 UNK         0.0600 
    173 H173       -4.6302  -13.6900  -42.0663 H         1 UNK         0.0600 
    174 H174       -1.8228  -12.4519  -43.9229 H         1 UNK         0.3000 
    175 H175        0.3338  -13.5961  -46.5370 H         1 UNK         0.0600 
    176 H176       -0.1335  -11.3759  -47.4767 H         1 UNK         0.0600 
    177 H177       -1.5362  -11.1759  -46.4246 H         1 UNK         0.0600 
    178 H178       -1.5431  -12.3998  -47.6908 H         1 UNK         0.0600 
    179 H179        0.8382  -11.3228  -45.2792 H         1 UNK         0.3000 
    180 H180        1.9196  -10.9317  -43.2200 H         1 UNK         0.0600 
    181 H181        3.2194  -13.4734  -42.0919 H         1 UNK         0.0600 
    182 H182        1.9592  -12.5353  -41.3001 H         1 UNK         0.0600 
    183 H183        3.5415  -11.8207  -41.5693 H         1 UNK         0.0600 
    184 H184        4.1846  -12.5603  -44.1118 H         1 UNK         0.3000 
    185 H185        5.1006  -10.4672  -46.6253 H         1 UNK         0.0600 
    186 H186        5.5530  -13.2723  -45.4594 H         1 UNK         0.0600 
    187 H187        6.7053  -12.3263  -46.3901 H         1 UNK         0.0600 
    188 H188        6.2069  -11.7711  -44.8044 H         1 UNK         0.0600 
    189 H189        4.5532  -11.5797  -48.4648 H         1 UNK         0.3000 
    190 H190       -2.5092  -22.4098  -46.5787 H         1 UNK         0.3000 
    191 H191       -3.9303  -24.3574  -48.1001 H         1 UNK         0.0600 
    192 H192       -5.0161  -22.3700  -47.0661 H         1 UNK         0.0600 
    193 H193       -5.7908  -23.8497  -46.5297 H         1 UNK         0.0600 
    194 H194       -4.6883  -22.9944  -45.4583 H         1 UNK         0.0600 
    195 H195       -2.7249  -24.4040  -44.6963 H         1 UNK         0.3000 
    196 H196       -3.6532  -26.9881  -44.0305 H         1 UNK         0.0600 
    197 H197       -2.0464  -26.7767  -42.1197 H         1 UNK         0.0600 
    198 H198       -2.9921  -25.3126  -42.3398 H         1 UNK         0.0600 
    199 H199       -1.3171  -25.3693  -42.8846 H         1 UNK         0.0600 
    200 H200       -0.5374  -25.9397  -45.4315 H         1 UNK         0.3000 
    201 H201        0.6531  -28.5653  -45.5314 H         1 UNK         0.0600 
    202 H202        1.9802  -26.4559  -45.5090 H         1 UNK         0.0600 
    203 H203        1.2869  -25.9807  -47.0585 H         1 UNK         0.0600 
    204 H204        2.3379  -27.3883  -46.9544 H         1 UNK         0.0600 
    205 H205       -1.7938  -27.0880  -47.4225 H         1 UNK         0.3000 
    206 H206       -2.8113  -27.3943  -49.3456 H         1 UNK         0.0600 
    207 H207       -3.0973  -29.7593  -48.5632 H         1 UNK         0.0600 
    208 H208       -3.0197  -29.6480  -50.3139 H         1 UNK         0.0600 
    209 H209       -1.6227  -30.2198  -49.4136 H         1 UNK         0.0600 
    210 H210       -0.4270  -26.0209  -49.3703 H         1 UNK         0.3000 
    211 H211        1.2148  -26.8254  -51.6808 H         1 UNK         0.0600 
    212 H212        1.3973  -24.4325  -49.7687 H         1 UNK         0.0600 
    213 H213        2.5993  -24.8848  -50.9700 H         1 UNK         0.0600 
    214 H214        2.2870  -25.9460  -49.6047 H         1 UNK         0.0600 
    215 H215       -1.4272  -24.5914  -50.9119 H         1 UNK         0.3000 
    216 H216       -1.7637  -23.8277  -53.6616 H         1 UNK         0.0600 
    217 H217       -1.3905  -21.4192  -53.3809 H         1 UNK         0.0600 
    218 H218        0.0865  -22.2120  -52.8833 H         1 UNK         0.0600 
    219 H219       -1.0368  -21.6026  -51.6676 H         1 UNK         0.0600 
    220 H220       -3.6225  -22.2462  -53.7987 H         1 UNK         0.3000 
    221 H221       -5.8582  -23.2446  -52.2637 H         1 UNK         0.0600 
    222 H222       -5.6895  -21.1560  -54.5006 H         1 UNK         0.0600 
    223 H223       -5.9586  -22.8852  -54.7257 H         1 UNK         0.0600 
    224 H224       -7.1622  -21.9093  -53.9020 H         1 UNK         0.0600 
    225 H225       -4.4383  -22.1639  -50.3498 H         1 UNK         0.3000 
    226 H226       -4.3483  -20.7802  -48.6180 H         1 UNK         0.0600 
    227 H227       -6.7393  -21.4430  -48.3675 H         1 UNK         0.0600 
    228 H228       -6.4908  -19.8063  -47.7887 H         1 UNK         0.0600 
    229 H229       -7.2563  -20.0896  -49.3533 H         1 UNK         0.0600 
    230 H230       -6.4695  -18.2703  -49.5523 H         1 UNK         0.3000 
    231 H231       -4.2142  -16.4763  -50.3639 H         1 UNK         0.0600 
    232 H232       -6.9282  -15.8151  -49.0926 H         1 UNK         0.0600 
    233 H233       -5.6728  -14.6562  -49.5119 H         1 UNK         0.0600 
    234 H234       -5.3859  -15.8308  -48.2429 H         1 UNK         0.0600 
    235 H235       -6.8203  -18.2390  -51.6931 H         1 UNK         0.3000 
    236 H236       -8.0252  -16.2212  -53.3628 H         1 UNK         0.0600 
    237 H237       -9.2154  -18.3012  -52.6155 H         1 UNK         0.0600 
    238 H238       -9.2143  -18.1314  -54.3641 H         1 UNK         0.0600 
    239 H239       -8.1227  -19.2753  -53.6002 H         1 UNK         0.0600 
    240 H240       -5.1891  -18.1742  -53.6173 H         1 UNK         0.3000 
    241 H241       -4.6960  -17.8454  -56.4428 H         1 UNK         0.0600 
    242 H242       -3.5143  -14.3757  -54.7711 H         1 UNK         0.3800 
    243 H243       -4.5946  -15.4444  -53.9162 H         1 UNK         0.3800 
    244 H244       -3.6514  -19.7172  -55.4380 H         1 UNK         0.0800 
    245 H245       -2.3538  -18.6303  -55.8100 H         1 UNK         0.0800 
    246 H246       -1.3639  -16.8830  -53.7280 H         1 UNK         0.0800 
    247 H247       -0.4951  -18.3310  -54.1829 H         1 UNK         0.0800 
@<TRIPOS>BOND
     1    1    2 1    
     2    1  127 1    
     3    1  128 1    
     4    1  129 1    
     5    2    3 2    
     6    2    4 am   BACKBONE|DICT|INTERRES
     7    4    5 1    
     8    4  130 1    
     9    5    6 1    
    10    5   65 1    
    11    5  131 1    
    12    6    7 1    
    13    6  132 1    
    14    6  133 1    
    15    7    8 1    
    16    8    9 1    
    17    8  134 1    
    18    8  135 1    
    19    9   10 ar   
    20    9   14 ar   
    21   10   11 ar   
    22   10  136 1    
    23   11   12 ar   
    24   11  126 1    
    25   12   13 ar   
    26   12  137 1    
    27   13   14 ar   
    28   13   15 1    
    29   14  138 1    
    30   15   16 1    
    31   15  139 1    
    32   15  140 1    
    33   16   17 1    
    34   17   18 1    
    35   17  141 1    
    36   17  142 1    
    37   18   19 1    
    38   18   67 1    
    39   18  143 1    
    40   19   20 am   BACKBONE|DICT|INTERRES
    41   19  144 1    
    42   20   21 2    
    43   20   22 1    
    44   22   23 1    
    45   22   24 1    
    46   22  145 1    
    47   23  146 1    
    48   23  147 1    
    49   23  148 1    
    50   24   25 am   BACKBONE|DICT|INTERRES
    51   24  149 1    
    52   25   26 2    
    53   25   27 1    
    54   27   28 1    
    55   27   29 1    
    56   27  150 1    
    57   28  151 1    
    58   28  152 1    
    59   28  153 1    
    60   29   30 am   BACKBONE|DICT|INTERRES
    61   29  154 1    
    62   30   31 2    
    63   30   32 1    
    64   32   33 1    
    65   32   34 1    
    66   32  155 1    
    67   33  156 1    
    68   33  157 1    
    69   33  158 1    
    70   34   35 am   BACKBONE|DICT|INTERRES
    71   34  159 1    
    72   35   36 2    
    73   35   37 1    
    74   37   38 1    
    75   37   39 1    
    76   37  160 1    
    77   38  161 1    
    78   38  162 1    
    79   38  163 1    
    80   39   40 am   BACKBONE|DICT|INTERRES
    81   39  164 1    
    82   40   41 2    
    83   40   42 1    
    84   42   43 1    
    85   42   44 1    
    86   42  165 1    
    87   43  166 1    
    88   43  167 1    
    89   43  168 1    
    90   44   45 am   BACKBONE|DICT|INTERRES
    91   44  169 1    
    92   45   46 2    
    93   45   47 1    
    94   47   48 1    
    95   47   49 1    
    96   47  170 1    
    97   48  171 1    
    98   48  172 1    
    99   48  173 1    
   100   49   50 am   BACKBONE|DICT|INTERRES
   101   49  174 1    
   102   50   51 2    
   103   50   52 1    
   104   52   53 1    
   105   52   54 1    
   106   52  175 1    
   107   53  176 1    
   108   53  177 1    
   109   53  178 1    
   110   54   55 am   BACKBONE|DICT|INTERRES
   111   54  179 1    
   112   55   56 2    
   113   55   57 1    
   114   57   58 1    
   115   57   59 1    
   116   57  180 1    
   117   58  181 1    
   118   58  182 1    
   119   58  183 1    
   120   59   60 am   BACKBONE|DICT|INTERRES
   121   59  184 1    
   122   60   61 2    
   123   60   62 1    
   124   62   63 1    
   125   62   64 1    
   126   62  185 1    
   127   63  186 1    
   128   63  187 1    
   129   63  188 1    
   130   64   65 am   BACKBONE|DICT|INTERRES
   131   64  189 1    
   132   65   66 2    
   133   67   68 2    
   134   67   69 am   BACKBONE|DICT|INTERRES
   135   69   70 1    
   136   69  190 1    
   137   70   71 1    
   138   70   72 1    
   139   70  191 1    
   140   71  192 1    
   141   71  193 1    
   142   71  194 1    
   143   72   73 2    
   144   72   74 am   BACKBONE|DICT|INTERRES
   145   74   75 1    
   146   74  195 1    
   147   75   76 1    
   148   75   77 1    
   149   75  196 1    
   150   76  197 1    
   151   76  198 1    
   152   76  199 1    
   153   77   78 2    
   154   77   79 am   BACKBONE|DICT|INTERRES
   155   79   80 1    
   156   79  200 1    
   157   80   81 1    
   158   80   82 1    
   159   80  201 1    
   160   81  202 1    
   161   81  203 1    
   162   81  204 1    
   163   82   83 2    
   164   82   84 am   BACKBONE|DICT|INTERRES
   165   84   85 1    
   166   84  205 1    
   167   85   86 1    
   168   85   87 1    
   169   85  206 1    
   170   86  207 1    
   171   86  208 1    
   172   86  209 1    
   173   87   88 2    
   174   87   89 am   BACKBONE|DICT|INTERRES
   175   89   90 1    
   176   89  210 1    
   177   90   91 1    
   178   90   92 1    
   179   90  211 1    
   180   91  212 1    
   181   91  213 1    
   182   91  214 1    
   183   92   93 2    
   184   92   94 am   BACKBONE|DICT|INTERRES
   185   94   95 1    
   186   94  215 1    
   187   95   96 1    
   188   95   97 1    
   189   95  216 1    
   190   96  217 1    
   191   96  218 1    
   192   96  219 1    
   193   97   98 2    
   194   97   99 am   BACKBONE|DICT|INTERRES
   195   99  100 1    
   196   99  220 1    
   197  100  101 1    
   198  100  102 1    
   199  100  221 1    
   200  101  222 1    
   201  101  223 1    
   202  101  224 1    
   203  102  103 2    
   204  102  104 am   BACKBONE|DICT|INTERRES
   205  104  105 1    
   206  104  225 1    
   207  105  106 1    
   208  105  107 1    
   209  105  226 1    
   210  106  227 1    
   211  106  228 1    
   212  106  229 1    
   213  107  108 2    
   214  107  109 am   BACKBONE|DICT|INTERRES
   215  109  110 1    
   216  109  230 1    
   217  110  111 1    
   218  110  112 1    
   219  110  231 1    
   220  111  232 1    
   221  111  233 1    
   222  111  234 1    
   223  112  113 2    
   224  112  114 am   BACKBONE|DICT|INTERRES
   225  114  115 1    
   226  114  235 1    
   227  115  116 1    
   228  115  117 1    
   229  115  236 1    
   230  116  237 1    
   231  116  238 1    
   232  116  239 1    
   233  117  118 2    
   234  117  119 am   BACKBONE|DICT|INTERRES
   235  119  120 1    
   236  119  240 1    
   237  120  121 1    
   238  120  124 1    
   239  120  241 1    
   240  121  122 am   BACKBONE|DICT|INTERRES
   241  121  123 2    
   242  122  242 1    
   243  122  243 1    
   244  124  125 1    
   245  124  244 1    
   246  124  245 1    
   247  125  126 1    
   248  126  246 1    
   249  126  247 1    
@<TRIPOS>SUBSTRUCTURE
     1 UNK         1 GROUP             0       ****    0 ROOT    
