@<TRIPOS>MOLECULE
3R540
247   249    1
SMALL
USER_CHARGES


@<TRIPOS>ATOM
      1 CA         -3.1110  -14.5859  -52.6344 C.3       0 UNK        -0.1800 
      2 C          -2.1833  -13.8501  -51.6813 C.2       0 UNK         0.5000 
      3 O          -1.6964  -12.7684  -52.0141 O.2       0 UNK        -0.5000 
      4 N          -1.9395  -14.4357  -50.5013 N.am      1 UNK        -0.5000 
      5 CA         -1.0821  -13.8775  -49.4483 C.3       1 UNK         0.1400 
      6 C6         -0.8497  -14.8623  -48.2758 C.3       23 UNK        -0.0398 
      7 S7         -0.1522  -16.4622  -48.7971 S.3       23 UNK        -0.2404 
      8 C8          1.6293  -16.0943  -48.8365 C.3       23 UNK        -0.0205 
      9 C9          2.4246  -17.2575  -49.4142 C.ar      23 UNK        -0.0193 
     10 C10         3.0075  -17.1620  -50.6839 C.ar      23 UNK        -0.1150 
     11 C11         3.7380  -18.2312  -51.2183 C.ar      23 UNK        -0.0193 
     12 C12         3.8947  -19.3920  -50.4556 C.ar      23 UNK        -0.1150 
     13 C13         3.3284  -19.4978  -49.1828 C.ar      23 UNK        -0.0193 
     14 C14         2.5922  -18.4276  -48.6682 C.ar      23 UNK        -0.1150 
     15 C15         3.5412  -20.7615  -48.3629 C.3       23 UNK        -0.0205 
     16 S16         2.5761  -22.1594  -49.0133 S.3       23 UNK        -0.2404 
     17 C17         0.8942  -21.7430  -48.4467 C.3       23 UNK        -0.0398 
     18 CA          0.2355  -22.9242  -47.6964 C.3       11 UNK         0.1400 
     19 N           0.9779  -23.2940  -46.4866 N.am      11 UNK        -0.5000 
     20 C           0.8644  -24.4763  -45.8691 C.2       10 UNK         0.5000 
     21 O           0.0950  -25.3640  -46.2342 O.2       10 UNK        -0.5000 
     22 CA          1.7198  -24.6804  -44.6055 C.3       10 UNK         0.1400 
     23 CB          3.1349  -25.1396  -44.9861 C.3       10 UNK        -0.1800 
     24 N           1.8162  -23.4973  -43.7456 N.am      10 UNK        -0.5000 
     25 C           0.7929  -22.8115  -43.2221 C.2       9 UNK         0.5000 
     26 O          -0.3847  -23.0503  -43.4893 O.2       9 UNK        -0.5000 
     27 CA          1.1220  -21.6478  -42.2654 C.3       9 UNK         0.1400 
     28 CB          1.2344  -22.1467  -40.8134 C.3       9 UNK        -0.1800 
     29 N           2.2851  -20.8313  -42.6447 N.am      9 UNK        -0.5000 
     30 C           3.5850  -21.1663  -42.6956 C.2       8 UNK         0.5000 
     31 O           4.0072  -22.2910  -42.4261 O.2       8 UNK        -0.5000 
     32 CA          4.5841  -20.0907  -43.1729 C.3       8 UNK         0.1400 
     33 CB          5.2632  -20.5347  -44.4791 C.3       8 UNK        -0.1800 
     34 N           3.9608  -18.7851  -43.3973 N.am      8 UNK        -0.5000 
     35 C           3.7352  -17.8623  -42.4520 C.2       7 UNK         0.5000 
     36 O           4.0852  -17.9824  -41.2780 O.2       7 UNK        -0.5000 
     37 CA          2.9526  -16.6088  -42.8945 C.3       7 UNK         0.1400 
     38 CB          3.9166  -15.4933  -43.3258 C.3       7 UNK        -0.1800 
     39 N           2.0082  -16.8765  -43.9854 N.am      7 UNK        -0.5000 
     40 C           0.9238  -17.6536  -43.8701 C.2       6 UNK         0.5000 
     41 O           0.5979  -18.2249  -42.8283 O.2       6 UNK        -0.5000 
     42 CA          0.0990  -17.8910  -45.1433 C.3       6 UNK         0.1400 
     43 CB          0.1981  -19.3607  -45.5744 C.3       6 UNK        -0.1800 
     44 N          -1.3041  -17.5570  -44.9234 N.am      6 UNK        -0.5000 
     45 C          -1.7706  -16.3072  -44.8630 C.2       5 UNK         0.5000 
     46 O          -1.0695  -15.3037  -45.0253 O.2       5 UNK        -0.5000 
     47 CA         -3.2699  -16.1494  -44.5798 C.3       5 UNK         0.1400 
     48 CB         -3.5649  -16.2732  -43.0743 C.3       5 UNK        -0.1800 
     49 N          -3.6611  -14.8358  -45.0665 N.am      5 UNK        -0.5000 
     50 C          -4.8943  -14.3958  -45.3311 C.2       4 UNK         0.5000 
     51 O          -5.9087  -15.0744  -45.1639 O.2       4 UNK        -0.5000 
     52 CA         -5.0056  -12.9692  -45.9137 C.3       4 UNK         0.1400 
     53 CB         -6.2385  -12.2031  -45.3903 C.3       4 UNK        -0.1800 
     54 N          -3.7733  -12.1788  -45.7735 N.am      4 UNK        -0.5000 
     55 C          -3.2256  -11.6931  -44.6462 C.2       3 UNK         0.5000 
     56 O          -3.7449  -11.8010  -43.5351 O.2       3 UNK        -0.5000 
     57 CA         -1.8476  -11.0024  -44.7587 C.3       3 UNK         0.1400 
     58 CB         -0.7957  -11.7412  -43.9142 C.3       3 UNK        -0.1800 
     59 N          -1.3509  -10.9089  -46.1330 N.am      3 UNK        -0.5000 
     60 C          -1.7346   -9.9915  -47.0299 C.2       2 UNK         0.5000 
     61 O          -2.5151   -9.0735  -46.7767 O.2       2 UNK        -0.5000 
     62 CA         -1.1733  -10.1405  -48.4584 C.3       2 UNK         0.1400 
     63 CB          0.0463   -9.2264  -48.6515 C.3       2 UNK        -0.1800 
     64 N          -0.8045  -11.5123  -48.8330 N.am      2 UNK        -0.5000 
     65 C          -1.6540  -12.5466  -48.9148 C.2       1 UNK         0.5000 
     66 O          -2.8363  -12.4880  -48.5689 O.2       1 UNK        -0.5000 
     67 C          -1.2579  -22.6465  -47.4166 C.2       11 UNK         0.5000 
     68 O          -2.0757  -22.7807  -48.3293 O.2       11 UNK        -0.5000 
     69 N          -1.5916  -22.2802  -46.1695 N.am      12 UNK        -0.5000 
     70 CA         -2.9684  -22.1354  -45.6990 C.3       12 UNK         0.1400 
     71 CB         -3.0344  -21.1229  -44.5459 C.3       12 UNK        -0.1800 
     72 C          -3.5482  -23.4970  -45.2848 C.2       12 UNK         0.5000 
     73 O          -4.6980  -23.7896  -45.6108 O.2       12 UNK        -0.5000 
     74 N          -2.7273  -24.3238  -44.6196 N.am      13 UNK        -0.5000 
     75 CA         -3.0551  -25.6947  -44.2189 C.3       13 UNK         0.1400 
     76 CB         -1.9175  -26.2600  -43.3563 C.3       13 UNK        -0.1800 
     77 C          -3.3506  -26.6239  -45.4132 C.2       13 UNK         0.5000 
     78 O          -4.1987  -27.5097  -45.2972 O.2       13 UNK        -0.5000 
     79 N          -2.6961  -26.3717  -46.5555 N.am      14 UNK        -0.5000 
     80 CA         -2.9229  -27.0093  -47.8553 C.3       14 UNK         0.1400 
     81 CB         -1.6979  -26.7403  -48.7488 C.3       14 UNK        -0.1800 
     82 C          -4.2445  -26.5577  -48.5219 C.2       14 UNK         0.5000 
     83 O          -4.2343  -26.0795  -49.6583 O.2       14 UNK        -0.5000 
     84 N          -5.3596  -26.6862  -47.7865 N.am      15 UNK        -0.5000 
     85 CA         -6.7447  -26.3685  -48.1662 C.3       15 UNK         0.1400 
     86 CB         -7.2490  -27.3942  -49.2021 C.3       15 UNK        -0.1800 
     87 C          -6.9596  -24.9117  -48.6380 C.2       15 UNK         0.5000 
     88 O          -7.8888  -24.6450  -49.4018 O.2       15 UNK        -0.5000 
     89 N          -6.0705  -24.0061  -48.2042 N.am      16 UNK        -0.5000 
     90 CA         -5.9151  -22.6125  -48.6299 C.3       16 UNK         0.1400 
     91 CB         -7.1012  -21.7579  -48.1412 C.3       16 UNK        -0.1800 
     92 C          -5.6303  -22.4267  -50.1372 C.2       16 UNK         0.5000 
     93 O          -5.7724  -21.3125  -50.6406 O.2       16 UNK        -0.5000 
     94 N          -5.2237  -23.4966  -50.8374 N.am      17 UNK        -0.5000 
     95 CA         -4.9967  -23.4948  -52.2810 C.3       17 UNK         0.1400 
     96 CB         -4.9175  -24.9400  -52.7963 C.3       17 UNK        -0.1800 
     97 C          -3.7379  -22.7004  -52.6518 C.2       17 UNK         0.5000 
     98 O          -3.8065  -21.7916  -53.4789 O.2       17 UNK        -0.5000 
     99 N          -2.6182  -23.0178  -51.9901 N.am      18 UNK        -0.5000 
    100 CA        -1.3437  -22.3249  -52.1743 C.3       18 UNK         0.1400 
    101 CB        -0.2142  -23.1587  -51.5588 C.3       18 UNK        -0.1800 
    102 C         -1.3705  -20.8862  -51.6248 C.2       18 UNK         0.5000 
    103 O         -0.7480  -20.0022  -52.2138 O.2       18 UNK        -0.5000 
    104 N         -2.1385  -20.6584  -50.5485 N.am      19 UNK        -0.5000 
    105 CA        -2.3933  -19.3337  -49.9743 C.3       19 UNK         0.1400 
    106 CB        -3.0678  -19.4791  -48.6022 C.3       19 UNK        -0.1800 
    107 C         -3.2188  -18.4029  -50.8872 C.2       19 UNK         0.5000 
    108 O         -3.1451  -17.1860  -50.7142 O.2       19 UNK        -0.5000 
    109 N         -3.9715  -18.9795  -51.8344 N.am      20 UNK        -0.5000 
    110 CA        -4.7143  -18.2572  -52.8643 C.3       20 UNK         0.1400 
    111 CB        -6.0455  -18.9774  -53.1292 C.3       20 UNK        -0.1800 
    112 C         -3.9028  -18.1264  -54.1658 C.2       20 UNK         0.5000 
    113 O         -3.9501  -17.0714  -54.7985 O.2       20 UNK        -0.5000 
    114 N         -3.1885  -19.1927  -54.5574 N.am      21 UNK        -0.5000 
    115 CA        -2.3871  -19.2474  -55.7838 C.3       21 UNK         0.1400 
    116 CB        -2.0037  -20.7048  -56.0815 C.3       21 UNK        -0.1800 
    117 C         -1.1312  -18.3583  -55.7274 C.2       21 UNK         0.5000 
    118 O         -0.8153  -17.6901  -56.7129 O.2       21 UNK        -0.5000 
    119 N         -0.4536  -18.3628  -54.5762 N.am      22 UNK        -0.5000 
    120 CA         0.6834  -17.4951  -54.2455 C.3       22 UNK         0.1400 
    121 C          0.3582  -16.6407  -52.9952 C.2       22 UNK         0.5000 
    122 N         -0.1955  -17.2368  -51.9504 N.am      22 UNK        -0.7600 
    123 O          0.5998  -15.4376  -52.9769 O.2       22 UNK        -0.5000 
    124 C124        1.9798  -18.3251  -54.0540 C.3       23 UNK        -0.0398 
    125 S125        3.4736  -17.2845  -53.8876 S.3       23 UNK        -0.2404 
    126 C126        4.4173  -18.1512  -52.5863 C.3       23 UNK        -0.0205 
    127 H127       -3.4480  -13.9297  -53.4369 H         1 UNK         0.0600 
    128 H128       -3.9904  -14.9587  -52.1097 H         1 UNK         0.0600 
    129 H129       -2.5879  -15.4317  -53.0803 H         1 UNK         0.0600 
    130 H130       -2.3713  -15.3338  -50.3059 H         1 UNK         0.3000 
    131 H131       -0.1141  -13.6714  -49.9096 H         1 UNK         0.0600 
    132 H132       -1.7930  -15.0691  -47.7672 H         1 UNK         0.0800 
    133 H133       -0.1894  -14.4248  -47.5248 H         1 UNK         0.0800 
    134 H134        1.9795  -15.8766  -47.8268 H         1 UNK         0.0800 
    135 H135        1.7987  -15.1927  -49.4268 H         1 UNK         0.0800 
    136 H136        2.8888  -16.2541  -51.2580 H         1 UNK         0.1150 
    137 H137        4.4686  -20.2200  -50.8478 H         1 UNK         0.1150 
    138 H138        2.1502  -18.4984  -47.6859 H         1 UNK         0.1150 
    139 H139        4.5995  -21.0256  -48.3837 H         1 UNK         0.0800 
    140 H140        3.2899  -20.5956  -47.3151 H         1 UNK         0.0800 
    141 H141        0.3135  -21.4563  -49.3216 H         1 UNK         0.0800 
    142 H142        0.9294  -20.8572  -47.8175 H         1 UNK         0.0800 
    143 H143        0.2600  -23.7894  -48.3619 H         1 UNK         0.0600 
    144 H144        1.6445  -22.6254  -46.1320 H         1 UNK         0.3000 
    145 H145        1.2525  -25.4713  -44.0166 H         1 UNK         0.0600 
    146 H146        3.7213  -25.3843  -44.1002 H         1 UNK         0.0600 
    147 H147        3.1021  -26.0335  -45.6106 H         1 UNK         0.0600 
    148 H148        3.6725  -24.3695  -45.5410 H         1 UNK         0.0600 
    149 H149        2.7464  -23.2345  -43.4306 H         1 UNK         0.3000 
    150 H150        0.2675  -20.9705  -42.3072 H         1 UNK         0.0600 
    151 H151        0.3197  -22.6554  -40.5062 H         1 UNK         0.0600 
    152 H152        1.3919  -21.3173  -40.1239 H         1 UNK         0.0600 
    153 H153        2.0561  -22.8516  -40.6846 H         1 UNK         0.0600 
    154 H154        2.0521  -19.8715  -42.8646 H         1 UNK         0.3000 
    155 H155        5.3534  -19.9950  -42.4038 H         1 UNK         0.0600 
    156 H156        4.5381  -20.6849  -45.2785 H         1 UNK         0.0600 
    157 H157        5.7997  -21.4747  -44.3434 H         1 UNK         0.0600 
    158 H158        5.9898  -19.7959  -44.8178 H         1 UNK         0.0600 
    159 H159        3.6548  -18.5869  -44.3380 H         1 UNK         0.3000 
    160 H160        2.3829  -16.2544  -42.0327 H         1 UNK         0.0600 
    161 H161        4.5020  -15.7811  -44.1999 H         1 UNK         0.0600 
    162 H162        4.6180  -15.2527  -42.5257 H         1 UNK         0.0600 
    163 H163        3.3769  -14.5777  -43.5687 H         1 UNK         0.0600 
    164 H164        2.2021  -16.4252  -44.8675 H         1 UNK         0.3000 
    165 H165        0.4897  -17.2681  -45.9504 H         1 UNK         0.0600 
    166 H166       -0.3738  -19.5306  -46.4860 H         1 UNK         0.0600 
    167 H167        1.2329  -19.6441  -45.7673 H         1 UNK         0.0600 
    168 H168       -0.1852  -20.0337  -44.8070 H         1 UNK         0.0600 
    169 H169       -1.9257  -18.3262  -44.7280 H         1 UNK         0.3000 
    170 H170       -3.8173  -16.9150  -45.1335 H         1 UNK         0.0600 
    171 H171       -3.2489  -17.2439  -42.6904 H         1 UNK         0.0600 
    172 H172       -3.0429  -15.5061  -42.5007 H         1 UNK         0.0600 
    173 H173       -4.6309  -16.1761  -42.8686 H         1 UNK         0.0600 
    174 H174       -2.8734  -14.2276  -45.2511 H         1 UNK         0.3000 
    175 H175       -5.1431  -13.1028  -46.9876 H         1 UNK         0.0600 
    176 H176       -6.2358  -12.1182  -44.3036 H         1 UNK         0.0600 
    177 H177       -6.2846  -11.1971  -45.8074 H         1 UNK         0.0600 
    178 H178       -7.1610  -12.7121  -45.6716 H         1 UNK         0.0600 
    179 H179       -3.2676  -12.0470  -46.6436 H         1 UNK         0.3000 
    180 H180       -1.9591   -9.9945  -44.3535 H         1 UNK         0.0600 
    181 H181        0.1628  -11.2224  -43.9368 H         1 UNK         0.0600 
    182 H182       -0.6342  -12.7585  -44.2709 H         1 UNK         0.0600 
    183 H183       -1.1019  -11.8052  -42.8692 H         1 UNK         0.0600 
    184 H184       -0.6988  -11.6204  -46.4278 H         1 UNK         0.3000 
    185 H185       -1.9558   -9.8132  -49.1462 H         1 UNK         0.0600 
    186 H186        0.3928   -9.2426  -49.6850 H         1 UNK         0.0600 
    187 H187       -0.1981   -8.1910  -48.4096 H         1 UNK         0.0600 
    188 H188        0.8781   -9.5250  -48.0123 H         1 UNK         0.0600 
    189 H189        0.1508  -11.6431  -49.1335 H         1 UNK         0.3000 
    190 H190       -0.8732  -22.2681  -45.4579 H         1 UNK         0.3000 
    191 H191       -3.5828  -21.7392  -46.5070 H         1 UNK         0.0600 
    192 H192       -4.0570  -21.0167  -44.1817 H         1 UNK         0.0600 
    193 H193       -2.7067  -20.1382  -44.8746 H         1 UNK         0.0600 
    194 H194       -2.4164  -21.4202  -43.6991 H         1 UNK         0.0600 
    195 H195       -1.8142  -23.9768  -44.3403 H         1 UNK         0.3000 
    196 H196       -3.9574  -25.6498  -43.6059 H         1 UNK         0.0600 
    197 H197       -0.9938  -26.3602  -43.9254 H         1 UNK         0.0600 
    198 H198       -1.7152  -25.6197  -42.4974 H         1 UNK         0.0600 
    199 H199       -2.1740  -27.2485  -42.9734 H         1 UNK         0.0600 
    200 H200       -1.9637  -25.6718  -46.5283 H         1 UNK         0.3000 
    201 H201       -2.9945  -28.0877  -47.7015 H         1 UNK         0.0600 
    202 H202       -1.5638  -25.6738  -48.9346 H         1 UNK         0.0600 
    203 H203       -1.7991  -27.2341  -49.7161 H         1 UNK         0.0600 
    204 H204       -0.7840  -27.1165  -48.2887 H         1 UNK         0.0600 
    205 H205       -5.2365  -27.0553  -46.8473 H         1 UNK         0.3000 
    206 H206       -7.3437  -26.4845  -47.2620 H         1 UNK         0.0600 
    207 H207       -7.1055  -28.4152  -48.8484 H         1 UNK         0.0600 
    208 H208       -8.3147  -27.2681  -49.3964 H         1 UNK         0.0600 
    209 H209       -6.7276  -27.2928  -50.1547 H         1 UNK         0.0600 
    210 H210       -5.3899  -24.3156  -47.5194 H         1 UNK         0.3000 
    211 H211       -5.0211  -22.2508  -48.1269 H         1 UNK         0.0600 
    212 H212       -6.9231  -20.6974  -48.3226 H         1 UNK         0.0600 
    213 H213       -7.2571  -21.8794  -47.0692 H         1 UNK         0.0600 
    214 H214       -8.0281  -22.0254  -48.6490 H         1 UNK         0.0600 
    215 H215       -5.0739  -24.3764  -50.3529 H         1 UNK         0.3000 
    216 H216       -5.8509  -23.0124  -52.7612 H         1 UNK         0.0600 
    217 H217       -4.0855  -25.4866  -52.3508 H         1 UNK         0.0600 
    218 H218       -4.7826  -24.9609  -53.8784 H         1 UNK         0.0600 
    219 H219       -5.8330  -25.4875  -52.5710 H         1 UNK         0.0600 
    220 H220       -2.6511  -23.7543  -51.2993 H         1 UNK         0.3000 
    221 H221       -1.1477  -22.2526  -53.2453 H         1 UNK         0.0600 
    222 H222       -0.0711  -24.0876  -52.1110 H         1 UNK         0.0600 
    223 H223       -0.4306  -23.4225  -50.5260 H         1 UNK         0.0600 
    224 H224        0.7342  -22.6199  -51.5804 H         1 UNK         0.0600 
    225 H225       -2.5813  -21.4465  -50.0940 H         1 UNK         0.3000 
    226 H226       -1.4253  -18.8564  -49.8191 H         1 UNK         0.0600 
    227 H227       -4.0080  -20.0259  -48.6708 H         1 UNK         0.0600 
    228 H228       -2.4193  -19.9980  -47.8994 H         1 UNK         0.0600 
    229 H229       -3.2859  -18.5020  -48.1685 H         1 UNK         0.0600 
    230 H230       -4.0132  -19.9887  -51.8740 H         1 UNK         0.3000 
    231 H231       -4.9474  -17.2501  -52.5130 H         1 UNK         0.0600 
    232 H232       -5.8920  -20.0001  -53.4752 H         1 UNK         0.0600 
    233 H233       -6.6281  -18.4559  -53.8894 H         1 UNK         0.0600 
    234 H234       -6.6534  -19.0211  -52.2253 H         1 UNK         0.0600 
    235 H235       -3.2692  -20.0577  -54.0308 H         1 UNK         0.3000 
    236 H236       -3.0095  -18.8902  -56.6069 H         1 UNK         0.0600 
    237 H237       -2.8884  -21.3345  -56.1777 H         1 UNK         0.0600 
    238 H238       -1.4482  -20.7785  -57.0173 H         1 UNK         0.0600 
    239 H239       -1.3772  -21.1242  -55.2948 H         1 UNK         0.0600 
    240 H240       -0.7900  -18.9426  -53.8142 H         1 UNK         0.3000 
    241 H241        0.8554  -16.7949  -55.0652 H         1 UNK         0.0600 
    242 H242       -0.3890  -16.6987  -51.1200 H         1 UNK         0.3800 
    243 H243       -0.3521  -18.2399  -51.9530 H         1 UNK         0.3800 
    244 H244        2.1293  -18.9760  -54.9161 H         1 UNK         0.0800 
    245 H245        1.8839  -18.9872  -53.1916 H         1 UNK         0.0800 
    246 H246        4.6504  -19.1526  -52.9519 H         1 UNK         0.0800 
    247 H247        5.3737  -17.6426  -52.4601 H         1 UNK         0.0800 
@<TRIPOS>BOND
     1    1    2 1    
     2    1  127 1    
     3    1  128 1    
     4    1  129 1    
     5    2    3 2    
     6    2    4 am   BACKBONE|DICT|INTERRES
     7    4    5 1    
     8    4  130 1    
     9    5    6 1    
    10    5   65 1    
    11    5  131 1    
    12    6    7 1    
    13    6  132 1    
    14    6  133 1    
    15    7    8 1    
    16    8    9 1    
    17    8  134 1    
    18    8  135 1    
    19    9   10 ar   
    20    9   14 ar   
    21   10   11 ar   
    22   10  136 1    
    23   11   12 ar   
    24   11  126 1    
    25   12   13 ar   
    26   12  137 1    
    27   13   14 ar   
    28   13   15 1    
    29   14  138 1    
    30   15   16 1    
    31   15  139 1    
    32   15  140 1    
    33   16   17 1    
    34   17   18 1    
    35   17  141 1    
    36   17  142 1    
    37   18   19 1    
    38   18   67 1    
    39   18  143 1    
    40   19   20 am   BACKBONE|DICT|INTERRES
    41   19  144 1    
    42   20   21 2    
    43   20   22 1    
    44   22   23 1    
    45   22   24 1    
    46   22  145 1    
    47   23  146 1    
    48   23  147 1    
    49   23  148 1    
    50   24   25 am   BACKBONE|DICT|INTERRES
    51   24  149 1    
    52   25   26 2    
    53   25   27 1    
    54   27   28 1    
    55   27   29 1    
    56   27  150 1    
    57   28  151 1    
    58   28  152 1    
    59   28  153 1    
    60   29   30 am   BACKBONE|DICT|INTERRES
    61   29  154 1    
    62   30   31 2    
    63   30   32 1    
    64   32   33 1    
    65   32   34 1    
    66   32  155 1    
    67   33  156 1    
    68   33  157 1    
    69   33  158 1    
    70   34   35 am   BACKBONE|DICT|INTERRES
    71   34  159 1    
    72   35   36 2    
    73   35   37 1    
    74   37   38 1    
    75   37   39 1    
    76   37  160 1    
    77   38  161 1    
    78   38  162 1    
    79   38  163 1    
    80   39   40 am   BACKBONE|DICT|INTERRES
    81   39  164 1    
    82   40   41 2    
    83   40   42 1    
    84   42   43 1    
    85   42   44 1    
    86   42  165 1    
    87   43  166 1    
    88   43  167 1    
    89   43  168 1    
    90   44   45 am   BACKBONE|DICT|INTERRES
    91   44  169 1    
    92   45   46 2    
    93   45   47 1    
    94   47   48 1    
    95   47   49 1    
    96   47  170 1    
    97   48  171 1    
    98   48  172 1    
    99   48  173 1    
   100   49   50 am   BACKBONE|DICT|INTERRES
   101   49  174 1    
   102   50   51 2    
   103   50   52 1    
   104   52   53 1    
   105   52   54 1    
   106   52  175 1    
   107   53  176 1    
   108   53  177 1    
   109   53  178 1    
   110   54   55 am   BACKBONE|DICT|INTERRES
   111   54  179 1    
   112   55   56 2    
   113   55   57 1    
   114   57   58 1    
   115   57   59 1    
   116   57  180 1    
   117   58  181 1    
   118   58  182 1    
   119   58  183 1    
   120   59   60 am   BACKBONE|DICT|INTERRES
   121   59  184 1    
   122   60   61 2    
   123   60   62 1    
   124   62   63 1    
   125   62   64 1    
   126   62  185 1    
   127   63  186 1    
   128   63  187 1    
   129   63  188 1    
   130   64   65 am   BACKBONE|DICT|INTERRES
   131   64  189 1    
   132   65   66 2    
   133   67   68 2    
   134   67   69 am   BACKBONE|DICT|INTERRES
   135   69   70 1    
   136   69  190 1    
   137   70   71 1    
   138   70   72 1    
   139   70  191 1    
   140   71  192 1    
   141   71  193 1    
   142   71  194 1    
   143   72   73 2    
   144   72   74 am   BACKBONE|DICT|INTERRES
   145   74   75 1    
   146   74  195 1    
   147   75   76 1    
   148   75   77 1    
   149   75  196 1    
   150   76  197 1    
   151   76  198 1    
   152   76  199 1    
   153   77   78 2    
   154   77   79 am   BACKBONE|DICT|INTERRES
   155   79   80 1    
   156   79  200 1    
   157   80   81 1    
   158   80   82 1    
   159   80  201 1    
   160   81  202 1    
   161   81  203 1    
   162   81  204 1    
   163   82   83 2    
   164   82   84 am   BACKBONE|DICT|INTERRES
   165   84   85 1    
   166   84  205 1    
   167   85   86 1    
   168   85   87 1    
   169   85  206 1    
   170   86  207 1    
   171   86  208 1    
   172   86  209 1    
   173   87   88 2    
   174   87   89 am   BACKBONE|DICT|INTERRES
   175   89   90 1    
   176   89  210 1    
   177   90   91 1    
   178   90   92 1    
   179   90  211 1    
   180   91  212 1    
   181   91  213 1    
   182   91  214 1    
   183   92   93 2    
   184   92   94 am   BACKBONE|DICT|INTERRES
   185   94   95 1    
   186   94  215 1    
   187   95   96 1    
   188   95   97 1    
   189   95  216 1    
   190   96  217 1    
   191   96  218 1    
   192   96  219 1    
   193   97   98 2    
   194   97   99 am   BACKBONE|DICT|INTERRES
   195   99  100 1    
   196   99  220 1    
   197  100  101 1    
   198  100  102 1    
   199  100  221 1    
   200  101  222 1    
   201  101  223 1    
   202  101  224 1    
   203  102  103 2    
   204  102  104 am   BACKBONE|DICT|INTERRES
   205  104  105 1    
   206  104  225 1    
   207  105  106 1    
   208  105  107 1    
   209  105  226 1    
   210  106  227 1    
   211  106  228 1    
   212  106  229 1    
   213  107  108 2    
   214  107  109 am   BACKBONE|DICT|INTERRES
   215  109  110 1    
   216  109  230 1    
   217  110  111 1    
   218  110  112 1    
   219  110  231 1    
   220  111  232 1    
   221  111  233 1    
   222  111  234 1    
   223  112  113 2    
   224  112  114 am   BACKBONE|DICT|INTERRES
   225  114  115 1    
   226  114  235 1    
   227  115  116 1    
   228  115  117 1    
   229  115  236 1    
   230  116  237 1    
   231  116  238 1    
   232  116  239 1    
   233  117  118 2    
   234  117  119 am   BACKBONE|DICT|INTERRES
   235  119  120 1    
   236  119  240 1    
   237  120  121 1    
   238  120  124 1    
   239  120  241 1    
   240  121  122 am   BACKBONE|DICT|INTERRES
   241  121  123 2    
   242  122  242 1    
   243  122  243 1    
   244  124  125 1    
   245  124  244 1    
   246  124  245 1    
   247  125  126 1    
   248  126  246 1    
   249  126  247 1    
@<TRIPOS>SUBSTRUCTURE
     1 UNK         1 GROUP             0       ****    0 ROOT    
