@<TRIPOS>MOLECULE
3R540
247   249    1
SMALL
USER_CHARGES


@<TRIPOS>ATOM
      1 CA          5.3757   -9.6572  -49.8761 C.3       0 UNK        -0.1800 
      2 C           4.7919  -10.7853  -49.0375 C.2       0 UNK         0.5000 
      3 O           3.8352  -10.5621  -48.2985 O.2       0 UNK        -0.5000 
      4 N           5.3726  -11.9883  -49.1476 N.am      1 UNK        -0.5000 
      5 CA          4.9698  -13.2283  -48.4604 C.3       1 UNK         0.1400 
      6 C6          3.5245  -13.7075  -48.7919 C.3       23 UNK        -0.0398 
      7 S7          3.1955  -13.8022  -50.5853 S.3       23 UNK        -0.2404 
      8 C8          3.5596  -15.5550  -50.9464 C.3       23 UNK        -0.0205 
      9 C9          2.4252  -16.5461  -50.6754 C.ar      23 UNK        -0.0193 
     10 C10         1.0760  -16.1659  -50.6538 C.ar      23 UNK        -0.1150 
     11 C11         0.0682  -17.1188  -50.4754 C.ar      23 UNK        -0.0193 
     12 C12         0.4116  -18.4639  -50.3306 C.ar      23 UNK        -0.1150 
     13 C13         1.7504  -18.8636  -50.3514 C.ar      23 UNK        -0.0193 
     14 C14         2.7482  -17.8979  -50.5153 C.ar      23 UNK        -0.1150 
     15 C15         2.1230  -20.3372  -50.2443 C.3       23 UNK        -0.0205 
     16 S16         1.9479  -20.9769  -48.5483 S.3       23 UNK        -0.2404 
     17 C17         0.1675  -21.3658  -48.4994 C.3       23 UNK        -0.0398 
     18 CA         -0.1614  -22.4762  -47.4781 C.3       11 UNK         0.1400 
     19 N          -0.0911  -22.0045  -46.0942 N.am      11 UNK        -0.5000 
     20 C          -0.1785  -22.7912  -45.0137 C.2       10 UNK         0.5000 
     21 O          -0.3066  -24.0137  -45.0679 O.2       10 UNK        -0.5000 
     22 CA         -0.1729  -22.0940  -43.6426 C.3       10 UNK         0.1400 
     23 CB          1.2489  -21.6686  -43.2470 C.3       10 UNK        -0.1800 
     24 N          -1.0687  -20.9383  -43.5988 N.am      10 UNK        -0.5000 
     25 C          -2.3991  -21.0037  -43.7517 C.2       9 UNK         0.5000 
     26 O          -3.0191  -22.0556  -43.9113 O.2       9 UNK        -0.5000 
     27 CA         -3.1627  -19.6671  -43.7769 C.3       9 UNK         0.1400 
     28 CB         -3.3492  -19.1137  -42.3564 C.3       9 UNK        -0.1800 
     29 N          -2.5167  -18.6605  -44.6202 N.am      9 UNK        -0.5000 
     30 C          -2.3226  -18.7941  -45.9409 C.2       8 UNK         0.5000 
     31 O          -2.6905  -19.7701  -46.5931 O.2       8 UNK        -0.5000 
     32 CA         -1.5349  -17.6776  -46.6446 C.3       8 UNK         0.1400 
     33 CB         -2.4235  -16.4476  -46.8807 C.3       8 UNK        -0.1800 
     34 N          -0.3315  -17.2842  -45.9144 N.am      8 UNK        -0.5000 
     35 C           0.6829  -18.1084  -45.6164 C.2       7 UNK         0.5000 
     36 O           0.7193  -19.2934  -45.9389 O.2       7 UNK        -0.5000 
     37 CA          1.8154  -17.5329  -44.7518 C.3       7 UNK         0.1400 
     38 CB          2.7232  -16.6086  -45.5757 C.3       7 UNK        -0.1800 
     39 N           1.3064  -16.8188  -43.5822 N.am      7 UNK        -0.5000 
     40 C           0.5666  -17.3708  -42.6097 C.2       6 UNK         0.5000 
     41 O           0.2722  -18.5648  -42.5611 O.2       6 UNK        -0.5000 
     42 CA          0.0225  -16.4159  -41.5359 C.3       6 UNK         0.1400 
     43 CB          1.0877  -16.1178  -40.4697 C.3       6 UNK        -0.1800 
     44 N          -0.4557  -15.1644  -42.1211 N.am      6 UNK        -0.5000 
     45 C          -1.5664  -15.0545  -42.8627 C.2       5 UNK         0.5000 
     46 O          -2.3235  -15.9945  -43.1073 O.2       5 UNK        -0.5000 
     47 CA         -1.8591  -13.6647  -43.4572 C.3       5 UNK         0.1400 
     48 CB         -2.5279  -12.7564  -42.4146 C.3       5 UNK        -0.1800 
     49 N          -0.6588  -13.0069  -43.9782 N.am      5 UNK        -0.5000 
     50 C           0.0294  -13.4418  -45.0422 C.2       4 UNK         0.5000 
     51 O          -0.2765  -14.4387  -45.6926 O.2       4 UNK        -0.5000 
     52 CA          1.2889  -12.6532  -45.4345 C.3       4 UNK         0.1400 
     53 CB          0.9092  -11.4339  -46.2864 C.3       4 UNK        -0.1800 
     54 N           2.1321  -12.2180  -44.3187 N.am      4 UNK        -0.5000 
     55 C           2.6103  -12.9934  -43.3364 C.2       3 UNK         0.5000 
     56 O           2.2532  -14.1549  -43.1359 O.2       3 UNK        -0.5000 
     57 CA          3.7355  -12.3773  -42.4840 C.3       3 UNK         0.1400 
     58 CB          3.9127  -13.0984  -41.1359 C.3       3 UNK        -0.1800 
     59 N           4.9898  -12.4522  -43.2310 N.am      3 UNK        -0.5000 
     60 C           5.3290  -11.6445  -44.2443 C.2       2 UNK         0.5000 
     61 O           4.7003  -10.6249  -44.5365 O.2       2 UNK        -0.5000 
     62 CA          6.5457  -12.0488  -45.1048 C.3       2 UNK         0.1400 
     63 CB          7.3545  -13.2415  -44.5450 C.3       2 UNK        -0.1800 
     64 N           6.1513  -12.3044  -46.4956 N.am      2 UNK        -0.5000 
     65 C           5.2410  -13.1904  -46.9360 C.2       1 UNK         0.5000 
     66 O           4.6435  -13.9725  -46.1972 O.2       1 UNK        -0.5000 
     67 C          -1.5197  -23.1223  -47.8075 C.2       11 UNK         0.5000 
     68 O          -1.5353  -24.1535  -48.4781 O.2       11 UNK        -0.5000 
     69 N          -2.6247  -22.5361  -47.3281 N.am      12 UNK        -0.5000 
     70 CA         -3.9723  -23.0839  -47.4838 C.3       12 UNK         0.1400 
     71 CB         -5.0121  -22.0444  -47.0401 C.3       12 UNK        -0.1800 
     72 C          -4.1575  -24.4100  -46.7240 C.2       12 UNK         0.5000 
     73 O          -4.7312  -25.3476  -47.2782 O.2       12 UNK        -0.5000 
     74 N          -3.6367  -24.4812  -45.4899 N.am      13 UNK        -0.5000 
     75 CA         -3.6493  -25.6814  -44.6500 C.3       13 UNK         0.1400 
     76 CB         -3.1897  -25.3197  -43.2295 C.3       13 UNK        -0.1800 
     77 C          -2.7943  -26.8264  -45.2258 C.2       13 UNK         0.5000 
     78 O          -3.2162  -27.9825  -45.1822 O.2       13 UNK        -0.5000 
     79 N          -1.6232  -26.4823  -45.7779 N.am      14 UNK        -0.5000 
     80 CA         -0.7064  -27.4087  -46.4467 C.3       14 UNK         0.1400 
     81 CB          0.6784  -26.7475  -46.5382 C.3       14 UNK        -0.1800 
     82 C          -1.1760  -27.8394  -47.8512 C.2       14 UNK         0.5000 
     83 O          -0.6257  -28.7965  -48.3969 O.2       14 UNK        -0.5000 
     84 N          -2.1474  -27.1092  -48.4196 N.am      15 UNK        -0.5000 
     85 CA         -2.6462  -27.1955  -49.7969 C.3       15 UNK         0.1400 
     86 CB         -3.3132  -28.5592  -50.0709 C.3       15 UNK        -0.1800 
     87 C          -1.5756  -26.8169  -50.8452 C.2       15 UNK         0.5000 
     88 O          -1.6145  -27.2996  -51.9783 O.2       15 UNK        -0.5000 
     89 N          -0.6473  -25.9364  -50.4479 N.am      16 UNK        -0.5000 
     90 CA          0.3571  -25.3132  -51.3084 C.3       16 UNK         0.1400 
     91 CB          1.5236  -24.8170  -50.4406 C.3       16 UNK        -0.1800 
     92 C          -0.2439  -24.1533  -52.1234 C.2       16 UNK         0.5000 
     93 O           0.2404  -23.8672  -53.2186 O.2       16 UNK        -0.5000 
     94 N          -1.3018  -23.5333  -51.5865 N.am      17 UNK        -0.5000 
     95 CA         -2.1814  -22.6046  -52.2836 C.3       17 UNK         0.1400 
     96 CB         -2.1392  -21.2339  -51.5919 C.3       17 UNK        -0.1800 
     97 C          -3.5975  -23.1911  -52.2447 C.2       17 UNK         0.5000 
     98 O          -3.9842  -23.7908  -51.2378 O.2       17 UNK        -0.5000 
     99 N          -4.3407  -23.0116  -53.3401 N.am      18 UNK        -0.5000 
    100 CA        -5.7342  -23.4303  -53.4642 C.3       18 UNK         0.1400 
    101 CB        -6.0851  -23.5288  -54.9577 C.3       18 UNK        -0.1800 
    102 C         -6.6727  -22.4299  -52.7722 C.2       18 UNK         0.5000 
    103 O         -6.3554  -21.2398  -52.7007 O.2       18 UNK        -0.5000 
    104 N         -7.8519  -22.9088  -52.3562 N.am      19 UNK        -0.5000 
    105 CA        -8.9340  -22.0847  -51.8035 C.3       19 UNK         0.1400 
    106 CB       -10.0086  -23.0042  -51.2038 C.3       19 UNK        -0.1800 
    107 C         -9.5569  -21.1236  -52.8390 C.2       19 UNK         0.5000 
    108 O        -10.1208  -20.0986  -52.4565 O.2       19 UNK        -0.5000 
    109 N         -9.4211  -21.4621  -54.1295 N.am      20 UNK        -0.5000 
    110 CA        -9.7670  -20.6092  -55.2681 C.3       20 UNK         0.1400 
    111 CB        -9.9161  -21.4946  -56.5154 C.3       20 UNK        -0.1800 
    112 C         -8.7309  -19.4924  -55.5211 C.2       20 UNK         0.5000 
    113 O         -9.0427  -18.5345  -56.2304 O.2       20 UNK        -0.5000 
    114 N         -7.5277  -19.6355  -54.9495 N.am      21 UNK        -0.5000 
    115 CA        -6.4576  -18.6439  -54.9471 C.3       21 UNK         0.1400 
    116 CB        -5.1337  -19.3405  -55.3265 C.3       21 UNK        -0.1800 
    117 C         -6.4316  -17.9573  -53.5660 C.2       21 UNK         0.5000 
    118 O         -7.4946  -17.6285  -53.0342 O.2       21 UNK        -0.5000 
    119 N         -5.2358  -17.7401  -53.0074 N.am      22 UNK        -0.5000 
    120 CA        -5.0266  -17.1382  -51.6815 C.3       22 UNK         0.1400 
    121 C         -4.9828  -18.1563  -50.5024 C.2       22 UNK         0.5000 
    122 N         -5.2284  -19.4450  -50.7060 N.am      22 UNK        -0.7600 
    123 O         -4.7434  -17.7641  -49.3652 O.2       22 UNK        -0.5000 
    124 C124       -3.8303  -16.1505  -51.6868 C.3       23 UNK        -0.0398 
    125 S125       -2.2038  -16.9028  -52.0512 S.3       23 UNK        -0.2404 
    126 C126       -1.3922  -16.6984  -50.4364 C.3       23 UNK        -0.0205 
    127 H127        5.7170   -8.8477  -49.2307 H         1 UNK         0.0600 
    128 H128        4.6164   -9.2604  -50.5499 H         1 UNK         0.0600 
    129 H129        6.2212   -9.9929  -50.4771 H         1 UNK         0.0600 
    130 H130        6.1536  -12.0907  -49.7809 H         1 UNK         0.3000 
    131 H131        5.6468  -13.9945  -48.8404 H         1 UNK         0.0600 
    132 H132        3.3278  -14.6864  -48.3507 H         1 UNK         0.0800 
    133 H133        2.7901  -13.0302  -48.3545 H         1 UNK         0.0800 
    134 H134        3.8179  -15.6308  -52.0033 H         1 UNK         0.0800 
    135 H135        4.4535  -15.8487  -50.3938 H         1 UNK         0.0800 
    136 H136        0.7983  -15.1313  -50.7920 H         1 UNK         0.1150 
    137 H137       -0.3712  -19.1965  -50.2116 H         1 UNK         0.1150 
    138 H138        3.7844  -18.2045  -50.5477 H         1 UNK         0.1150 
    139 H139        1.5217  -20.9251  -50.9391 H         1 UNK         0.0800 
    140 H140        3.1586  -20.4833  -50.5548 H         1 UNK         0.0800 
    141 H141       -0.1297  -21.6727  -49.5029 H         1 UNK         0.0800 
    142 H142       -0.3942  -20.4591  -48.2707 H         1 UNK         0.0800 
    143 H143        0.5857  -23.2657  -47.5799 H         1 UNK         0.0600 
    144 H144        0.0642  -21.0055  -45.9679 H         1 UNK         0.3000 
    145 H145       -0.5270  -22.8157  -42.9036 H         1 UNK         0.0600 
    146 H146        1.2688  -21.2535  -42.2393 H         1 UNK         0.0600 
    147 H147        1.9301  -22.5202  -43.2625 H         1 UNK         0.0600 
    148 H148        1.6488  -20.9147  -43.9256 H         1 UNK         0.0600 
    149 H149       -0.6338  -20.0326  -43.4440 H         1 UNK         0.3000 
    150 H150       -4.1520  -19.8614  -44.1960 H         1 UNK         0.0600 
    151 H151       -3.9692  -18.2171  -42.3619 H         1 UNK         0.0600 
    152 H152       -2.3957  -18.8568  -41.8944 H         1 UNK         0.0600 
    153 H153       -3.8403  -19.8451  -41.7135 H         1 UNK         0.0600 
    154 H154       -2.1994  -17.8148  -44.1588 H         1 UNK         0.3000 
    155 H155       -1.2148  -18.0644  -47.6132 H         1 UNK         0.0600 
    156 H156       -3.3432  -16.7208  -47.3971 H         1 UNK         0.0600 
    157 H157       -2.7055  -15.9688  -45.9425 H         1 UNK         0.0600 
    158 H158       -1.9139  -15.7057  -47.4952 H         1 UNK         0.0600 
    159 H159       -0.2730  -16.3065  -45.6398 H         1 UNK         0.3000 
    160 H160        2.4188  -18.3688  -44.3923 H         1 UNK         0.0600 
    161 H161        3.5625  -16.2488  -44.9802 H         1 UNK         0.0600 
    162 H162        2.1841  -15.7382  -45.9485 H         1 UNK         0.0600 
    163 H163        3.1355  -17.1324  -46.4390 H         1 UNK         0.0600 
    164 H164        1.5323  -15.8289  -43.5154 H         1 UNK         0.3000 
    165 H165       -0.8194  -16.9083  -41.0444 H         1 UNK         0.0600 
    166 H166        0.6911  -15.4733  -39.6852 H         1 UNK         0.0600 
    167 H167        1.4280  -17.0382  -39.9937 H         1 UNK         0.0600 
    168 H168        1.9634  -15.6276  -40.8957 H         1 UNK         0.0600 
    169 H169        0.1582  -14.3658  -42.0450 H         1 UNK         0.3000 
    170 H170       -2.5570  -13.8005  -44.2863 H         1 UNK         0.0600 
    171 H171       -1.8677  -12.5559  -41.5699 H         1 UNK         0.0600 
    172 H172       -2.8147  -11.7997  -42.8515 H         1 UNK         0.0600 
    173 H173       -3.4346  -13.2175  -42.0206 H         1 UNK         0.0600 
    174 H174       -0.3320  -12.1850  -43.4918 H         1 UNK         0.3000 
    175 H175        1.9030  -13.3140  -46.0481 H         1 UNK         0.0600 
    176 H176        1.7960  -10.9119  -46.6440 H         1 UNK         0.0600 
    177 H177        0.3067  -10.7204  -45.7230 H         1 UNK         0.0600 
    178 H178        0.3337  -11.7329  -47.1635 H         1 UNK         0.0600 
    179 H179        2.5535  -11.3035  -44.4219 H         1 UNK         0.3000 
    180 H180        3.4870  -11.3335  -42.2810 H         1 UNK         0.0600 
    181 H181        4.1976  -14.1431  -41.2677 H         1 UNK         0.0600 
    182 H182        2.9865  -13.0807  -40.5602 H         1 UNK         0.0600 
    183 H183        4.6809  -12.6168  -40.5309 H         1 UNK         0.0600 
    184 H184        5.5354  -13.2905  -43.0944 H         1 UNK         0.3000 
    185 H185        7.2069  -11.1813  -45.1224 H         1 UNK         0.0600 
    186 H186        6.7699  -14.1616  -44.5121 H         1 UNK         0.0600 
    187 H187        8.2333  -13.4352  -45.1602 H         1 UNK         0.0600 
    188 H188        7.7126  -13.0357  -43.5354 H         1 UNK         0.0600 
    189 H189        6.5605  -11.6880  -47.1829 H         1 UNK         0.3000 
    190 H190       -2.5481  -21.6477  -46.8385 H         1 UNK         0.3000 
    191 H191       -4.1308  -23.2852  -48.5451 H         1 UNK         0.0600 
    192 H192       -4.9358  -21.1337  -47.6344 H         1 UNK         0.0600 
    193 H193       -6.0256  -22.4286  -47.1613 H         1 UNK         0.0600 
    194 H194       -4.8858  -21.7700  -45.9924 H         1 UNK         0.0600 
    195 H195       -3.2151  -23.6495  -45.0865 H         1 UNK         0.3000 
    196 H196       -4.6803  -26.0363  -44.5911 H         1 UNK         0.0600 
    197 H197       -3.2044  -26.1946  -42.5784 H         1 UNK         0.0600 
    198 H198       -3.8442  -24.5708  -42.7831 H         1 UNK         0.0600 
    199 H199       -2.1747  -24.9214  -43.2233 H         1 UNK         0.0600 
    200 H200       -1.3131  -25.5167  -45.7017 H         1 UNK         0.3000 
    201 H201       -0.6169  -28.3104  -45.8376 H         1 UNK         0.0600 
    202 H202        1.0580  -26.4882  -45.5497 H         1 UNK         0.0600 
    203 H203        0.6477  -25.8348  -47.1349 H         1 UNK         0.0600 
    204 H204        1.4054  -27.4171  -46.9994 H         1 UNK         0.0600 
    205 H205       -2.5103  -26.3316  -47.8838 H         1 UNK         0.3000 
    206 H206       -3.4212  -26.4315  -49.8770 H         1 UNK         0.0600 
    207 H207       -4.0558  -28.7942  -49.3083 H         1 UNK         0.0600 
    208 H208       -3.8273  -28.5547  -51.0326 H         1 UNK         0.0600 
    209 H209       -2.5863  -29.3713  -50.0950 H         1 UNK         0.0600 
    210 H210       -0.7607  -25.5314  -49.5232 H         1 UNK         0.3000 
    211 H211        0.7392  -26.0598  -52.0077 H         1 UNK         0.0600 
    212 H212        1.2062  -24.0415  -49.7444 H         1 UNK         0.0600 
    213 H213        2.3169  -24.3951  -51.0589 H         1 UNK         0.0600 
    214 H214        1.9595  -25.6309  -49.8609 H         1 UNK         0.0600 
    215 H215       -1.6631  -23.8797  -50.7051 H         1 UNK         0.3000 
    216 H216       -1.8758  -22.4854  -53.3252 H         1 UNK         0.0600 
    217 H217       -2.8146  -20.5286  -52.0778 H         1 UNK         0.0600 
    218 H218       -1.1379  -20.8091  -51.6449 H         1 UNK         0.0600 
    219 H219       -2.4303  -21.2973  -50.5423 H         1 UNK         0.0600 
    220 H220       -3.9639  -22.4805  -54.1109 H         1 UNK         0.3000 
    221 H221       -5.8577  -24.4138  -53.0054 H         1 UNK         0.0600 
    222 H222       -5.9985  -22.5633  -55.4587 H         1 UNK         0.0600 
    223 H223       -5.4282  -24.2315  -55.4707 H         1 UNK         0.0600 
    224 H224       -7.1071  -23.8820  -55.1003 H         1 UNK         0.0600 
    225 H225       -8.0445  -23.8957  -52.4521 H         1 UNK         0.3000 
    226 H226       -8.5174  -21.4735  -50.9998 H         1 UNK         0.0600 
    227 H227       -9.5938  -23.6359  -50.4182 H         1 UNK         0.0600 
    228 H228      -10.8163  -22.4220  -50.7580 H         1 UNK         0.0600 
    229 H229      -10.4510  -23.6535  -51.9603 H         1 UNK         0.0600 
    230 H230       -8.9738  -22.3401  -54.3454 H         1 UNK         0.3000 
    231 H231      -10.7280  -20.1301  -55.0693 H         1 UNK         0.0600 
    232 H232       -8.9830  -22.0027  -56.7624 H         1 UNK         0.0600 
    233 H233      -10.2065  -20.9015  -57.3836 H         1 UNK         0.0600 
    234 H234      -10.6850  -22.2538  -56.3711 H         1 UNK         0.0600 
    235 H235       -7.3906  -20.4044  -54.3058 H         1 UNK         0.3000 
    236 H236       -6.6551  -17.8675  -55.6885 H         1 UNK         0.0600 
    237 H237       -5.2299  -19.8655  -56.2771 H         1 UNK         0.0600 
    238 H238       -4.3248  -18.6187  -55.4447 H         1 UNK         0.0600 
    239 H239       -4.8255  -20.0707  -54.5778 H         1 UNK         0.0600 
    240 H240       -4.4019  -18.0511  -53.4840 H         1 UNK         0.3000 
    241 H241       -5.8996  -16.5231  -51.4561 H         1 UNK         0.0600 
    242 H242       -5.1998  -20.0660  -49.9158 H         1 UNK         0.3800 
    243 H243       -5.5088  -19.8083  -51.6101 H         1 UNK         0.3800 
    244 H244       -4.0078  -15.3809  -52.4390 H         1 UNK         0.0800 
    245 H245       -3.7874  -15.6124  -50.7385 H         1 UNK         0.0800 
    246 H246       -1.9315  -17.2919  -49.6982 H         1 UNK         0.0800 
    247 H247       -1.4690  -15.6584  -50.1153 H         1 UNK         0.0800 
@<TRIPOS>BOND
     1    1    2 1    
     2    1  127 1    
     3    1  128 1    
     4    1  129 1    
     5    2    3 2    
     6    2    4 am   BACKBONE|DICT|INTERRES
     7    4    5 1    
     8    4  130 1    
     9    5    6 1    
    10    5   65 1    
    11    5  131 1    
    12    6    7 1    
    13    6  132 1    
    14    6  133 1    
    15    7    8 1    
    16    8    9 1    
    17    8  134 1    
    18    8  135 1    
    19    9   10 ar   
    20    9   14 ar   
    21   10   11 ar   
    22   10  136 1    
    23   11   12 ar   
    24   11  126 1    
    25   12   13 ar   
    26   12  137 1    
    27   13   14 ar   
    28   13   15 1    
    29   14  138 1    
    30   15   16 1    
    31   15  139 1    
    32   15  140 1    
    33   16   17 1    
    34   17   18 1    
    35   17  141 1    
    36   17  142 1    
    37   18   19 1    
    38   18   67 1    
    39   18  143 1    
    40   19   20 am   BACKBONE|DICT|INTERRES
    41   19  144 1    
    42   20   21 2    
    43   20   22 1    
    44   22   23 1    
    45   22   24 1    
    46   22  145 1    
    47   23  146 1    
    48   23  147 1    
    49   23  148 1    
    50   24   25 am   BACKBONE|DICT|INTERRES
    51   24  149 1    
    52   25   26 2    
    53   25   27 1    
    54   27   28 1    
    55   27   29 1    
    56   27  150 1    
    57   28  151 1    
    58   28  152 1    
    59   28  153 1    
    60   29   30 am   BACKBONE|DICT|INTERRES
    61   29  154 1    
    62   30   31 2    
    63   30   32 1    
    64   32   33 1    
    65   32   34 1    
    66   32  155 1    
    67   33  156 1    
    68   33  157 1    
    69   33  158 1    
    70   34   35 am   BACKBONE|DICT|INTERRES
    71   34  159 1    
    72   35   36 2    
    73   35   37 1    
    74   37   38 1    
    75   37   39 1    
    76   37  160 1    
    77   38  161 1    
    78   38  162 1    
    79   38  163 1    
    80   39   40 am   BACKBONE|DICT|INTERRES
    81   39  164 1    
    82   40   41 2    
    83   40   42 1    
    84   42   43 1    
    85   42   44 1    
    86   42  165 1    
    87   43  166 1    
    88   43  167 1    
    89   43  168 1    
    90   44   45 am   BACKBONE|DICT|INTERRES
    91   44  169 1    
    92   45   46 2    
    93   45   47 1    
    94   47   48 1    
    95   47   49 1    
    96   47  170 1    
    97   48  171 1    
    98   48  172 1    
    99   48  173 1    
   100   49   50 am   BACKBONE|DICT|INTERRES
   101   49  174 1    
   102   50   51 2    
   103   50   52 1    
   104   52   53 1    
   105   52   54 1    
   106   52  175 1    
   107   53  176 1    
   108   53  177 1    
   109   53  178 1    
   110   54   55 am   BACKBONE|DICT|INTERRES
   111   54  179 1    
   112   55   56 2    
   113   55   57 1    
   114   57   58 1    
   115   57   59 1    
   116   57  180 1    
   117   58  181 1    
   118   58  182 1    
   119   58  183 1    
   120   59   60 am   BACKBONE|DICT|INTERRES
   121   59  184 1    
   122   60   61 2    
   123   60   62 1    
   124   62   63 1    
   125   62   64 1    
   126   62  185 1    
   127   63  186 1    
   128   63  187 1    
   129   63  188 1    
   130   64   65 am   BACKBONE|DICT|INTERRES
   131   64  189 1    
   132   65   66 2    
   133   67   68 2    
   134   67   69 am   BACKBONE|DICT|INTERRES
   135   69   70 1    
   136   69  190 1    
   137   70   71 1    
   138   70   72 1    
   139   70  191 1    
   140   71  192 1    
   141   71  193 1    
   142   71  194 1    
   143   72   73 2    
   144   72   74 am   BACKBONE|DICT|INTERRES
   145   74   75 1    
   146   74  195 1    
   147   75   76 1    
   148   75   77 1    
   149   75  196 1    
   150   76  197 1    
   151   76  198 1    
   152   76  199 1    
   153   77   78 2    
   154   77   79 am   BACKBONE|DICT|INTERRES
   155   79   80 1    
   156   79  200 1    
   157   80   81 1    
   158   80   82 1    
   159   80  201 1    
   160   81  202 1    
   161   81  203 1    
   162   81  204 1    
   163   82   83 2    
   164   82   84 am   BACKBONE|DICT|INTERRES
   165   84   85 1    
   166   84  205 1    
   167   85   86 1    
   168   85   87 1    
   169   85  206 1    
   170   86  207 1    
   171   86  208 1    
   172   86  209 1    
   173   87   88 2    
   174   87   89 am   BACKBONE|DICT|INTERRES
   175   89   90 1    
   176   89  210 1    
   177   90   91 1    
   178   90   92 1    
   179   90  211 1    
   180   91  212 1    
   181   91  213 1    
   182   91  214 1    
   183   92   93 2    
   184   92   94 am   BACKBONE|DICT|INTERRES
   185   94   95 1    
   186   94  215 1    
   187   95   96 1    
   188   95   97 1    
   189   95  216 1    
   190   96  217 1    
   191   96  218 1    
   192   96  219 1    
   193   97   98 2    
   194   97   99 am   BACKBONE|DICT|INTERRES
   195   99  100 1    
   196   99  220 1    
   197  100  101 1    
   198  100  102 1    
   199  100  221 1    
   200  101  222 1    
   201  101  223 1    
   202  101  224 1    
   203  102  103 2    
   204  102  104 am   BACKBONE|DICT|INTERRES
   205  104  105 1    
   206  104  225 1    
   207  105  106 1    
   208  105  107 1    
   209  105  226 1    
   210  106  227 1    
   211  106  228 1    
   212  106  229 1    
   213  107  108 2    
   214  107  109 am   BACKBONE|DICT|INTERRES
   215  109  110 1    
   216  109  230 1    
   217  110  111 1    
   218  110  112 1    
   219  110  231 1    
   220  111  232 1    
   221  111  233 1    
   222  111  234 1    
   223  112  113 2    
   224  112  114 am   BACKBONE|DICT|INTERRES
   225  114  115 1    
   226  114  235 1    
   227  115  116 1    
   228  115  117 1    
   229  115  236 1    
   230  116  237 1    
   231  116  238 1    
   232  116  239 1    
   233  117  118 2    
   234  117  119 am   BACKBONE|DICT|INTERRES
   235  119  120 1    
   236  119  240 1    
   237  120  121 1    
   238  120  124 1    
   239  120  241 1    
   240  121  122 am   BACKBONE|DICT|INTERRES
   241  121  123 2    
   242  122  242 1    
   243  122  243 1    
   244  124  125 1    
   245  124  244 1    
   246  124  245 1    
   247  125  126 1    
   248  126  246 1    
   249  126  247 1    
@<TRIPOS>SUBSTRUCTURE
     1 UNK         1 GROUP             0       ****    0 ROOT    
