@<TRIPOS>MOLECULE
3R540
247   249    1
SMALL
USER_CHARGES


@<TRIPOS>ATOM
      1 CA         -3.2420  -13.2840  -49.7557 C.3       0 UNK        -0.1800 
      2 C          -2.1353  -13.7532  -48.8234 C.2       0 UNK         0.5000 
      3 O          -2.2825  -14.7875  -48.1765 O.2       0 UNK        -0.5000 
      4 N          -1.0311  -12.9943  -48.7467 N.am      1 UNK        -0.5000 
      5 CA          0.1651  -13.2920  -47.9405 C.3       1 UNK         0.1400 
      6 C6          0.8283  -14.6368  -48.3559 C.3       23 UNK        -0.0398 
      7 S7          2.6340  -14.6930  -48.0887 S.3       23 UNK        -0.2404 
      8 C8          3.2747  -14.7136  -49.7942 C.3       23 UNK        -0.0205 
      9 C9          2.8992  -15.9860  -50.5427 C.ar      23 UNK        -0.0193 
     10 C10         1.9578  -15.9431  -51.5773 C.ar      23 UNK        -0.1150 
     11 C11         1.6196  -17.1054  -52.2749 C.ar      23 UNK        -0.0193 
     12 C12         2.2342  -18.3117  -51.9375 C.ar      23 UNK        -0.1150 
     13 C13         3.1695  -18.3730  -50.9018 C.ar      23 UNK        -0.0193 
     14 C14         3.5025  -17.2042  -50.2104 C.ar      23 UNK        -0.1150 
     15 C15         3.8190  -19.7028  -50.5413 C.3       23 UNK        -0.0205 
     16 S16         3.1204  -20.4276  -49.0220 S.3       23 UNK        -0.2404 
     17 C17         1.3572  -20.6192  -49.4545 C.3       23 UNK        -0.0398 
     18 CA          0.7960  -22.0374  -49.1888 C.3       11 UNK         0.1400 
     19 N           0.8510  -22.3851  -47.7635 N.am      11 UNK        -0.5000 
     20 C           0.6957  -23.6141  -47.2532 C.2       10 UNK         0.5000 
     21 O           0.5764  -24.6294  -47.9388 O.2       10 UNK        -0.5000 
     22 CA          0.6048  -23.7146  -45.7184 C.3       10 UNK         0.1400 
     23 CB          2.0014  -23.8066  -45.0844 C.3       10 UNK        -0.1800 
     24 N          -0.1319  -22.5909  -45.1318 N.am      10 UNK        -0.5000 
     25 C          -1.4589  -22.4229  -45.2306 C.2       9 UNK         0.5000 
     26 O          -2.2005  -23.2175  -45.8050 O.2       9 UNK        -0.5000 
     27 CA         -2.0539  -21.1387  -44.6216 C.3       9 UNK         0.1400 
     28 CB         -2.3088  -21.3166  -43.1180 C.3       9 UNK        -0.1800 
     29 N          -1.2022  -19.9690  -44.8294 N.am      9 UNK        -0.5000 
     30 C          -0.9579  -19.4096  -46.0215 C.2       8 UNK         0.5000 
     31 O          -1.4964  -19.7638  -47.0685 O.2       8 UNK        -0.5000 
     32 CA          0.0753  -18.2731  -46.0595 C.3       8 UNK         0.1400 
     33 CB         -0.6130  -16.9470  -45.7316 C.3       8 UNK        -0.1800 
     34 N           1.2005  -18.4728  -45.1465 N.am      8 UNK        -0.5000 
     35 C           2.0307  -19.5243  -45.1573 C.2       7 UNK         0.5000 
     36 O           1.9195  -20.4730  -45.9296 O.2       7 UNK        -0.5000 
     37 CA          3.1318  -19.5466  -44.0876 C.3       7 UNK         0.1400 
     38 CB          4.3272  -18.6799  -44.5124 C.3       7 UNK        -0.1800 
     39 N           2.6135  -19.0871  -42.8005 N.am      7 UNK        -0.5000 
     40 C           1.8676  -19.8398  -41.9801 C.2       6 UNK         0.5000 
     41 O           1.6132  -21.0274  -42.1842 O.2       6 UNK        -0.5000 
     42 CA          1.2820  -19.1401  -40.7381 C.3       6 UNK         0.1400 
     43 CB          2.2928  -19.1552  -39.5817 C.3       6 UNK        -0.1800 
     44 N           0.8656  -17.7600  -40.9984 N.am      6 UNK        -0.5000 
     45 C          -0.1456  -17.4152  -41.8077 C.2       5 UNK         0.5000 
     46 O          -0.8499  -18.2311  -42.4031 O.2       5 UNK        -0.5000 
     47 CA         -0.3923  -15.9063  -42.0147 C.3       5 UNK         0.1400 
     48 CB         -1.3309  -15.3694  -40.9242 C.3       5 UNK        -0.1800 
     49 N           0.8111  -15.0664  -42.0721 N.am      5 UNK        -0.5000 
     50 C           1.8892  -15.2711  -42.8441 C.2       4 UNK         0.5000 
     51 O           2.0553  -16.2795  -43.5301 O.2       4 UNK        -0.5000 
     52 CA          2.9313  -14.1415  -42.8655 C.3       4 UNK         0.1400 
     53 CB          4.1077  -14.4298  -43.8163 C.3       4 UNK        -0.1800 
     54 N           2.2640  -12.9171  -43.2914 N.am      4 UNK        -0.5000 
     55 C           2.2955  -11.7391  -42.6559 C.2       3 UNK         0.5000 
     56 O           2.9597  -11.5290  -41.6403 O.2       3 UNK        -0.5000 
     57 CA          1.4278  -10.6011  -43.2384 C.3       3 UNK         0.1400 
     58 CB          2.2894   -9.6470  -44.0797 C.3       3 UNK        -0.1800 
     59 N           0.3127  -11.0785  -44.0600 N.am      3 UNK        -0.5000 
     60 C          -0.7274  -11.7909  -43.6054 C.2       2 UNK         0.5000 
     61 O          -0.9231  -12.0171  -42.4112 O.2       2 UNK        -0.5000 
     62 CA         -1.6931  -12.3840  -44.6528 C.3       2 UNK         0.1400 
     63 CB         -3.0083  -11.5910  -44.6839 C.3       2 UNK        -0.1800 
     64 N          -1.1691  -12.4808  -46.0218 N.am      2 UNK        -0.5000 
     65 C          -0.0889  -13.1753  -46.4137 C.2       1 UNK         0.5000 
     66 O           0.6965  -13.6849  -45.6156 O.2       1 UNK        -0.5000 
     67 C          -0.6353  -22.1233  -49.7692 C.2       11 UNK         0.5000 
     68 O          -0.7872  -22.0567  -50.9910 O.2       11 UNK        -0.5000 
     69 N          -1.6508  -22.1974  -48.8924 N.am      12 UNK        -0.5000 
     70 CA         -3.0905  -22.1329  -49.1707 C.3       12 UNK         0.1400 
     71 CB         -3.5297  -23.3468  -50.0100 C.3       12 UNK        -0.1800 
     72 C          -3.5358  -20.7840  -49.7834 C.2       12 UNK         0.5000 
     73 O          -4.5975  -20.7034  -50.4010 O.2       12 UNK        -0.5000 
     74 N          -2.7071  -19.7471  -49.6080 N.am      13 UNK        -0.5000 
     75 CA         -2.8992  -18.3970  -50.1257 C.3       13 UNK         0.1400 
     76 CB         -1.5395  -17.6792  -50.1623 C.3       13 UNK        -0.1800 
     77 C          -3.9151  -17.6065  -49.2879 C.2       13 UNK         0.5000 
     78 O          -4.6983  -16.8433  -49.8542 O.2       13 UNK        -0.5000 
     79 N          -3.8944  -17.8202  -47.9641 N.am      14 UNK        -0.5000 
     80 CA         -4.8435  -17.2229  -47.0280 C.3       14 UNK         0.1400 
     81 CB         -4.2598  -17.2290  -45.6042 C.3       14 UNK        -0.1800 
     82 C          -6.1955  -17.9499  -47.0919 C.2       14 UNK         0.5000 
     83 O          -7.1963  -17.3506  -47.4866 O.2       14 UNK        -0.5000 
     84 N          -6.1846  -19.2340  -46.7196 N.am      15 UNK        -0.5000 
     85 CA         -7.3229  -20.1454  -46.6828 C.3       15 UNK         0.1400 
     86 CB         -8.3621  -19.6804  -45.6390 C.3       15 UNK        -0.1800 
     87 C          -6.8076  -21.5474  -46.3242 C.2       15 UNK         0.5000 
     88 O          -5.6781  -21.6758  -45.8416 O.2       15 UNK        -0.5000 
     89 N          -7.6750  -22.5497  -46.5229 N.am      16 UNK        -0.5000 
     90 CA         -7.5092  -23.9633  -46.1641 C.3       16 UNK         0.1400 
     91 CB         -7.3901  -24.1120  -44.6299 C.3       16 UNK        -0.1800 
     92 C          -6.3676  -24.6784  -46.9209 C.2       16 UNK         0.5000 
     93 O          -5.8220  -24.1395  -47.8843 O.2       16 UNK        -0.5000 
     94 N          -6.0648  -25.9080  -46.4823 N.am      17 UNK        -0.5000 
     95 CA         -5.0346  -26.8375  -46.9595 C.3       17 UNK         0.1400 
     96 CB         -3.6196  -26.2402  -46.8264 C.3       17 UNK        -0.1800 
     97 C          -5.2820  -27.4168  -48.3663 C.2       17 UNK         0.5000 
     98 O          -5.3211  -28.6402  -48.5066 O.2       17 UNK        -0.5000 
     99 N          -5.4408  -26.5551  -49.3757 N.am      18 UNK        -0.5000 
    100 CA        -5.5916  -26.9069  -50.7882 C.3       18 UNK         0.1400 
    101 CB        -4.2622  -27.4765  -51.3409 C.3       18 UNK        -0.1800 
    102 C         -6.0732  -25.6722  -51.5746 C.2       18 UNK         0.5000 
    103 O         -6.6590  -24.7602  -50.9878 O.2       18 UNK        -0.5000 
    104 N         -5.8046  -25.6513  -52.8858 N.am      19 UNK        -0.5000 
    105 CA        -5.8368  -24.4468  -53.7147 C.3       19 UNK         0.1400 
    106 CB        -6.1014  -24.8494  -55.1737 C.3       19 UNK        -0.1800 
    107 C         -4.4864  -23.7168  -53.5888 C.2       19 UNK         0.5000 
    108 O         -3.4624  -24.3752  -53.3858 O.2       19 UNK        -0.5000 
    109 N         -4.5086  -22.3828  -53.7076 N.am      20 UNK        -0.5000 
    110 CA        -3.3528  -21.4996  -53.5274 C.3       20 UNK         0.1400 
    111 CB        -3.7958  -20.0401  -53.7177 C.3       20 UNK        -0.1800 
    112 C         -2.1801  -21.8203  -54.4693 C.2       20 UNK         0.5000 
    113 O         -2.3897  -21.9663  -55.6761 O.2       20 UNK        -0.5000 
    114 N         -0.9641  -21.8676  -53.9089 N.am      21 UNK        -0.5000 
    115 CA         0.2858  -22.1570  -54.6204 C.3       21 UNK         0.1400 
    116 CB         1.4268  -22.2679  -53.5971 C.3       21 UNK        -0.1800 
    117 C          0.6402  -21.1492  -55.7358 C.2       21 UNK         0.5000 
    118 O          1.3692  -21.5087  -56.6613 O.2       21 UNK        -0.5000 
    119 N          0.0999  -19.9267  -55.6473 N.am      22 UNK        -0.5000 
    120 CA         0.1630  -18.9015  -56.7034 C.3       22 UNK         0.1400 
    121 C         -0.8447  -19.1265  -57.8719 C.2       22 UNK         0.5000 
    122 N         -1.7579  -20.0892  -57.8091 N.am      22 UNK        -0.7600 
    123 O         -0.7900  -18.4139  -58.8706 O.2       22 UNK        -0.5000 
    124 C124        0.0316  -17.4667  -56.1276 C.3       23 UNK        -0.0398 
    125 S125        1.4127  -17.0385  -55.0159 S.3       23 UNK        -0.2404 
    126 C126        0.5933  -17.0751  -53.3943 C.3       23 UNK        -0.0205 
    127 H127       -4.1512  -13.0878  -49.1876 H         1 UNK         0.0600 
    128 H128       -3.4610  -14.0574  -50.4921 H         1 UNK         0.0600 
    129 H129       -2.9671  -12.3733  -50.2882 H         1 UNK         0.0600 
    130 H130       -0.9785  -12.1495  -49.2997 H         1 UNK         0.3000 
    131 H131        0.8659  -12.4906  -48.1790 H         1 UNK         0.0600 
    132 H132        0.3722  -15.4795  -47.8403 H         1 UNK         0.0800 
    133 H133        0.6347  -14.8221  -49.4115 H         1 UNK         0.0800 
    134 H134        2.9158  -13.8295  -50.3235 H         1 UNK         0.0800 
    135 H135        4.3617  -14.6282  -49.7615 H         1 UNK         0.0800 
    136 H136        1.4892  -15.0056  -51.8417 H         1 UNK         0.1150 
    137 H137        1.9797  -19.2043  -52.4884 H         1 UNK         0.1150 
    138 H138        4.2258  -17.2436  -49.4079 H         1 UNK         0.1150 
    139 H139        3.7161  -20.4176  -51.3594 H         1 UNK         0.0800 
    140 H140        4.8905  -19.5544  -50.4005 H         1 UNK         0.0800 
    141 H141        0.7910  -19.8700  -48.8990 H         1 UNK         0.0800 
    142 H142        1.2304  -20.3708  -50.5075 H         1 UNK         0.0800 
    143 H143        1.4059  -22.7571  -49.7387 H         1 UNK         0.0600 
    144 H144        1.0498  -21.6208  -47.1212 H         1 UNK         0.3000 
    145 H145        0.0671  -24.6343  -45.4779 H         1 UNK         0.0600 
    146 H146        1.9370  -23.9029  -44.0004 H         1 UNK         0.0600 
    147 H147        2.6093  -22.9297  -45.3062 H         1 UNK         0.0600 
    148 H148        2.5397  -24.6786  -45.4577 H         1 UNK         0.0600 
    149 H149        0.4201  -21.8693  -44.6887 H         1 UNK         0.3000 
    150 H150       -3.0124  -20.9518  -45.1106 H         1 UNK         0.0600 
    151 H151       -2.9543  -22.1756  -42.9303 H         1 UNK         0.0600 
    152 H152       -2.8022  -20.4402  -42.6973 H         1 UNK         0.0600 
    153 H153       -1.3797  -21.4730  -42.5681 H         1 UNK         0.0600 
    154 H154       -0.7812  -19.5551  -44.0043 H         1 UNK         0.3000 
    155 H155        0.4848  -18.2121  -47.0695 H         1 UNK         0.0600 
    156 H156       -1.2829  -16.6502  -46.5381 H         1 UNK         0.0600 
    157 H157        0.1146  -16.1513  -45.5906 H         1 UNK         0.0600 
    158 H158       -1.2084  -17.0187  -44.8234 H         1 UNK         0.0600 
    159 H159        1.3980  -17.7161  -44.4956 H         1 UNK         0.3000 
    160 H160        3.4820  -20.5759  -43.9830 H         1 UNK         0.0600 
    161 H161        4.0431  -17.6383  -44.6645 H         1 UNK         0.0600 
    162 H162        4.7520  -19.0409  -45.4499 H         1 UNK         0.0600 
    163 H163        5.1192  -18.7060  -43.7640 H         1 UNK         0.0600 
    164 H164        2.6943  -18.0955  -42.6140 H         1 UNK         0.3000 
    165 H165        0.4003  -19.7046  -40.4270 H         1 UNK         0.0600 
    166 H166        1.8592  -18.7367  -38.6732 H         1 UNK         0.0600 
    167 H167        2.6067  -20.1742  -39.3512 H         1 UNK         0.0600 
    168 H168        3.1891  -18.5819  -39.8219 H         1 UNK         0.0600 
    169 H169        1.3985  -17.0270  -40.5539 H         1 UNK         0.3000 
    170 H170       -0.8995  -15.7856  -42.9717 H         1 UNK         0.0600 
    171 H171       -2.2452  -15.9620  -40.8675 H         1 UNK         0.0600 
    172 H172       -0.8606  -15.3952  -39.9405 H         1 UNK         0.0600 
    173 H173       -1.6273  -14.3406  -41.1279 H         1 UNK         0.0600 
    174 H174        0.7593  -14.1942  -41.5651 H         1 UNK         0.3000 
    175 H175        3.3201  -14.0426  -41.8503 H         1 UNK         0.0600 
    176 H176        3.7680  -14.5630  -44.8447 H         1 UNK         0.0600 
    177 H177        4.8305  -13.6141  -43.8060 H         1 UNK         0.0600 
    178 H178        4.6360  -15.3373  -43.5222 H         1 UNK         0.0600 
    179 H179        1.6670  -13.0232  -44.1092 H         1 UNK         0.3000 
    180 H180        1.0135  -10.0404  -42.3980 H         1 UNK         0.0600 
    181 H181        1.7054   -8.7990  -44.4379 H         1 UNK         0.0600 
    182 H182        2.7181  -10.1516  -44.9465 H         1 UNK         0.0600 
    183 H183        3.1159   -9.2455  -43.4917 H         1 UNK         0.0600 
    184 H184        0.3944  -10.9457  -45.0569 H         1 UNK         0.3000 
    185 H185       -1.9191  -13.4014  -44.3265 H         1 UNK         0.0600 
    186 H186       -3.7424  -12.0690  -45.3330 H         1 UNK         0.0600 
    187 H187       -3.4515  -11.5261  -43.6892 H         1 UNK         0.0600 
    188 H188       -2.8538  -10.5724  -45.0419 H         1 UNK         0.0600 
    189 H189       -1.7463  -12.0788  -46.7457 H         1 UNK         0.3000 
    190 H190       -1.4120  -22.2228  -47.9104 H         1 UNK         0.3000 
    191 H191       -3.5935  -22.2013  -48.2046 H         1 UNK         0.0600 
    192 H192       -4.6017  -23.3209  -50.1995 H         1 UNK         0.0600 
    193 H193       -3.3137  -24.2814  -49.4951 H         1 UNK         0.0600 
    194 H194       -3.0278  -23.3825  -50.9739 H         1 UNK         0.0600 
    195 H195       -1.9301  -19.8815  -48.9702 H         1 UNK         0.3000 
    196 H196       -3.2799  -18.4649  -51.1464 H         1 UNK         0.0600 
    197 H197       -1.6367  -16.6800  -50.5887 H         1 UNK         0.0600 
    198 H198       -0.8203  -18.2262  -50.7718 H         1 UNK         0.0600 
    199 H199       -1.1145  -17.5667  -49.1640 H         1 UNK         0.0600 
    200 H200       -3.2213  -18.4783  -47.5942 H         1 UNK         0.3000 
    201 H201       -5.0117  -16.1809  -47.3101 H         1 UNK         0.0600 
    202 H202       -3.8769  -18.2090  -45.3171 H         1 UNK         0.0600 
    203 H203       -5.0134  -16.9414  -44.8700 H         1 UNK         0.0600 
    204 H204       -3.4475  -16.5089  -45.5197 H         1 UNK         0.0600 
    205 H205       -5.3205  -19.6679  -46.4193 H         1 UNK         0.3000 
    206 H206       -7.7771  -20.1812  -47.6749 H         1 UNK         0.0600 
    207 H207       -8.7995  -18.7178  -45.9016 H         1 UNK         0.0600 
    208 H208       -9.1883  -20.3878  -45.5590 H         1 UNK         0.0600 
    209 H209       -7.9163  -19.5856  -44.6481 H         1 UNK         0.0600 
    210 H210       -8.5582  -22.3270  -46.9594 H         1 UNK         0.3000 
    211 H211       -8.4317  -24.4560  -46.4743 H         1 UNK         0.0600 
    212 H212       -6.4231  -23.7644  -44.2641 H         1 UNK         0.0600 
    213 H213       -7.5061  -25.1495  -44.3159 H         1 UNK         0.0600 
    214 H214       -8.1641  -23.5400  -44.1179 H         1 UNK         0.0600 
    215 H215       -6.6116  -26.2624  -45.7104 H         1 UNK         0.3000 
    216 H216       -5.0792  -27.6849  -46.2735 H         1 UNK         0.0600 
    217 H217       -3.4041  -25.9685  -45.7931 H         1 UNK         0.0600 
    218 H218       -3.4893  -25.3455  -47.4337 H         1 UNK         0.0600 
    219 H219       -2.8606  -26.9583  -47.1389 H         1 UNK         0.0600 
    220 H220       -5.4953  -25.5603  -49.1616 H         1 UNK         0.3000 
    221 H221       -6.3701  -27.6673  -50.8737 H         1 UNK         0.0600 
    222 H222       -4.3749  -27.8444  -52.3609 H         1 UNK         0.0600 
    223 H223       -3.4769  -26.7191  -51.3445 H         1 UNK         0.0600 
    224 H224       -3.9036  -28.3195  -50.7511 H         1 UNK         0.0600 
    225 H225       -5.2831  -26.4250  -53.2713 H         1 UNK         0.3000 
    226 H226       -6.6389  -23.7850  -53.3805 H         1 UNK         0.0600 
    227 H227       -7.0519  -25.3743  -55.2713 H         1 UNK         0.0600 
    228 H228       -6.1470  -23.9709  -55.8186 H         1 UNK         0.0600 
    229 H229       -5.3167  -25.5004  -55.5615 H         1 UNK         0.0600 
    230 H230       -5.3873  -21.9262  -53.9021 H         1 UNK         0.3000 
    231 H231       -3.0088  -21.6190  -52.5010 H         1 UNK         0.0600 
    232 H232       -2.9648  -19.3541  -53.5485 H         1 UNK         0.0600 
    233 H233       -4.5850  -19.7707  -53.0157 H         1 UNK         0.0600 
    234 H234       -4.1691  -19.8614  -54.7269 H         1 UNK         0.0600 
    235 H235       -0.8919  -21.7929  -52.8965 H         1 UNK         0.3000 
    236 H236        0.1676  -23.1307  -55.1001 H         1 UNK         0.0600 
    237 H237        1.5398  -21.3511  -53.0210 H         1 UNK         0.0600 
    238 H238        1.2452  -23.0808  -52.8936 H         1 UNK         0.0600 
    239 H239        2.3797  -22.4704  -54.0878 H         1 UNK         0.0600 
    240 H240       -0.4926  -19.7247  -54.8579 H         1 UNK         0.3000 
    241 H241        1.1496  -18.9676  -57.1664 H         1 UNK         0.0600 
    242 H242       -2.3899  -20.2121  -58.5840 H         1 UNK         0.3800 
    243 H243       -1.8338  -20.7091  -57.0078 H         1 UNK         0.3800 
    244 H244       -0.9223  -17.3420  -55.6126 H         1 UNK         0.0800 
    245 H245        0.0369  -16.7288  -56.9319 H         1 UNK         0.0800 
    246 H246       -0.0608  -16.2073  -53.2959 H         1 UNK         0.0800 
    247 H247       -0.0455  -17.9562  -53.3208 H         1 UNK         0.0800 
@<TRIPOS>BOND
     1    1    2 1    
     2    1  127 1    
     3    1  128 1    
     4    1  129 1    
     5    2    3 2    
     6    2    4 am   BACKBONE|DICT|INTERRES
     7    4    5 1    
     8    4  130 1    
     9    5    6 1    
    10    5   65 1    
    11    5  131 1    
    12    6    7 1    
    13    6  132 1    
    14    6  133 1    
    15    7    8 1    
    16    8    9 1    
    17    8  134 1    
    18    8  135 1    
    19    9   10 ar   
    20    9   14 ar   
    21   10   11 ar   
    22   10  136 1    
    23   11   12 ar   
    24   11  126 1    
    25   12   13 ar   
    26   12  137 1    
    27   13   14 ar   
    28   13   15 1    
    29   14  138 1    
    30   15   16 1    
    31   15  139 1    
    32   15  140 1    
    33   16   17 1    
    34   17   18 1    
    35   17  141 1    
    36   17  142 1    
    37   18   19 1    
    38   18   67 1    
    39   18  143 1    
    40   19   20 am   BACKBONE|DICT|INTERRES
    41   19  144 1    
    42   20   21 2    
    43   20   22 1    
    44   22   23 1    
    45   22   24 1    
    46   22  145 1    
    47   23  146 1    
    48   23  147 1    
    49   23  148 1    
    50   24   25 am   BACKBONE|DICT|INTERRES
    51   24  149 1    
    52   25   26 2    
    53   25   27 1    
    54   27   28 1    
    55   27   29 1    
    56   27  150 1    
    57   28  151 1    
    58   28  152 1    
    59   28  153 1    
    60   29   30 am   BACKBONE|DICT|INTERRES
    61   29  154 1    
    62   30   31 2    
    63   30   32 1    
    64   32   33 1    
    65   32   34 1    
    66   32  155 1    
    67   33  156 1    
    68   33  157 1    
    69   33  158 1    
    70   34   35 am   BACKBONE|DICT|INTERRES
    71   34  159 1    
    72   35   36 2    
    73   35   37 1    
    74   37   38 1    
    75   37   39 1    
    76   37  160 1    
    77   38  161 1    
    78   38  162 1    
    79   38  163 1    
    80   39   40 am   BACKBONE|DICT|INTERRES
    81   39  164 1    
    82   40   41 2    
    83   40   42 1    
    84   42   43 1    
    85   42   44 1    
    86   42  165 1    
    87   43  166 1    
    88   43  167 1    
    89   43  168 1    
    90   44   45 am   BACKBONE|DICT|INTERRES
    91   44  169 1    
    92   45   46 2    
    93   45   47 1    
    94   47   48 1    
    95   47   49 1    
    96   47  170 1    
    97   48  171 1    
    98   48  172 1    
    99   48  173 1    
   100   49   50 am   BACKBONE|DICT|INTERRES
   101   49  174 1    
   102   50   51 2    
   103   50   52 1    
   104   52   53 1    
   105   52   54 1    
   106   52  175 1    
   107   53  176 1    
   108   53  177 1    
   109   53  178 1    
   110   54   55 am   BACKBONE|DICT|INTERRES
   111   54  179 1    
   112   55   56 2    
   113   55   57 1    
   114   57   58 1    
   115   57   59 1    
   116   57  180 1    
   117   58  181 1    
   118   58  182 1    
   119   58  183 1    
   120   59   60 am   BACKBONE|DICT|INTERRES
   121   59  184 1    
   122   60   61 2    
   123   60   62 1    
   124   62   63 1    
   125   62   64 1    
   126   62  185 1    
   127   63  186 1    
   128   63  187 1    
   129   63  188 1    
   130   64   65 am   BACKBONE|DICT|INTERRES
   131   64  189 1    
   132   65   66 2    
   133   67   68 2    
   134   67   69 am   BACKBONE|DICT|INTERRES
   135   69   70 1    
   136   69  190 1    
   137   70   71 1    
   138   70   72 1    
   139   70  191 1    
   140   71  192 1    
   141   71  193 1    
   142   71  194 1    
   143   72   73 2    
   144   72   74 am   BACKBONE|DICT|INTERRES
   145   74   75 1    
   146   74  195 1    
   147   75   76 1    
   148   75   77 1    
   149   75  196 1    
   150   76  197 1    
   151   76  198 1    
   152   76  199 1    
   153   77   78 2    
   154   77   79 am   BACKBONE|DICT|INTERRES
   155   79   80 1    
   156   79  200 1    
   157   80   81 1    
   158   80   82 1    
   159   80  201 1    
   160   81  202 1    
   161   81  203 1    
   162   81  204 1    
   163   82   83 2    
   164   82   84 am   BACKBONE|DICT|INTERRES
   165   84   85 1    
   166   84  205 1    
   167   85   86 1    
   168   85   87 1    
   169   85  206 1    
   170   86  207 1    
   171   86  208 1    
   172   86  209 1    
   173   87   88 2    
   174   87   89 am   BACKBONE|DICT|INTERRES
   175   89   90 1    
   176   89  210 1    
   177   90   91 1    
   178   90   92 1    
   179   90  211 1    
   180   91  212 1    
   181   91  213 1    
   182   91  214 1    
   183   92   93 2    
   184   92   94 am   BACKBONE|DICT|INTERRES
   185   94   95 1    
   186   94  215 1    
   187   95   96 1    
   188   95   97 1    
   189   95  216 1    
   190   96  217 1    
   191   96  218 1    
   192   96  219 1    
   193   97   98 2    
   194   97   99 am   BACKBONE|DICT|INTERRES
   195   99  100 1    
   196   99  220 1    
   197  100  101 1    
   198  100  102 1    
   199  100  221 1    
   200  101  222 1    
   201  101  223 1    
   202  101  224 1    
   203  102  103 2    
   204  102  104 am   BACKBONE|DICT|INTERRES
   205  104  105 1    
   206  104  225 1    
   207  105  106 1    
   208  105  107 1    
   209  105  226 1    
   210  106  227 1    
   211  106  228 1    
   212  106  229 1    
   213  107  108 2    
   214  107  109 am   BACKBONE|DICT|INTERRES
   215  109  110 1    
   216  109  230 1    
   217  110  111 1    
   218  110  112 1    
   219  110  231 1    
   220  111  232 1    
   221  111  233 1    
   222  111  234 1    
   223  112  113 2    
   224  112  114 am   BACKBONE|DICT|INTERRES
   225  114  115 1    
   226  114  235 1    
   227  115  116 1    
   228  115  117 1    
   229  115  236 1    
   230  116  237 1    
   231  116  238 1    
   232  116  239 1    
   233  117  118 2    
   234  117  119 am   BACKBONE|DICT|INTERRES
   235  119  120 1    
   236  119  240 1    
   237  120  121 1    
   238  120  124 1    
   239  120  241 1    
   240  121  122 am   BACKBONE|DICT|INTERRES
   241  121  123 2    
   242  122  242 1    
   243  122  243 1    
   244  124  125 1    
   245  124  244 1    
   246  124  245 1    
   247  125  126 1    
   248  126  246 1    
   249  126  247 1    
@<TRIPOS>SUBSTRUCTURE
     1 UNK         1 GROUP             0       ****    0 ROOT    
