@<TRIPOS>MOLECULE
3R540
247   249    1
SMALL
USER_CHARGES


@<TRIPOS>ATOM
      1 CA          2.6459  -11.5895  -50.4137 C.3       0 UNK        -0.1800 
      2 C           1.7564  -12.2510  -49.3723 C.2       0 UNK         0.5000 
      3 O           1.7877  -11.8601  -48.2061 O.2       0 UNK        -0.5000 
      4 N           0.9497  -13.2356  -49.7903 N.am      1 UNK        -0.5000 
      5 CA          0.0582  -14.0492  -48.9479 C.3       1 UNK         0.1400 
      6 C6         -0.6590  -15.1460  -49.7721 C.3       23 UNK        -0.0398 
      7 S7          0.4948  -16.3126  -50.5739 S.3       23 UNK        -0.2404 
      8 C8          0.3055  -17.7568  -49.4843 C.3       23 UNK        -0.0205 
      9 C9          0.8953  -19.0229  -50.0804 C.ar      23 UNK        -0.0193 
     10 C10         0.3518  -19.5617  -51.2486 C.ar      23 UNK        -0.1150 
     11 C11         0.8751  -20.7303  -51.8076 C.ar      23 UNK        -0.0193 
     12 C12         1.9229  -21.3884  -51.1585 C.ar      23 UNK        -0.1150 
     13 C13         2.4448  -20.8838  -49.9635 C.ar      23 UNK        -0.0193 
     14 C14         1.9437  -19.6881  -49.4405 C.ar      23 UNK        -0.1150 
     15 C15         3.5254  -21.6511  -49.2199 C.3       23 UNK        -0.0205 
     16 S16         2.8289  -23.0737  -48.3206 S.3       23 UNK        -0.2404 
     17 C17         1.8012  -22.2421  -47.0601 C.3       23 UNK        -0.0398 
     18 CA          1.0886  -23.2438  -46.1200 C.3       11 UNK         0.1400 
     19 N           0.8172  -22.6623  -44.8018 N.am      11 UNK        -0.5000 
     20 C           0.4666  -23.3596  -43.7115 C.2       10 UNK         0.5000 
     21 O           0.3005  -24.5800  -43.7062 O.2       10 UNK        -0.5000 
     22 CA          0.2368  -22.5531  -42.4203 C.3       10 UNK         0.1400 
     23 CB          1.5701  -22.1170  -41.7935 C.3       10 UNK        -0.1800 
     24 N          -0.6067  -21.3813  -42.6533 N.am      10 UNK        -0.5000 
     25 C          -1.9227  -21.4441  -42.8994 C.2       9 UNK         0.5000 
     26 O          -2.5716  -22.4894  -42.8671 O.2       9 UNK        -0.5000 
     27 CA         -2.6357  -20.1275  -43.2617 C.3       9 UNK         0.1400 
     28 CB         -3.1270  -19.4131  -41.9942 C.3       9 UNK        -0.1800 
     29 N          -1.8042  -19.2116  -44.0438 N.am      9 UNK        -0.5000 
     30 C          -1.3386  -19.4659  -45.2748 C.2       8 UNK         0.5000 
     31 O          -1.5769  -20.4983  -45.8984 O.2       8 UNK        -0.5000 
     32 CA         -0.3997  -18.4156  -45.8903 C.3       8 UNK         0.1400 
     33 CB         -1.1889  -17.1991  -46.3965 C.3       8 UNK        -0.1800 
     34 N           0.6329  -17.9727  -44.9556 N.am      8 UNK        -0.5000 
     35 C           1.5540  -18.7709  -44.3984 C.2       7 UNK         0.5000 
     36 O           1.6622  -19.9696  -44.6484 O.2       7 UNK        -0.5000 
     37 CA          2.4728  -18.1366  -43.3435 C.3       7 UNK         0.1400 
     38 CB          3.6430  -17.3989  -44.0096 C.3       7 UNK        -0.1800 
     39 N           1.7352  -17.2233  -42.4715 N.am      7 UNK        -0.5000 
     40 C           0.8387  -17.6194  -41.5563 C.2       6 UNK         0.5000 
     41 O           0.5785  -18.7993  -41.3192 O.2       6 UNK        -0.5000 
     42 CA          0.0777  -16.5067  -40.8125 C.3       6 UNK         0.1400 
     43 CB          0.9115  -15.9665  -39.6412 C.3       6 UNK        -0.1800 
     44 N          -0.2979  -15.3999  -41.6945 N.am      6 UNK        -0.5000 
     45 C          -1.1942  -15.4991  -42.6861 C.2       5 UNK         0.5000 
     46 O          -1.8221  -16.5273  -42.9360 O.2       5 UNK        -0.5000 
     47 CA         -1.3930  -14.2568  -43.5731 C.3       5 UNK         0.1400 
     48 CB         -2.4614  -13.3277  -42.9796 C.3       5 UNK        -0.1800 
     49 N          -0.1664  -13.4921  -43.8060 N.am      5 UNK        -0.5000 
     50 C           0.9300  -13.9541  -44.4208 C.2       4 UNK         0.5000 
     51 O           1.0657  -15.1270  -44.7724 O.2       4 UNK        -0.5000 
     52 CA          2.0480  -12.9265  -44.6893 C.3       4 UNK         0.1400 
     53 CB          3.2087  -13.5134  -45.5118 C.3       4 UNK        -0.1800 
     54 N           1.5312  -11.7533  -45.3915 N.am      4 UNK        -0.5000 
     55 C           0.9299  -10.7003  -44.8241 C.2       3 UNK         0.5000 
     56 O           0.7276  -10.6023  -43.6132 O.2       3 UNK        -0.5000 
     57 CA          0.4304   -9.6049  -45.7770 C.3       3 UNK         0.1400 
     58 CB          1.6042   -8.7985  -46.3557 C.3       3 UNK        -0.1800 
     59 N          -0.3412  -10.1958  -46.8683 N.am      3 UNK        -0.5000 
     60 C          -1.6646  -10.4037  -46.8353 C.2       2 UNK         0.5000 
     61 O          -2.3890  -10.0579  -45.9014 O.2       2 UNK        -0.5000 
     62 CA         -2.2907  -11.1175  -48.0499 C.3       2 UNK         0.1400 
     63 CB         -2.7700  -10.0918  -49.0883 C.3       2 UNK        -0.1800 
     64 N          -1.3749  -12.0583  -48.6964 N.am      2 UNK        -0.5000 
     65 C          -0.9870  -13.2253  -48.1626 C.2       1 UNK         0.5000 
     66 O          -1.4138  -13.6560  -47.0923 O.2       1 UNK        -0.5000 
     67 C          -0.1675  -23.8554  -46.7778 C.2       11 UNK         0.5000 
     68 O          -0.0334  -24.8026  -47.5520 O.2       11 UNK        -0.5000 
     69 N          -1.3661  -23.3649  -46.4223 N.am      12 UNK        -0.5000 
     70 CA         -2.6746  -23.8616  -46.8681 C.3       12 UNK         0.1400 
     71 CB         -3.7894  -23.0386  -46.2073 C.3       12 UNK        -0.1800 
     72 C          -2.9185  -25.3659  -46.6296 C.2       12 UNK         0.5000 
     73 O          -3.7396  -25.9544  -47.3306 O.2       12 UNK        -0.5000 
     74 N          -2.1830  -25.9770  -45.6902 N.am      13 UNK        -0.5000 
     75 CA         -2.1577  -27.4235  -45.4664 C.3       13 UNK         0.1400 
     76 CB         -1.3688  -27.7127  -44.1808 C.3       13 UNK        -0.1800 
     77 C          -1.5685  -28.2211  -46.6513 C.2       13 UNK         0.5000 
     78 O          -1.9427  -29.3796  -46.8373 O.2       13 UNK        -0.5000 
     79 N          -0.6722  -27.5948  -47.4265 N.am      14 UNK        -0.5000 
     80 CA         -0.0408  -28.1619  -48.6185 C.3       14 UNK         0.1400 
     81 CB          1.4810  -27.9717  -48.5158 C.3       14 UNK        -0.1800 
     82 C          -0.5766  -27.5021  -49.9008 C.2       14 UNK         0.5000 
     83 O          -0.8042  -28.1972  -50.8912 O.2       14 UNK        -0.5000 
     84 N          -0.7803  -26.1777  -49.8611 N.am      15 UNK        -0.5000 
     85 CA         -1.2643  -25.3597  -50.9766 C.3       15 UNK         0.1400 
     86 CB         -0.9173  -23.8892  -50.6933 C.3       15 UNK        -0.1800 
     87 C          -2.7725  -25.5121  -51.2602 C.2       15 UNK         0.5000 
     88 O          -3.2354  -25.0442  -52.2997 O.2       15 UNK        -0.5000 
     89 N          -3.5084  -26.1305  -50.3256 N.am      16 UNK        -0.5000 
     90 CA         -4.9540  -26.3936  -50.3012 C.3       16 UNK         0.1400 
     91 CB         -5.4264  -27.1340  -51.5686 C.3       16 UNK        -0.1800 
     92 C          -5.8284  -25.1591  -49.9986 C.2       16 UNK         0.5000 
     93 O          -7.0077  -25.3289  -49.6851 O.2       16 UNK        -0.5000 
     94 N          -5.2550  -23.9529  -50.0588 N.am      17 UNK        -0.5000 
     95 CA         -5.8905  -22.6855  -49.7258 C.3       17 UNK         0.1400 
     96 CB         -6.8005  -22.2288  -50.8801 C.3       17 UNK        -0.1800 
     97 C          -4.7955  -21.6469  -49.4536 C.2       17 UNK         0.5000 
     98 O          -3.6986  -21.7585  -50.0054 O.2       17 UNK        -0.5000 
     99 N          -5.1206  -20.6506  -48.6215 N.am      18 UNK        -0.5000 
    100 CA        -4.2509  -19.5096  -48.3188 C.3       18 UNK         0.1400 
    101 CB        -4.6758  -18.9144  -46.9660 C.3       18 UNK        -0.1800 
    102 C         -4.2936  -18.4298  -49.4197 C.2       18 UNK         0.5000 
    103 O         -3.3375  -17.6706  -49.5658 O.2       18 UNK        -0.5000 
    104 N         -5.4032  -18.3792  -50.1642 N.am      19 UNK        -0.5000 
    105 CA        -5.6856  -17.4782  -51.2754 C.3       19 UNK         0.1400 
    106 CB        -5.9740  -16.0600  -50.7458 C.3       19 UNK        -0.1800 
    107 C         -6.9104  -18.0545  -52.0142 C.2       19 UNK         0.5000 
    108 O         -7.7037  -18.7539  -51.3819 O.2       19 UNK        -0.5000 
    109 N         -7.1081  -17.8025  -53.3155 N.am      20 UNK        -0.5000 
    110 CA        -6.2791  -17.0176  -54.2379 C.3       20 UNK         0.1400 
    111 CB        -7.1928  -16.4440  -55.3343 C.3       20 UNK        -0.1800 
    112 C         -5.1121  -17.8188  -54.8555 C.2       20 UNK         0.5000 
    113 O         -4.4390  -17.3062  -55.7523 O.2       20 UNK        -0.5000 
    114 N         -4.8855  -19.0507  -54.3722 N.am      21 UNK        -0.5000 
    115 CA        -3.7653  -19.9258  -54.7286 C.3       21 UNK         0.1400 
    116 CB        -3.8033  -21.1740  -53.8312 C.3       21 UNK        -0.1800 
    117 C         -2.4033  -19.2138  -54.6055 C.2       21 UNK         0.5000 
    118 O         -2.1665  -18.5271  -53.6105 O.2       21 UNK        -0.5000 
    119 N         -1.5599  -19.3751  -55.6318 N.am      22 UNK        -0.5000 
    120 CA        -0.2675  -18.6874  -55.8199 C.3       22 UNK         0.1400 
    121 C         -0.3711  -17.1529  -56.0959 C.2       22 UNK         0.5000 
    122 N         -1.5521  -16.5667  -56.2579 N.am      22 UNK        -0.7600 
    123 O          0.6487  -16.4782  -56.2103 O.2       22 UNK        -0.5000 
    124 C124        0.7815  -19.0069  -54.7158 C.3       23 UNK        -0.0398 
    125 S125        1.1824  -20.7853  -54.5816 S.3       23 UNK        -0.2404 
    126 C126        0.2809  -21.3041  -53.0855 C.3       23 UNK        -0.0205 
    127 H127        3.6937  -11.7044  -50.1367 H         1 UNK         0.0600 
    128 H128        2.4230  -10.5243  -50.4740 H         1 UNK         0.0600 
    129 H129        2.5050  -12.0246  -51.4034 H         1 UNK         0.0600 
    130 H130        0.9825  -13.5110  -50.7618 H         1 UNK         0.3000 
    131 H131        0.6870  -14.5407  -48.2021 H         1 UNK         0.0600 
    132 H132       -1.3556  -15.7061  -49.1455 H         1 UNK         0.0800 
    133 H133       -1.2708  -14.6928  -50.5542 H         1 UNK         0.0800 
    134 H134       -0.7504  -17.9401  -49.2895 H         1 UNK         0.0800 
    135 H135        0.7757  -17.5240  -48.5290 H         1 UNK         0.0800 
    136 H136       -0.4807  -19.0613  -51.7221 H         1 UNK         0.1150 
    137 H137        2.3137  -22.3097  -51.5673 H         1 UNK         0.1150 
    138 H138        2.3483  -19.2944  -48.5185 H         1 UNK         0.1150 
    139 H139        4.2707  -22.0104  -49.9309 H         1 UNK         0.0800 
    140 H140        4.0553  -21.0010  -48.5219 H         1 UNK         0.0800 
    141 H141        1.0817  -21.5722  -47.5339 H         1 UNK         0.0800 
    142 H142        2.4767  -21.6064  -46.4873 H         1 UNK         0.0800 
    143 H143        1.7754  -24.0739  -45.9393 H         1 UNK         0.0600 
    144 H144        0.9633  -21.6582  -44.7155 H         1 UNK         0.3000 
    145 H145       -0.2701  -23.2047  -41.7054 H         1 UNK         0.0600 
    146 H146        1.4084  -21.5960  -40.8496 H         1 UNK         0.0600 
    147 H147        2.2031  -22.9802  -41.5849 H         1 UNK         0.0600 
    148 H148        2.1303  -21.4504  -42.4490 H         1 UNK         0.0600 
    149 H149       -0.1509  -20.4774  -42.6503 H         1 UNK         0.3000 
    150 H150       -3.5070  -20.3833  -43.8680 H         1 UNK         0.0600 
    151 H151       -3.7591  -20.0689  -41.3942 H         1 UNK         0.0600 
    152 H152       -3.7174  -18.5313  -42.2435 H         1 UNK         0.0600 
    153 H153       -2.2947  -19.0918  -41.3668 H         1 UNK         0.0600 
    154 H154       -1.5991  -18.3117  -43.6175 H         1 UNK         0.3000 
    155 H155        0.1051  -18.8827  -46.7374 H         1 UNK         0.0600 
    156 H156       -1.8071  -16.7601  -45.6146 H         1 UNK         0.0600 
    157 H157       -0.5251  -16.4187  -46.7677 H         1 UNK         0.0600 
    158 H158       -1.8512  -17.4796  -47.2140 H         1 UNK         0.0600 
    159 H159        0.6543  -16.9805  -44.7341 H         1 UNK         0.3000 
    160 H160        2.8849  -18.9390  -42.7279 H         1 UNK         0.0600 
    161 H161        4.2551  -18.0906  -44.5897 H         1 UNK         0.0600 
    162 H162        3.2956  -16.6239  -44.6919 H         1 UNK         0.0600 
    163 H163        4.2920  -16.9321  -43.2687 H         1 UNK         0.0600 
    164 H164        1.8457  -16.2361  -42.6496 H         1 UNK         0.3000 
    165 H165       -0.8372  -16.9441  -40.4068 H         1 UNK         0.0600 
    166 H166        0.3496  -15.2328  -39.0631 H         1 UNK         0.0600 
    167 H167        1.1918  -16.7705  -38.9592 H         1 UNK         0.0600 
    168 H168        1.8313  -15.4913  -39.9843 H         1 UNK         0.0600 
    169 H169        0.1747  -14.5187  -41.5572 H         1 UNK         0.3000 
    170 H170       -1.7501  -14.6035  -44.5441 H         1 UNK         0.0600 
    171 H171       -3.3975  -13.8632  -42.8155 H         1 UNK         0.0600 
    172 H172       -2.1469  -12.9117  -42.0217 H         1 UNK         0.0600 
    173 H173       -2.6767  -12.4970  -43.6526 H         1 UNK         0.0600 
    174 H174       -0.1818  -12.5114  -43.5521 H         1 UNK         0.3000 
    175 H175        2.4477  -12.6177  -43.7213 H         1 UNK         0.0600 
    176 H176        2.8653  -13.9067  -46.4698 H         1 UNK         0.0600 
    177 H177        3.9691  -12.7592  -45.7147 H         1 UNK         0.0600 
    178 H178        3.6974  -14.3257  -44.9744 H         1 UNK         0.0600 
    179 H179        1.6240  -11.7710  -46.4055 H         1 UNK         0.3000 
    180 H180       -0.1979   -8.9177  -45.2060 H         1 UNK         0.0600 
    181 H181        2.2737   -9.4206  -46.9508 H         1 UNK         0.0600 
    182 H182        2.1968   -8.3473  -45.5589 H         1 UNK         0.0600 
    183 H183        1.2471   -7.9894  -46.9930 H         1 UNK         0.0600 
    184 H184        0.1923  -10.5758  -47.6403 H         1 UNK         0.3000 
    185 H185       -3.1603  -11.6745  -47.6943 H         1 UNK         0.0600 
    186 H186       -3.2795  -10.5800  -49.9192 H         1 UNK         0.0600 
    187 H187       -3.4753   -9.3878  -48.6446 H         1 UNK         0.0600 
    188 H188       -1.9403   -9.5124  -49.4954 H         1 UNK         0.0600 
    189 H189       -0.9785  -11.7775  -49.5814 H         1 UNK         0.3000 
    190 H190       -1.3832  -22.5297  -45.8464 H         1 UNK         0.3000 
    191 H191       -2.7333  -23.6968  -47.9441 H         1 UNK         0.0600 
    192 H192       -3.7848  -23.1540  -45.1239 H         1 UNK         0.0600 
    193 H193       -4.7712  -23.3510  -46.5655 H         1 UNK         0.0600 
    194 H194       -3.6873  -21.9786  -46.4338 H         1 UNK         0.0600 
    195 H195       -1.5295  -25.4232  -45.1519 H         1 UNK         0.3000 
    196 H196       -3.1863  -27.7600  -45.3210 H         1 UNK         0.0600 
    197 H197       -1.3559  -28.7810  -43.9610 H         1 UNK         0.0600 
    198 H198       -1.8141  -27.2094  -43.3225 H         1 UNK         0.0600 
    199 H199       -0.3328  -27.3807  -44.2628 H         1 UNK         0.0600 
    200 H200       -0.4430  -26.6267  -47.2219 H         1 UNK         0.3000 
    201 H201       -0.2427  -29.2328  -48.6869 H         1 UNK         0.0600 
    202 H202        1.8816  -28.4819  -47.6398 H         1 UNK         0.0600 
    203 H203        1.7533  -26.9177  -48.4420 H         1 UNK         0.0600 
    204 H204        1.9863  -28.3819  -49.3910 H         1 UNK         0.0600 
    205 H205       -0.5213  -25.6710  -49.0165 H         1 UNK         0.3000 
    206 H206       -0.7353  -25.6640  -51.8820 H         1 UNK         0.0600 
    207 H207        0.1606  -23.7458  -50.6182 H         1 UNK         0.0600 
    208 H208       -1.2824  -23.2378  -51.4875 H         1 UNK         0.0600 
    209 H209       -1.3627  -23.5371  -49.7644 H         1 UNK         0.0600 
    210 H210       -3.0278  -26.4171  -49.4830 H         1 UNK         0.3000 
    211 H211       -5.1038  -27.0735  -49.4613 H         1 UNK         0.0600 
    212 H212       -5.3982  -26.4946  -52.4510 H         1 UNK         0.0600 
    213 H213       -6.4549  -27.4781  -51.4546 H         1 UNK         0.0600 
    214 H214       -4.8108  -28.0115  -51.7668 H         1 UNK         0.0600 
    215 H215       -4.2842  -23.8752  -50.3337 H         1 UNK         0.3000 
    216 H216       -6.4836  -22.8151  -48.8179 H         1 UNK         0.0600 
    217 H217       -7.3053  -21.2956  -50.6316 H         1 UNK         0.0600 
    218 H218       -7.5764  -22.9637  -51.0940 H         1 UNK         0.0600 
    219 H219       -6.2337  -22.0648  -51.7973 H         1 UNK         0.0600 
    220 H220       -6.0374  -20.6403  -48.1982 H         1 UNK         0.3000 
    221 H221       -3.2185  -19.8567  -48.2314 H         1 UNK         0.0600 
    222 H222       -5.7179  -18.5932  -46.9767 H         1 UNK         0.0600 
    223 H223       -4.5557  -19.6398  -46.1615 H         1 UNK         0.0600 
    224 H224       -4.0723  -18.0445  -46.7078 H         1 UNK         0.0600 
    225 H225       -6.1485  -19.0417  -49.9903 H         1 UNK         0.3000 
    226 H226       -4.8175  -17.4640  -51.9358 H         1 UNK         0.0600 
    227 H227       -5.1007  -15.6351  -50.2508 H         1 UNK         0.0600 
    228 H228       -6.2483  -15.3798  -51.5520 H         1 UNK         0.0600 
    229 H229       -6.7954  -16.0620  -50.0284 H         1 UNK         0.0600 
    230 H230       -7.9269  -18.2128  -53.7403 H         1 UNK         0.3000 
    231 H231       -5.8376  -16.1738  -53.7070 H         1 UNK         0.0600 
    232 H232       -6.6378  -15.7939  -56.0121 H         1 UNK         0.0600 
    233 H233       -7.9968  -15.8460  -54.9046 H         1 UNK         0.0600 
    234 H234       -7.6457  -17.2341  -55.9346 H         1 UNK         0.0600 
    235 H235       -5.5115  -19.4004  -53.6637 H         1 UNK         0.3000 
    236 H236       -3.9122  -20.2370  -55.7648 H         1 UNK         0.0600 
    237 H237       -4.7436  -21.7144  -53.9409 H         1 UNK         0.0600 
    238 H238       -3.0018  -21.8673  -54.0895 H         1 UNK         0.0600 
    239 H239       -3.6850  -20.9160  -52.7774 H         1 UNK         0.0600 
    240 H240       -1.8493  -19.9529  -56.4079 H         1 UNK         0.3000 
    241 H241        0.1264  -19.0933  -56.7523 H         1 UNK         0.0600 
    242 H242       -2.4220  -17.0739  -56.1430 H         1 UNK         0.3800 
    243 H243       -1.5830  -15.5788  -56.4528 H         1 UNK         0.3800 
    244 H244        1.7233  -18.5020  -54.9361 H         1 UNK         0.0800 
    245 H245        0.4612  -18.6068  -53.7566 H         1 UNK         0.0800 
    246 H246       -0.7708  -21.0341  -53.1670 H         1 UNK         0.0800 
    247 H247        0.3073  -22.3932  -53.0394 H         1 UNK         0.0800 
@<TRIPOS>BOND
     1    1    2 1    
     2    1  127 1    
     3    1  128 1    
     4    1  129 1    
     5    2    3 2    
     6    2    4 am   BACKBONE|DICT|INTERRES
     7    4    5 1    
     8    4  130 1    
     9    5    6 1    
    10    5   65 1    
    11    5  131 1    
    12    6    7 1    
    13    6  132 1    
    14    6  133 1    
    15    7    8 1    
    16    8    9 1    
    17    8  134 1    
    18    8  135 1    
    19    9   10 ar   
    20    9   14 ar   
    21   10   11 ar   
    22   10  136 1    
    23   11   12 ar   
    24   11  126 1    
    25   12   13 ar   
    26   12  137 1    
    27   13   14 ar   
    28   13   15 1    
    29   14  138 1    
    30   15   16 1    
    31   15  139 1    
    32   15  140 1    
    33   16   17 1    
    34   17   18 1    
    35   17  141 1    
    36   17  142 1    
    37   18   19 1    
    38   18   67 1    
    39   18  143 1    
    40   19   20 am   BACKBONE|DICT|INTERRES
    41   19  144 1    
    42   20   21 2    
    43   20   22 1    
    44   22   23 1    
    45   22   24 1    
    46   22  145 1    
    47   23  146 1    
    48   23  147 1    
    49   23  148 1    
    50   24   25 am   BACKBONE|DICT|INTERRES
    51   24  149 1    
    52   25   26 2    
    53   25   27 1    
    54   27   28 1    
    55   27   29 1    
    56   27  150 1    
    57   28  151 1    
    58   28  152 1    
    59   28  153 1    
    60   29   30 am   BACKBONE|DICT|INTERRES
    61   29  154 1    
    62   30   31 2    
    63   30   32 1    
    64   32   33 1    
    65   32   34 1    
    66   32  155 1    
    67   33  156 1    
    68   33  157 1    
    69   33  158 1    
    70   34   35 am   BACKBONE|DICT|INTERRES
    71   34  159 1    
    72   35   36 2    
    73   35   37 1    
    74   37   38 1    
    75   37   39 1    
    76   37  160 1    
    77   38  161 1    
    78   38  162 1    
    79   38  163 1    
    80   39   40 am   BACKBONE|DICT|INTERRES
    81   39  164 1    
    82   40   41 2    
    83   40   42 1    
    84   42   43 1    
    85   42   44 1    
    86   42  165 1    
    87   43  166 1    
    88   43  167 1    
    89   43  168 1    
    90   44   45 am   BACKBONE|DICT|INTERRES
    91   44  169 1    
    92   45   46 2    
    93   45   47 1    
    94   47   48 1    
    95   47   49 1    
    96   47  170 1    
    97   48  171 1    
    98   48  172 1    
    99   48  173 1    
   100   49   50 am   BACKBONE|DICT|INTERRES
   101   49  174 1    
   102   50   51 2    
   103   50   52 1    
   104   52   53 1    
   105   52   54 1    
   106   52  175 1    
   107   53  176 1    
   108   53  177 1    
   109   53  178 1    
   110   54   55 am   BACKBONE|DICT|INTERRES
   111   54  179 1    
   112   55   56 2    
   113   55   57 1    
   114   57   58 1    
   115   57   59 1    
   116   57  180 1    
   117   58  181 1    
   118   58  182 1    
   119   58  183 1    
   120   59   60 am   BACKBONE|DICT|INTERRES
   121   59  184 1    
   122   60   61 2    
   123   60   62 1    
   124   62   63 1    
   125   62   64 1    
   126   62  185 1    
   127   63  186 1    
   128   63  187 1    
   129   63  188 1    
   130   64   65 am   BACKBONE|DICT|INTERRES
   131   64  189 1    
   132   65   66 2    
   133   67   68 2    
   134   67   69 am   BACKBONE|DICT|INTERRES
   135   69   70 1    
   136   69  190 1    
   137   70   71 1    
   138   70   72 1    
   139   70  191 1    
   140   71  192 1    
   141   71  193 1    
   142   71  194 1    
   143   72   73 2    
   144   72   74 am   BACKBONE|DICT|INTERRES
   145   74   75 1    
   146   74  195 1    
   147   75   76 1    
   148   75   77 1    
   149   75  196 1    
   150   76  197 1    
   151   76  198 1    
   152   76  199 1    
   153   77   78 2    
   154   77   79 am   BACKBONE|DICT|INTERRES
   155   79   80 1    
   156   79  200 1    
   157   80   81 1    
   158   80   82 1    
   159   80  201 1    
   160   81  202 1    
   161   81  203 1    
   162   81  204 1    
   163   82   83 2    
   164   82   84 am   BACKBONE|DICT|INTERRES
   165   84   85 1    
   166   84  205 1    
   167   85   86 1    
   168   85   87 1    
   169   85  206 1    
   170   86  207 1    
   171   86  208 1    
   172   86  209 1    
   173   87   88 2    
   174   87   89 am   BACKBONE|DICT|INTERRES
   175   89   90 1    
   176   89  210 1    
   177   90   91 1    
   178   90   92 1    
   179   90  211 1    
   180   91  212 1    
   181   91  213 1    
   182   91  214 1    
   183   92   93 2    
   184   92   94 am   BACKBONE|DICT|INTERRES
   185   94   95 1    
   186   94  215 1    
   187   95   96 1    
   188   95   97 1    
   189   95  216 1    
   190   96  217 1    
   191   96  218 1    
   192   96  219 1    
   193   97   98 2    
   194   97   99 am   BACKBONE|DICT|INTERRES
   195   99  100 1    
   196   99  220 1    
   197  100  101 1    
   198  100  102 1    
   199  100  221 1    
   200  101  222 1    
   201  101  223 1    
   202  101  224 1    
   203  102  103 2    
   204  102  104 am   BACKBONE|DICT|INTERRES
   205  104  105 1    
   206  104  225 1    
   207  105  106 1    
   208  105  107 1    
   209  105  226 1    
   210  106  227 1    
   211  106  228 1    
   212  106  229 1    
   213  107  108 2    
   214  107  109 am   BACKBONE|DICT|INTERRES
   215  109  110 1    
   216  109  230 1    
   217  110  111 1    
   218  110  112 1    
   219  110  231 1    
   220  111  232 1    
   221  111  233 1    
   222  111  234 1    
   223  112  113 2    
   224  112  114 am   BACKBONE|DICT|INTERRES
   225  114  115 1    
   226  114  235 1    
   227  115  116 1    
   228  115  117 1    
   229  115  236 1    
   230  116  237 1    
   231  116  238 1    
   232  116  239 1    
   233  117  118 2    
   234  117  119 am   BACKBONE|DICT|INTERRES
   235  119  120 1    
   236  119  240 1    
   237  120  121 1    
   238  120  124 1    
   239  120  241 1    
   240  121  122 am   BACKBONE|DICT|INTERRES
   241  121  123 2    
   242  122  242 1    
   243  122  243 1    
   244  124  125 1    
   245  124  244 1    
   246  124  245 1    
   247  125  126 1    
   248  126  246 1    
   249  126  247 1    
@<TRIPOS>SUBSTRUCTURE
     1 UNK         1 GROUP             0       ****    0 ROOT    
