@<TRIPOS>MOLECULE
3R540
247   249    1
SMALL
USER_CHARGES


@<TRIPOS>ATOM
      1 CA          1.9919  -14.5396  -50.9986 C.3       0 UNK        -0.1800 
      2 C           1.2762  -14.0066  -49.7661 C.2       0 UNK         0.5000 
      3 O           0.6837  -12.9294  -49.8259 O.2       0 UNK        -0.5000 
      4 N           1.3463  -14.7499  -48.6515 N.am      1 UNK        -0.5000 
      5 CA          0.7761  -14.4111  -47.3391 C.3       1 UNK         0.1400 
      6 C6         -0.7781  -14.4349  -47.3106 C.3       23 UNK        -0.0398 
      7 S7         -1.4376  -16.1340  -47.2167 S.3       23 UNK        -0.2404 
      8 C8         -2.0462  -16.4464  -48.9084 C.3       23 UNK        -0.0205 
      9 C9         -0.9900  -16.9683  -49.8810 C.ar      23 UNK        -0.0193 
     10 C10        -1.0983  -16.6445  -51.2361 C.ar      23 UNK        -0.1150 
     11 C11        -0.1622  -17.1140  -52.1610 C.ar      23 UNK        -0.0193 
     12 C12         0.8879  -17.9261  -51.7254 C.ar      23 UNK        -0.1150 
     13 C13         1.0077  -18.2691  -50.3755 C.ar      23 UNK        -0.0193 
     14 C14         0.0645  -17.7898  -49.4612 C.ar      23 UNK        -0.1150 
     15 C15         2.1740  -19.1293  -49.9085 C.3       23 UNK        -0.0205 
     16 S16         1.6491  -20.8050  -49.4252 S.3       23 UNK        -0.2404 
     17 C17         1.6327  -20.6479  -47.6066 C.3       23 UNK        -0.0398 
     18 CA          1.2304  -21.9575  -46.8797 C.3       11 UNK         0.1400 
     19 N           1.5088  -21.8543  -45.4519 N.am      11 UNK        -0.5000 
     20 C           1.9889  -22.8309  -44.6735 C.2       10 UNK         0.5000 
     21 O           2.2106  -23.9785  -45.0605 O.2       10 UNK        -0.5000 
     22 CA          2.3010  -22.4466  -43.2165 C.3       10 UNK         0.1400 
     23 CB          3.6180  -21.6584  -43.1306 C.3       10 UNK        -0.1800 
     24 N           1.2274  -21.6509  -42.6258 N.am      10 UNK        -0.5000 
     25 C           0.1292  -22.1701  -42.0623 C.2       9 UNK         0.5000 
     26 O          -0.0631  -23.3786  -41.9255 O.2       9 UNK        -0.5000 
     27 CA         -0.9381  -21.1754  -41.5645 C.3       9 UNK         0.1400 
     28 CB         -0.6869  -20.8162  -40.0923 C.3       9 UNK        -0.1800 
     29 N          -1.0109  -19.9440  -42.3532 N.am      9 UNK        -0.5000 
     30 C          -1.3446  -19.8831  -43.6501 C.2       8 UNK         0.5000 
     31 O          -1.6516  -20.8631  -44.3250 O.2       8 UNK        -0.5000 
     32 CA         -1.2737  -18.5013  -44.3219 C.3       8 UNK         0.1400 
     33 CB         -2.5542  -17.7041  -44.0366 C.3       8 UNK        -0.1800 
     34 N          -0.0995  -17.7288  -43.9093 N.am      8 UNK        -0.5000 
     35 C           1.1701  -18.1157  -44.1004 C.2       7 UNK         0.5000 
     36 O           1.4850  -19.1612  -44.6664 O.2       7 UNK        -0.5000 
     37 CA          2.2748  -17.2163  -43.5269 C.3       7 UNK         0.1400 
     38 CB          2.6191  -16.0741  -44.4909 C.3       7 UNK        -0.1800 
     39 N           1.9012  -16.6763  -42.2219 N.am      7 UNK        -0.5000 
     40 C           1.9783  -17.3711  -41.0788 C.2       6 UNK         0.5000 
     41 O           2.4437  -18.5083  -40.9983 O.2       6 UNK        -0.5000 
     42 CA          1.4091  -16.6928  -39.8196 C.3       6 UNK         0.1400 
     43 CB          2.4784  -15.8257  -39.1392 C.3       6 UNK        -0.1800 
     44 N           0.2259  -15.8779  -40.1033 N.am      6 UNK        -0.5000 
     45 C          -0.9591  -16.3838  -40.4750 C.2       5 UNK         0.5000 
     46 O          -1.1723  -17.5879  -40.6119 O.2       5 UNK        -0.5000 
     47 CA         -2.0878  -15.3821  -40.7833 C.3       5 UNK         0.1400 
     48 CB         -2.8864  -15.0675  -39.5098 C.3       5 UNK        -0.1800 
     49 N          -1.6320  -14.1284  -41.3861 N.am      5 UNK        -0.5000 
     50 C          -0.9356  -14.0147  -42.5250 C.2       4 UNK         0.5000 
     51 O          -0.5533  -14.9788  -43.1915 O.2       4 UNK        -0.5000 
     52 CA         -0.5741  -12.5919  -42.9957 C.3       4 UNK         0.1400 
     53 CB         -1.1140  -11.4593  -42.0931 C.3       4 UNK        -0.1800 
     54 N           0.8696  -12.4474  -43.1901 N.am      4 UNK        -0.5000 
     55 C           1.8352  -12.6354  -42.2763 C.2       3 UNK         0.5000 
     56 O           1.6100  -12.9605  -41.1092 O.2       3 UNK        -0.5000 
     57 CA          3.2950  -12.4524  -42.7431 C.3       3 UNK         0.1400 
     58 CB          4.2344  -13.4854  -42.0947 C.3       3 UNK        -0.1800 
     59 N           3.4182  -12.5339  -44.2024 N.am      3 UNK        -0.5000 
     60 C           3.4935  -11.4819  -45.0284 C.2       2 UNK         0.5000 
     61 O           3.5267  -10.3114  -44.6480 O.2       2 UNK        -0.5000 
     62 CA          3.5009  -11.7871  -46.5396 C.3       2 UNK         0.1400 
     63 CB          4.9414  -11.9514  -47.0472 C.3       2 UNK        -0.1800 
     64 N           2.7219  -12.9704  -46.9221 N.am      2 UNK        -0.5000 
     65 C           1.3966  -13.1138  -46.7624 C.2       1 UNK         0.5000 
     66 O           0.6948  -12.2803  -46.1877 O.2       1 UNK        -0.5000 
     67 C          -0.2355  -22.3863  -47.0954 C.2       11 UNK         0.5000 
     68 O          -0.5212  -23.5826  -47.0436 O.2       11 UNK        -0.5000 
     69 N          -1.1229  -21.4174  -47.3652 N.am      12 UNK        -0.5000 
     70 CA         -2.4965  -21.5692  -47.8574 C.3       12 UNK         0.1400 
     71 CB         -3.1376  -20.1753  -47.9308 C.3       12 UNK        -0.1800 
     72 C          -3.4077  -22.5504  -47.0920 C.2       12 UNK         0.5000 
     73 O          -4.2825  -23.1595  -47.7064 O.2       12 UNK        -0.5000 
     74 N          -3.1874  -22.7139  -45.7816 N.am      13 UNK        -0.5000 
     75 CA         -3.8914  -23.6825  -44.9374 C.3       13 UNK         0.1400 
     76 CB         -3.5107  -23.4437  -43.4698 C.3       13 UNK        -0.1800 
     77 C          -3.6299  -25.1517  -45.3308 C.2       13 UNK         0.5000 
     78 O          -4.4987  -25.9960  -45.1076 O.2       13 UNK        -0.5000 
     79 N          -2.4563  -25.4257  -45.9147 N.am      14 UNK        -0.5000 
     80 CA         -2.0804  -26.7216  -46.4755 C.3       14 UNK         0.1400 
     81 CB         -0.6652  -27.0846  -45.9980 C.3       14 UNK        -0.1800 
     82 C          -2.1415  -26.6826  -48.0115 C.2       14 UNK         0.5000 
     83 O          -2.6704  -27.6093  -48.6274 O.2       14 UNK        -0.5000 
     84 N          -1.6061  -25.6091  -48.6061 N.am      15 UNK        -0.5000 
     85 CA         -1.5575  -25.3681  -50.0433 C.3       15 UNK         0.1400 
     86 CB         -0.3823  -24.4232  -50.3539 C.3       15 UNK        -0.1800 
     87 C          -2.8979  -24.8102  -50.5501 C.2       15 UNK         0.5000 
     88 O          -3.0174  -23.6095  -50.8004 O.2       15 UNK        -0.5000 
     89 N          -3.8854  -25.6966  -50.7281 N.am      16 UNK        -0.5000 
     90 CA         -5.2128  -25.3720  -51.2638 C.3       16 UNK         0.1400 
     91 CB         -6.0754  -26.6419  -51.2836 C.3       16 UNK        -0.1800 
     92 C          -5.1720  -24.7209  -52.6632 C.2       16 UNK         0.5000 
     93 O          -6.0106  -23.8738  -52.9672 O.2       16 UNK        -0.5000 
     94 N          -4.1590  -25.0831  -53.4627 N.am      17 UNK        -0.5000 
     95 CA         -3.8593  -24.4861  -54.7639 C.3       17 UNK         0.1400 
     96 CB         -2.8184  -25.3584  -55.4821 C.3       17 UNK        -0.1800 
     97 C          -3.3709  -23.0249  -54.6806 C.2       17 UNK         0.5000 
     98 O          -3.5282  -22.2939  -55.6563 O.2       17 UNK        -0.5000 
     99 N          -2.7974  -22.6169  -53.5383 N.am      18 UNK        -0.5000 
    100 CA        -2.4275  -21.2269  -53.2661 C.3       18 UNK         0.1400 
    101 CB        -1.2511  -21.1735  -52.2772 C.3       18 UNK        -0.1800 
    102 C         -3.6326  -20.4398  -52.7262 C.2       18 UNK         0.5000 
    103 O         -3.8310  -19.2880  -53.1117 O.2       18 UNK        -0.5000 
    104 N         -4.4381  -21.0872  -51.8701 N.am      19 UNK        -0.5000 
    105 CA        -5.6728  -20.5318  -51.3117 C.3       19 UNK         0.1400 
    106 CB        -6.2391  -21.4948  -50.2590 C.3       19 UNK        -0.1800 
    107 C         -6.7366  -20.2323  -52.3846 C.2       19 UNK         0.5000 
    108 O         -7.3982  -19.1960  -52.3108 O.2       19 UNK        -0.5000 
    109 N         -6.8671  -21.1342  -53.3639 N.am      20 UNK        -0.5000 
    110 CA        -7.7913  -21.0280  -54.4840 C.3       20 UNK         0.1400 
    111 CB        -9.0900  -21.7790  -54.1335 C.3       20 UNK        -0.1800 
    112 C         -7.1086  -21.5802  -55.7510 C.2       20 UNK         0.5000 
    113 O         -7.3277  -22.7425  -56.0921 O.2       20 UNK        -0.5000 
    114 N         -6.2665  -20.8099  -56.4503 N.am      21 UNK        -0.5000 
    115 CA        -5.7928  -19.4550  -56.1788 C.3       21 UNK         0.1400 
    116 CB        -6.8115  -18.4185  -56.6944 C.3       21 UNK        -0.1800 
    117 C         -4.4573  -19.2775  -56.9212 C.2       21 UNK         0.5000 
    118 O         -4.2328  -19.9512  -57.9318 O.2       21 UNK        -0.5000 
    119 N         -3.6204  -18.3447  -56.4509 N.am      22 UNK        -0.5000 
    120 CA        -2.3399  -17.9803  -57.0910 C.3       22 UNK         0.1400 
    121 C         -2.4739  -17.2421  -58.4578 C.2       22 UNK         0.5000 
    122 N         -3.6379  -16.7200  -58.8262 N.am      22 UNK        -0.7600 
    123 O         -1.5004  -17.1438  -59.2002 O.2       22 UNK        -0.5000 
    124 C124       -1.4186  -17.1694  -56.1434 C.3       23 UNK        -0.0398 
    125 S125       -1.0261  -18.0583  -54.6037 S.3       23 UNK        -0.2404 
    126 C126       -0.2757  -16.7246  -53.6258 C.3       23 UNK        -0.0205 
    127 H127        1.2997  -14.5986  -51.8381 H         1 UNK         0.0600 
    128 H128        2.4075  -15.5328  -50.8289 H         1 UNK         0.0600 
    129 H129        2.8076  -13.8722  -51.2760 H         1 UNK         0.0600 
    130 H130        1.8293  -15.6354  -48.6940 H         1 UNK         0.3000 
    131 H131        1.1144  -15.1977  -46.6688 H         1 UNK         0.0600 
    132 H132       -1.1630  -13.9343  -46.4209 H         1 UNK         0.0800 
    133 H133       -1.2033  -13.8992  -48.1595 H         1 UNK         0.0800 
    134 H134       -2.8465  -17.1841  -48.8517 H         1 UNK         0.0800 
    135 H135       -2.5050  -15.5351  -49.2946 H         1 UNK         0.0800 
    136 H136       -1.9142  -16.0213  -51.5741 H         1 UNK         0.1150 
    137 H137        1.6125  -18.2878  -52.4412 H         1 UNK         0.1150 
    138 H138        0.1565  -18.0533  -48.4195 H         1 UNK         0.1150 
    139 H139        2.9152  -19.2219  -50.7038 H         1 UNK         0.0800 
    140 H140        2.6852  -18.6348  -49.0814 H         1 UNK         0.0800 
    141 H141        1.0047  -19.8109  -47.3033 H         1 UNK         0.0800 
    142 H142        2.6443  -20.3731  -47.3031 H         1 UNK         0.0800 
    143 H143        1.8503  -22.7547  -47.2960 H         1 UNK         0.0600 
    144 H144        1.3788  -20.9302  -45.0460 H         1 UNK         0.3000 
    145 H145        2.4260  -23.3681  -42.6437 H         1 UNK         0.0600 
    146 H146        3.8714  -21.4290  -42.0953 H         1 UNK         0.0600 
    147 H147        3.5646  -20.7157  -43.6763 H         1 UNK         0.0600 
    148 H148        4.4448  -22.2339  -43.5487 H         1 UNK         0.0600 
    149 H149        1.3000  -20.6468  -42.7116 H         1 UNK         0.3000 
    150 H150       -1.9075  -21.6717  -41.6319 H         1 UNK         0.0600 
    151 H151       -0.6222  -21.7126  -39.4742 H         1 UNK         0.0600 
    152 H152       -1.4963  -20.2051  -39.6927 H         1 UNK         0.0600 
    153 H153        0.2441  -20.2612  -39.9683 H         1 UNK         0.0600 
    154 H154       -0.8326  -19.0772  -41.8543 H         1 UNK         0.3000 
    155 H155       -1.2002  -18.6563  -45.4001 H         1 UNK         0.0600 
    156 H156       -3.4204  -18.1930  -44.4840 H         1 UNK         0.0600 
    157 H157       -2.5000  -16.6961  -44.4474 H         1 UNK         0.0600 
    158 H158       -2.7443  -17.6210  -42.9674 H         1 UNK         0.0600 
    159 H159       -0.2762  -16.8200  -43.4896 H         1 UNK         0.3000 
    160 H160        3.1691  -17.8337  -43.4157 H         1 UNK         0.0600 
    161 H161        1.8469  -15.3053  -44.4915 H         1 UNK         0.0600 
    162 H162        2.7346  -16.4450  -45.5102 H         1 UNK         0.0600 
    163 H163        3.5646  -15.6080  -44.2197 H         1 UNK         0.0600 
    164 H164        1.4350  -15.7796  -42.2109 H         1 UNK         0.3000 
    165 H165        1.1180  -17.4814  -39.1224 H         1 UNK         0.0600 
    166 H166        2.1020  -15.3881  -38.2145 H         1 UNK         0.0600 
    167 H167        3.3572  -16.4191  -38.8841 H         1 UNK         0.0600 
    168 H168        2.8090  -15.0121  -39.7847 H         1 UNK         0.0600 
    169 H169        0.3371  -14.8737  -40.0551 H         1 UNK         0.3000 
    170 H170       -2.7645  -15.8556  -41.4953 H         1 UNK         0.0600 
    171 H171       -2.2747  -14.5526  -38.7680 H         1 UNK         0.0600 
    172 H172       -3.7495  -14.4389  -39.7296 H         1 UNK         0.0600 
    173 H173       -3.2620  -15.9820  -39.0484 H         1 UNK         0.0600 
    174 H174       -1.8760  -13.2816  -40.8937 H         1 UNK         0.3000 
    175 H175       -1.0313  -12.4763  -43.9791 H         1 UNK         0.0600 
    176 H176       -0.7094  -11.5067  -41.0814 H         1 UNK         0.0600 
    177 H177       -0.8549  -10.4830  -42.5029 H         1 UNK         0.0600 
    178 H178       -2.2019  -11.4938  -42.0223 H         1 UNK         0.0600 
    179 H179        1.1439  -12.2202  -44.1387 H         1 UNK         0.3000 
    180 H180        3.6110  -11.4654  -42.4000 H         1 UNK         0.0600 
    181 H181        5.2462  -13.4069  -42.4927 H         1 UNK         0.0600 
    182 H182        3.8893  -14.5068  -42.2471 H         1 UNK         0.0600 
    183 H183        4.3005  -13.3257  -41.0178 H         1 UNK         0.0600 
    184 H184        3.3912  -13.4564  -44.6094 H         1 UNK         0.3000 
    185 H185        3.0585  -10.9267  -47.0462 H         1 UNK         0.0600 
    186 H186        4.9673  -12.0682  -48.1309 H         1 UNK         0.0600 
    187 H187        5.5446  -11.0761  -46.8024 H         1 UNK         0.0600 
    188 H188        5.4284  -12.8204  -46.6029 H         1 UNK         0.0600 
    189 H189        3.2225  -13.6935  -47.4178 H         1 UNK         0.3000 
    190 H190       -0.7871  -20.4680  -47.3474 H         1 UNK         0.3000 
    191 H191       -2.4169  -21.9500  -48.8761 H         1 UNK         0.0600 
    192 H192       -2.5960  -19.5374  -48.6290 H         1 UNK         0.0600 
    193 H193       -3.1436  -19.6844  -46.9566 H         1 UNK         0.0600 
    194 H194       -4.1694  -20.2276  -48.2779 H         1 UNK         0.0600 
    195 H195       -2.4806  -22.1367  -45.3281 H         1 UNK         0.3000 
    196 H196       -4.9626  -23.5003  -45.0448 H         1 UNK         0.0600 
    197 H197       -3.7681  -22.4320  -43.1560 H         1 UNK         0.0600 
    198 H198       -2.4416  -23.5852  -43.3103 H         1 UNK         0.0600 
    199 H199       -4.0370  -24.1338  -42.8092 H         1 UNK         0.0600 
    200 H200       -1.8154  -24.6579  -46.0936 H         1 UNK         0.3000 
    201 H201       -2.7624  -27.5026  -46.1332 H         1 UNK         0.0600 
    202 H202       -0.6288  -27.1714  -44.9120 H         1 UNK         0.0600 
    203 H203        0.0688  -26.3342  -46.2959 H         1 UNK         0.0600 
    204 H204       -0.3459  -28.0416  -46.4125 H         1 UNK         0.0600 
    205 H205       -1.2028  -24.8791  -48.0217 H         1 UNK         0.3000 
    206 H206       -1.3666  -26.3119  -50.5584 H         1 UNK         0.0600 
    207 H207       -0.5055  -23.4494  -49.8800 H         1 UNK         0.0600 
    208 H208        0.5632  -24.8426  -50.0102 H         1 UNK         0.0600 
    209 H209       -0.2922  -24.2529  -51.4274 H         1 UNK         0.0600 
    210 H210       -3.7252  -26.6550  -50.4446 H         1 UNK         0.3000 
    211 H211       -5.6730  -24.6562  -50.5805 H         1 UNK         0.0600 
    212 H212       -5.6456  -27.4105  -51.9270 H         1 UNK         0.0600 
    213 H213       -7.0788  -26.4263  -51.6533 H         1 UNK         0.0600 
    214 H214       -6.1820  -27.0616  -50.2830 H         1 UNK         0.0600 
    215 H215       -3.5195  -25.7896  -53.1307 H         1 UNK         0.3000 
    216 H216       -4.7773  -24.4894  -55.3560 H         1 UNK         0.0600 
    217 H217       -2.5914  -24.9602  -56.4721 H         1 UNK         0.0600 
    218 H218       -3.1832  -26.3766  -55.6194 H         1 UNK         0.0600 
    219 H219       -1.8815  -25.4075  -54.9255 H         1 UNK         0.0600 
    220 H220       -2.7444  -23.2534  -52.7518 H         1 UNK         0.3000 
    221 H221       -2.1031  -20.7558  -54.1957 H         1 UNK         0.0600 
    222 H222       -1.5164  -21.5662  -51.2963 H         1 UNK         0.0600 
    223 H223       -0.3950  -21.7380  -52.6463 H         1 UNK         0.0600 
    224 H224       -0.9220  -20.1448  -52.1291 H         1 UNK         0.0600 
    225 H225       -4.1789  -22.0216  -51.5759 H         1 UNK         0.3000 
    226 H226       -5.4172  -19.5929  -50.8159 H         1 UNK         0.0600 
    227 H227       -5.4899  -21.7499  -49.5124 H         1 UNK         0.0600 
    228 H228       -7.0838  -21.0450  -49.7352 H         1 UNK         0.0600 
    229 H229       -6.5909  -22.4238  -50.7077 H         1 UNK         0.0600 
    230 H230       -6.3234  -21.9930  -53.3226 H         1 UNK         0.3000 
    231 H231       -8.0570  -19.9866  -54.6552 H         1 UNK         0.0600 
    232 H232       -9.7906  -21.7594  -54.9692 H         1 UNK         0.0600 
    233 H233       -9.5898  -21.3222  -53.2791 H         1 UNK         0.0600 
    234 H234       -8.8973  -22.8241  -53.8864 H         1 UNK         0.0600 
    235 H235       -5.7800  -21.2222  -57.2371 H         1 UNK         0.3000 
    236 H236       -5.6243  -19.3233  -55.1099 H         1 UNK         0.0600 
    237 H237       -6.9488  -18.4996  -57.7736 H         1 UNK         0.0600 
    238 H238       -7.7921  -18.5222  -56.2351 H         1 UNK         0.0600 
    239 H239       -6.4705  -17.4040  -56.4854 H         1 UNK         0.0600 
    240 H240       -3.8491  -17.8523  -55.5990 H         1 UNK         0.3000 
    241 H241       -1.8237  -18.9161  -57.3152 H         1 UNK         0.0600 
    242 H242       -4.4456  -16.7910  -58.2293 H         1 UNK         0.3800 
    243 H243       -3.7110  -16.2491  -59.7146 H         1 UNK         0.3800 
    244 H244       -1.8863  -16.2153  -55.8943 H         1 UNK         0.0800 
    245 H245       -0.4727  -16.9311  -56.6338 H         1 UNK         0.0800 
    246 H246        0.7118  -16.4915  -54.0269 H         1 UNK         0.0800 
    247 H247       -0.8716  -15.8159  -53.7238 H         1 UNK         0.0800 
@<TRIPOS>BOND
     1    1    2 1    
     2    1  127 1    
     3    1  128 1    
     4    1  129 1    
     5    2    3 2    
     6    2    4 am   BACKBONE|DICT|INTERRES
     7    4    5 1    
     8    4  130 1    
     9    5    6 1    
    10    5   65 1    
    11    5  131 1    
    12    6    7 1    
    13    6  132 1    
    14    6  133 1    
    15    7    8 1    
    16    8    9 1    
    17    8  134 1    
    18    8  135 1    
    19    9   10 ar   
    20    9   14 ar   
    21   10   11 ar   
    22   10  136 1    
    23   11   12 ar   
    24   11  126 1    
    25   12   13 ar   
    26   12  137 1    
    27   13   14 ar   
    28   13   15 1    
    29   14  138 1    
    30   15   16 1    
    31   15  139 1    
    32   15  140 1    
    33   16   17 1    
    34   17   18 1    
    35   17  141 1    
    36   17  142 1    
    37   18   19 1    
    38   18   67 1    
    39   18  143 1    
    40   19   20 am   BACKBONE|DICT|INTERRES
    41   19  144 1    
    42   20   21 2    
    43   20   22 1    
    44   22   23 1    
    45   22   24 1    
    46   22  145 1    
    47   23  146 1    
    48   23  147 1    
    49   23  148 1    
    50   24   25 am   BACKBONE|DICT|INTERRES
    51   24  149 1    
    52   25   26 2    
    53   25   27 1    
    54   27   28 1    
    55   27   29 1    
    56   27  150 1    
    57   28  151 1    
    58   28  152 1    
    59   28  153 1    
    60   29   30 am   BACKBONE|DICT|INTERRES
    61   29  154 1    
    62   30   31 2    
    63   30   32 1    
    64   32   33 1    
    65   32   34 1    
    66   32  155 1    
    67   33  156 1    
    68   33  157 1    
    69   33  158 1    
    70   34   35 am   BACKBONE|DICT|INTERRES
    71   34  159 1    
    72   35   36 2    
    73   35   37 1    
    74   37   38 1    
    75   37   39 1    
    76   37  160 1    
    77   38  161 1    
    78   38  162 1    
    79   38  163 1    
    80   39   40 am   BACKBONE|DICT|INTERRES
    81   39  164 1    
    82   40   41 2    
    83   40   42 1    
    84   42   43 1    
    85   42   44 1    
    86   42  165 1    
    87   43  166 1    
    88   43  167 1    
    89   43  168 1    
    90   44   45 am   BACKBONE|DICT|INTERRES
    91   44  169 1    
    92   45   46 2    
    93   45   47 1    
    94   47   48 1    
    95   47   49 1    
    96   47  170 1    
    97   48  171 1    
    98   48  172 1    
    99   48  173 1    
   100   49   50 am   BACKBONE|DICT|INTERRES
   101   49  174 1    
   102   50   51 2    
   103   50   52 1    
   104   52   53 1    
   105   52   54 1    
   106   52  175 1    
   107   53  176 1    
   108   53  177 1    
   109   53  178 1    
   110   54   55 am   BACKBONE|DICT|INTERRES
   111   54  179 1    
   112   55   56 2    
   113   55   57 1    
   114   57   58 1    
   115   57   59 1    
   116   57  180 1    
   117   58  181 1    
   118   58  182 1    
   119   58  183 1    
   120   59   60 am   BACKBONE|DICT|INTERRES
   121   59  184 1    
   122   60   61 2    
   123   60   62 1    
   124   62   63 1    
   125   62   64 1    
   126   62  185 1    
   127   63  186 1    
   128   63  187 1    
   129   63  188 1    
   130   64   65 am   BACKBONE|DICT|INTERRES
   131   64  189 1    
   132   65   66 2    
   133   67   68 2    
   134   67   69 am   BACKBONE|DICT|INTERRES
   135   69   70 1    
   136   69  190 1    
   137   70   71 1    
   138   70   72 1    
   139   70  191 1    
   140   71  192 1    
   141   71  193 1    
   142   71  194 1    
   143   72   73 2    
   144   72   74 am   BACKBONE|DICT|INTERRES
   145   74   75 1    
   146   74  195 1    
   147   75   76 1    
   148   75   77 1    
   149   75  196 1    
   150   76  197 1    
   151   76  198 1    
   152   76  199 1    
   153   77   78 2    
   154   77   79 am   BACKBONE|DICT|INTERRES
   155   79   80 1    
   156   79  200 1    
   157   80   81 1    
   158   80   82 1    
   159   80  201 1    
   160   81  202 1    
   161   81  203 1    
   162   81  204 1    
   163   82   83 2    
   164   82   84 am   BACKBONE|DICT|INTERRES
   165   84   85 1    
   166   84  205 1    
   167   85   86 1    
   168   85   87 1    
   169   85  206 1    
   170   86  207 1    
   171   86  208 1    
   172   86  209 1    
   173   87   88 2    
   174   87   89 am   BACKBONE|DICT|INTERRES
   175   89   90 1    
   176   89  210 1    
   177   90   91 1    
   178   90   92 1    
   179   90  211 1    
   180   91  212 1    
   181   91  213 1    
   182   91  214 1    
   183   92   93 2    
   184   92   94 am   BACKBONE|DICT|INTERRES
   185   94   95 1    
   186   94  215 1    
   187   95   96 1    
   188   95   97 1    
   189   95  216 1    
   190   96  217 1    
   191   96  218 1    
   192   96  219 1    
   193   97   98 2    
   194   97   99 am   BACKBONE|DICT|INTERRES
   195   99  100 1    
   196   99  220 1    
   197  100  101 1    
   198  100  102 1    
   199  100  221 1    
   200  101  222 1    
   201  101  223 1    
   202  101  224 1    
   203  102  103 2    
   204  102  104 am   BACKBONE|DICT|INTERRES
   205  104  105 1    
   206  104  225 1    
   207  105  106 1    
   208  105  107 1    
   209  105  226 1    
   210  106  227 1    
   211  106  228 1    
   212  106  229 1    
   213  107  108 2    
   214  107  109 am   BACKBONE|DICT|INTERRES
   215  109  110 1    
   216  109  230 1    
   217  110  111 1    
   218  110  112 1    
   219  110  231 1    
   220  111  232 1    
   221  111  233 1    
   222  111  234 1    
   223  112  113 2    
   224  112  114 am   BACKBONE|DICT|INTERRES
   225  114  115 1    
   226  114  235 1    
   227  115  116 1    
   228  115  117 1    
   229  115  236 1    
   230  116  237 1    
   231  116  238 1    
   232  116  239 1    
   233  117  118 2    
   234  117  119 am   BACKBONE|DICT|INTERRES
   235  119  120 1    
   236  119  240 1    
   237  120  121 1    
   238  120  124 1    
   239  120  241 1    
   240  121  122 am   BACKBONE|DICT|INTERRES
   241  121  123 2    
   242  122  242 1    
   243  122  243 1    
   244  124  125 1    
   245  124  244 1    
   246  124  245 1    
   247  125  126 1    
   248  126  246 1    
   249  126  247 1    
@<TRIPOS>SUBSTRUCTURE
     1 UNK         1 GROUP             0       ****    0 ROOT    
