@<TRIPOS>MOLECULE
3R540
247   249    1
SMALL
USER_CHARGES


@<TRIPOS>ATOM
      1 CA          4.0786  -11.3272  -54.4522 C.3       0 UNK        -0.1800 
      2 C           3.6734  -11.5403  -53.0002 C.2       0 UNK         0.5000 
      3 O           4.0049  -10.7188  -52.1448 O.2       0 UNK        -0.5000 
      4 N           2.9664  -12.6418  -52.7184 N.am      1 UNK        -0.5000 
      5 CA          2.4306  -12.9761  -51.3964 C.3       1 UNK         0.1400 
      6 C6          2.0375  -14.4742  -51.3201 C.3       23 UNK        -0.0398 
      7 S7          1.7830  -15.0613  -49.6084 S.3       23 UNK        -0.2404 
      8 C8          3.4660  -15.5767  -49.1335 C.3       23 UNK        -0.0205 
      9 C9          3.6564  -17.0866  -49.1757 C.ar      23 UNK        -0.0193 
     10 C10         3.5482  -17.7788  -50.3855 C.ar      23 UNK        -0.1150 
     11 C11         3.7557  -19.1585  -50.4337 C.ar      23 UNK        -0.0193 
     12 C12         4.1055  -19.8434  -49.2695 C.ar      23 UNK        -0.1150 
     13 C13         4.1949  -19.1716  -48.0483 C.ar      23 UNK        -0.0193 
     14 C14         3.9688  -17.7919  -48.0067 C.ar      23 UNK        -0.1150 
     15 C15         4.5532  -19.9437  -46.7856 C.3       23 UNK        -0.0205 
     16 S16         3.0942  -20.4718  -45.8250 S.3       23 UNK        -0.2404 
     17 C17         2.1722  -21.5082  -47.0103 C.3       23 UNK        -0.0398 
     18 CA          2.7221  -22.9518  -47.1040 C.3       11 UNK         0.1400 
     19 N           2.4265  -23.7203  -45.8920 N.am      11 UNK        -0.5000 
     20 C           2.7893  -24.9892  -45.6599 C.2       10 UNK         0.5000 
     21 O           3.5440  -25.6260  -46.3958 O.2       10 UNK        -0.5000 
     22 CA          2.1942  -25.6869  -44.4185 C.3       10 UNK         0.1400 
     23 CB          3.2856  -25.9287  -43.3638 C.3       10 UNK        -0.1800 
     24 N           1.0703  -24.9990  -43.7736 N.am      10 UNK        -0.5000 
     25 C          -0.0956  -24.6413  -44.3299 C.2       9 UNK         0.5000 
     26 O          -0.3549  -24.7744  -45.5279 O.2       9 UNK        -0.5000 
     27 CA         -1.1443  -23.9990  -43.3996 C.3       9 UNK         0.1400 
     28 CB         -0.8422  -24.1712  -41.8944 C.3       9 UNK        -0.1800 
     29 N          -1.3714  -22.5847  -43.7005 N.am      9 UNK        -0.5000 
     30 C          -0.4660  -21.6016  -43.7699 C.2       8 UNK         0.5000 
     31 O           0.7516  -21.7654  -43.6700 O.2       8 UNK        -0.5000 
     32 CA         -1.0275  -20.1866  -43.9548 C.3       8 UNK         0.1400 
     33 CB         -1.1579  -19.4785  -42.5932 C.3       8 UNK        -0.1800 
     34 N          -0.1552  -19.4327  -44.8482 N.am      8 UNK        -0.5000 
     35 C          -0.5005  -18.2979  -45.4640 C.2       7 UNK         0.5000 
     36 O          -1.5808  -17.7295  -45.2980 O.2       7 UNK        -0.5000 
     37 CA          0.5071  -17.7125  -46.4620 C.3       7 UNK         0.1400 
     38 CB          0.0218  -17.9482  -47.9031 C.3       7 UNK        -0.1800 
     39 N           0.6690  -16.2815  -46.2134 N.am      7 UNK        -0.5000 
     40 C           1.5360  -15.7692  -45.3311 C.2       6 UNK         0.5000 
     41 O           2.3477  -16.4543  -44.7077 O.2       6 UNK        -0.5000 
     42 CA          1.5020  -14.2523  -45.0748 C.3       6 UNK         0.1400 
     43 CB          2.3020  -13.4778  -46.1329 C.3       6 UNK        -0.1800 
     44 N           0.1447  -13.7073  -44.9930 N.am      6 UNK        -0.5000 
     45 C          -0.2406  -12.7982  -44.0828 C.2       5 UNK         0.5000 
     46 O           0.5050  -12.3644  -43.2029 O.2       5 UNK        -0.5000 
     47 CA         -1.6828  -12.2517  -44.1491 C.3       5 UNK         0.1400 
     48 CB         -1.6885  -10.7811  -44.5933 C.3       5 UNK        -0.1800 
     49 N          -2.5577  -13.0139  -45.0362 N.am      5 UNK        -0.5000 
     50 C          -3.1105  -14.1928  -44.7231 C.2       4 UNK         0.5000 
     51 O          -3.0036  -14.7174  -43.6143 O.2       4 UNK        -0.5000 
     52 CA         -3.9158  -14.9134  -45.8241 C.3       4 UNK         0.1400 
     53 CB         -5.4230  -14.7720  -45.5580 C.3       4 UNK        -0.1800 
     54 N          -3.6464  -14.4747  -47.1975 N.am      4 UNK        -0.5000 
     55 C          -2.4562  -14.4746  -47.8109 C.2       3 UNK         0.5000 
     56 O          -1.4059  -14.7993  -47.2573 O.2       3 UNK        -0.5000 
     57 CA         -2.4021  -13.9990  -49.2746 C.3       3 UNK         0.1400 
     58 CB         -3.7510  -13.4952  -49.8361 C.3       3 UNK        -0.1800 
     59 N          -1.3503  -12.9975  -49.4560 N.am      3 UNK        -0.5000 
     60 C          -1.2509  -11.8009  -48.8579 C.2       2 UNK         0.5000 
     61 O          -2.1029  -11.3570  -48.0862 O.2       2 UNK        -0.5000 
     62 CA          0.0202  -10.9686  -49.1469 C.3       2 UNK         0.1400 
     63 CB          0.5494  -10.2877  -47.8729 C.3       2 UNK        -0.1800 
     64 N           1.1069  -11.7591  -49.7330 N.am      2 UNK        -0.5000 
     65 C           1.2483  -12.0508  -51.0317 C.2       1 UNK         0.5000 
     66 O           0.4704  -11.6654  -51.9076 O.2       1 UNK        -0.5000 
     67 C           2.2081  -23.6294  -48.3957 C.2       11 UNK         0.5000 
     68 O           2.8796  -23.5224  -49.4221 O.2       11 UNK        -0.5000 
     69 N           1.0558  -24.3161  -48.3312 N.am      12 UNK        -0.5000 
     70 CA          0.4562  -24.9980  -49.4852 C.3       12 UNK         0.1400 
     71 CB         -0.2144  -23.9789  -50.4285 C.3       12 UNK        -0.1800 
     72 C          -0.5433  -26.1082  -49.1186 C.2       12 UNK         0.5000 
     73 O          -0.8444  -26.9284  -49.9865 O.2       12 UNK        -0.5000 
     74 N          -1.0715  -26.1168  -47.8842 N.am      13 UNK        -0.5000 
     75 CA         -2.0832  -27.0252  -47.3208 C.3       13 UNK         0.1400 
     76 CB         -1.5935  -28.4851  -47.3126 C.3       13 UNK        -0.1800 
     77 C          -3.4903  -26.9080  -47.9447 C.2       13 UNK         0.5000 
     78 O          -4.4756  -26.9166  -47.2049 O.2       13 UNK        -0.5000 
     79 N          -3.5685  -26.7818  -49.2755 N.am      14 UNK        -0.5000 
     80 CA         -4.7844  -26.5808  -50.0642 C.3       14 UNK         0.1400 
     81 CB         -4.4087  -26.5079  -51.5521 C.3       14 UNK        -0.1800 
     82 C          -5.5309  -25.3092  -49.6268 C.2       14 UNK         0.5000 
     83 O          -4.9536  -24.2217  -49.6799 O.2       14 UNK        -0.5000 
     84 N          -6.7680  -25.4823  -49.1383 N.am      15 UNK        -0.5000 
     85 CA         -7.6315  -24.4522  -48.5404 C.3       15 UNK         0.1400 
     86 CB         -8.1390  -23.4815  -49.6253 C.3       15 UNK        -0.1800 
     87 C          -6.9674  -23.7217  -47.3489 C.2       15 UNK         0.5000 
     88 O          -7.1904  -22.5258  -47.1507 O.2       15 UNK        -0.5000 
     89 N          -6.1155  -24.4543  -46.6124 N.am      16 UNK        -0.5000 
     90 CA         -5.2395  -23.9900  -45.5322 C.3       16 UNK         0.1400 
     91 CB         -6.0641  -23.5187  -44.3167 C.3       16 UNK        -0.1800 
     92 C          -4.2054  -22.9383  -45.9884 C.2       16 UNK         0.5000 
     93 O          -3.7348  -22.1574  -45.1602 O.2       16 UNK        -0.5000 
     94 N          -3.8853  -22.9138  -47.2926 N.am      17 UNK        -0.5000 
     95 CA         -2.9856  -22.0134  -48.0272 C.3       17 UNK         0.1400 
     96 CB         -1.5475  -22.1059  -47.4983 C.3       17 UNK        -0.1800 
     97 C          -3.4367  -20.5440  -48.0858 C.2       17 UNK         0.5000 
     98 O          -3.2491  -19.9016  -49.1184 O.2       17 UNK        -0.5000 
     99 N          -4.0155  -20.0467  -46.9894 N.am      18 UNK        -0.5000 
    100 CA        -4.4751  -18.6798  -46.7806 C.3       18 UNK         0.1400 
    101 CB        -4.9636  -18.5472  -45.3286 C.3       18 UNK        -0.1800 
    102 C         -5.5669  -18.2511  -47.7707 C.2       18 UNK         0.5000 
    103 O         -5.4247  -17.2139  -48.4181 O.2       18 UNK        -0.5000 
    104 N         -6.6189  -19.0727  -47.8957 N.am      19 UNK        -0.5000 
    105 CA        -7.7469  -18.8174  -48.7956 C.3       19 UNK         0.1400 
    106 CB        -8.9452  -19.6757  -48.3683 C.3       19 UNK        -0.1800 
    107 C         -7.3960  -19.0566  -50.2760 C.2       19 UNK         0.5000 
    108 O         -8.0040  -18.4389  -51.1505 O.2       19 UNK        -0.5000 
    109 N         -6.4071  -19.9248  -50.5289 N.am      20 UNK        -0.5000 
    110 CA        -5.8378  -20.1680  -51.8547 C.3       20 UNK         0.1400 
    111 CB        -5.1451  -21.5412  -51.8580 C.3       20 UNK        -0.1800 
    112 C         -4.8402  -19.0754  -52.2855 C.2       20 UNK         0.5000 
    113 O         -4.5121  -19.0003  -53.4695 O.2       20 UNK        -0.5000 
    114 N         -4.3306  -18.2930  -51.3209 N.am      21 UNK        -0.5000 
    115 CA        -3.2501  -17.3077  -51.4444 C.3       21 UNK         0.1400 
    116 CB        -3.7190  -16.0936  -52.2719 C.3       21 UNK        -0.1800 
    117 C         -1.9378  -17.9275  -51.9768 C.2       21 UNK         0.5000 
    118 O         -1.2113  -17.2834  -52.7349 O.2       21 UNK        -0.5000 
    119 N         -1.6883  -19.1890  -51.5973 N.am      22 UNK        -0.5000 
    120 CA        -0.6454  -20.0724  -52.1477 C.3       22 UNK         0.1400 
    121 C         -0.8693  -20.5040  -53.6367 C.2       22 UNK         0.5000 
    122 N         -2.0224  -20.2608  -54.2487 N.am      22 UNK        -0.7600 
    123 O          0.0041  -21.1040  -54.2558 O.2       22 UNK        -0.5000 
    124 C124        0.7896  -19.5375  -51.8702 C.3       23 UNK        -0.0398 
    125 S125        2.0295  -20.8696  -51.7284 S.3       23 UNK        -0.2404 
    126 C126        3.5814  -19.9218  -51.7346 C.3       23 UNK        -0.0205 
    127 H127        3.6680  -10.3876  -54.8220 H         1 UNK         0.0600 
    128 H128        3.7205  -12.1313  -55.0957 H         1 UNK         0.0600 
    129 H129        5.1646  -11.2827  -54.5361 H         1 UNK         0.0600 
    130 H130        2.6967  -13.2581  -53.4716 H         1 UNK         0.3000 
    131 H131        3.2324  -12.8015  -50.6750 H         1 UNK         0.0600 
    132 H132        2.8149  -15.0831  -51.7812 H         1 UNK         0.0800 
    133 H133        1.1308  -14.6708  -51.8957 H         1 UNK         0.0800 
    134 H134        3.6631  -15.2067  -48.1280 H         1 UNK         0.0800 
    135 H135        4.2074  -15.1006  -49.7763 H         1 UNK         0.0800 
    136 H136        3.2911  -17.2480  -51.2896 H         1 UNK         0.1150 
    137 H137        4.2721  -20.9111  -49.3114 H         1 UNK         0.1150 
    138 H138        4.0439  -17.2690  -47.0633 H         1 UNK         0.1150 
    139 H139        5.1551  -20.8184  -47.0359 H         1 UNK         0.0800 
    140 H140        5.1820  -19.3216  -46.1471 H         1 UNK         0.0800 
    141 H141        1.1322  -21.5317  -46.6856 H         1 UNK         0.0800 
    142 H142        2.1502  -21.0136  -47.9807 H         1 UNK         0.0800 
    143 H143        3.8089  -22.9033  -47.1946 H         1 UNK         0.0600 
    144 H144        1.8392  -23.2643  -45.2055 H         1 UNK         0.3000 
    145 H145        1.8238  -26.6573  -44.7546 H         1 UNK         0.0600 
    146 H146        2.9057  -26.5179  -42.5289 H         1 UNK         0.0600 
    147 H147        4.1283  -26.4771  -43.7871 H         1 UNK         0.0600 
    148 H148        3.6719  -24.9896  -42.9657 H         1 UNK         0.0600 
    149 H149        1.1929  -24.7938  -42.7928 H         1 UNK         0.3000 
    150 H150       -2.0837  -24.5128  -43.6082 H         1 UNK         0.0600 
    151 H151       -0.7106  -25.2223  -41.6339 H         1 UNK         0.0600 
    152 H152       -1.6682  -23.7956  -41.2903 H         1 UNK         0.0600 
    153 H153        0.0556  -23.6328  -41.5886 H         1 UNK         0.0600 
    154 H154       -2.3334  -22.3502  -43.9336 H         1 UNK         0.3000 
    155 H155       -2.0151  -20.2573  -44.4146 H         1 UNK         0.0600 
    156 H156       -1.6287  -18.5005  -42.6926 H         1 UNK         0.0600 
    157 H157       -0.1844  -19.3355  -42.1227 H         1 UNK         0.0600 
    158 H158       -1.7730  -20.0623  -41.9072 H         1 UNK         0.0600 
    159 H159        0.7596  -19.8431  -44.9957 H         1 UNK         0.3000 
    160 H160        1.4689  -18.2111  -46.3473 H         1 UNK         0.0600 
    161 H161       -0.9139  -17.4266  -48.1078 H         1 UNK         0.0600 
    162 H162       -0.1481  -19.0092  -48.0902 H         1 UNK         0.0600 
    163 H163        0.7615  -17.6122  -48.6277 H         1 UNK         0.0600 
    164 H164       -0.0216  -15.6803  -46.6593 H         1 UNK         0.3000 
    165 H165        2.0092  -14.1113  -44.1179 H         1 UNK         0.0600 
    166 H166        1.8200  -13.5237  -47.1086 H         1 UNK         0.0600 
    167 H167        2.4006  -12.4279  -45.8574 H         1 UNK         0.0600 
    168 H168        3.3107  -13.8790  -46.2325 H         1 UNK         0.0600 
    169 H169       -0.5257  -14.0416  -45.6785 H         1 UNK         0.3000 
    170 H170       -2.0903  -12.2946  -43.1368 H         1 UNK         0.0600 
    171 H171       -1.0835  -10.1662  -43.9258 H         1 UNK         0.0600 
    172 H172       -1.2866  -10.6656  -45.5986 H         1 UNK         0.0600 
    173 H173       -2.6980  -10.3699  -44.5867 H         1 UNK         0.0600 
    174 H174       -2.6823  -12.6517  -45.9724 H         1 UNK         0.3000 
    175 H175       -3.6465  -15.9675  -45.7636 H         1 UNK         0.0600 
    176 H176       -5.7466  -13.7332  -45.6341 H         1 UNK         0.0600 
    177 H177       -6.0080  -15.3580  -46.2671 H         1 UNK         0.0600 
    178 H178       -5.6805  -15.1224  -44.5577 H         1 UNK         0.0600 
    179 H179       -4.4510  -14.1758  -47.7290 H         1 UNK         0.3000 
    180 H180       -2.0958  -14.8648  -49.8611 H         1 UNK         0.0600 
    181 H181       -4.5079  -14.2801  -49.8092 H         1 UNK         0.0600 
    182 H182       -4.1377  -12.6404  -49.2803 H         1 UNK         0.0600 
    183 H183       -3.6475  -13.1882  -50.8769 H         1 UNK         0.0600 
    184 H184       -0.5735  -13.2856  -50.0314 H         1 UNK         0.3000 
    185 H185       -0.2654  -10.1847  -49.8512 H         1 UNK         0.0600 
    186 H186       -0.1785   -9.5789  -47.4767 H         1 UNK         0.0600 
    187 H187        0.7641  -11.0137  -47.0884 H         1 UNK         0.0600 
    188 H188        1.4631   -9.7276  -48.0729 H         1 UNK         0.0600 
    189 H189        1.7704  -12.1457  -49.0772 H         1 UNK         0.3000 
    190 H190        0.5983  -24.4128  -47.4336 H         1 UNK         0.3000 
    191 H191        1.2581  -25.4943  -50.0361 H         1 UNK         0.0600 
    192 H192       -0.6290  -24.4725  -51.3084 H         1 UNK         0.0600 
    193 H193        0.4961  -23.2364  -50.7879 H         1 UNK         0.0600 
    194 H194       -1.0313  -23.4524  -49.9389 H         1 UNK         0.0600 
    195 H195       -0.7711  -25.4172  -47.2132 H         1 UNK         0.3000 
    196 H196       -2.1903  -26.7197  -46.2788 H         1 UNK         0.0600 
    197 H197       -2.2992  -29.1273  -46.7845 H         1 UNK         0.0600 
    198 H198       -0.6320  -28.5740  -46.8069 H         1 UNK         0.0600 
    199 H199       -1.4821  -28.8866  -48.3200 H         1 UNK         0.0600 
    200 H200       -2.6901  -26.7969  -49.7862 H         1 UNK         0.3000 
    201 H201       -5.4293  -27.4484  -49.9126 H         1 UNK         0.0600 
    202 H202       -3.9236  -27.4268  -51.8819 H         1 UNK         0.0600 
    203 H203       -3.7284  -25.6793  -51.7547 H         1 UNK         0.0600 
    204 H204       -5.2944  -26.3658  -52.1725 H         1 UNK         0.0600 
    205 H205       -7.1398  -26.4218  -49.1104 H         1 UNK         0.3000 
    206 H206       -8.4971  -24.9769  -48.1337 H         1 UNK         0.0600 
    207 H207       -8.4989  -24.0177  -50.5033 H         1 UNK         0.0600 
    208 H208       -8.9705  -22.8849  -49.2511 H         1 UNK         0.0600 
    209 H209       -7.3583  -22.7931  -49.9475 H         1 UNK         0.0600 
    210 H210       -5.9612  -25.4177  -46.8903 H         1 UNK         0.3000 
    211 H211       -4.6599  -24.8592  -45.2189 H         1 UNK         0.0600 
    212 H212       -6.6085  -22.5978  -44.5278 H         1 UNK         0.0600 
    213 H213       -5.4207  -23.3263  -43.4573 H         1 UNK         0.0600 
    214 H214       -6.7881  -24.2751  -44.0141 H         1 UNK         0.0600 
    215 H215       -4.3824  -23.5567  -47.9017 H         1 UNK         0.3000 
    216 H216       -2.9865  -22.3797  -49.0544 H         1 UNK         0.0600 
    217 H217       -1.4466  -21.6436  -46.5188 H         1 UNK         0.0600 
    218 H218       -0.8534  -21.6022  -48.1721 H         1 UNK         0.0600 
    219 H219       -1.2338  -23.1429  -47.4124 H         1 UNK         0.0600 
    220 H220       -4.0816  -20.6728  -46.1918 H         1 UNK         0.3000 
    221 H221       -3.6216  -18.0172  -46.9307 H         1 UNK         0.0600 
    222 H222       -5.7244  -19.2912  -45.0892 H         1 UNK         0.0600 
    223 H223       -4.1401  -18.6762  -44.6259 H         1 UNK         0.0600 
    224 H224       -5.3992  -17.5672  -45.1402 H         1 UNK         0.0600 
    225 H225       -6.6524  -19.9234  -47.3493 H         1 UNK         0.3000 
    226 H226       -8.0352  -17.7686  -48.6953 H         1 UNK         0.0600 
    227 H227       -9.2466  -19.4509  -47.3452 H         1 UNK         0.0600 
    228 H228       -9.8079  -19.4922  -49.0100 H         1 UNK         0.0600 
    229 H229       -8.7152  -20.7381  -48.4228 H         1 UNK         0.0600 
    230 H230       -5.9627  -20.3868  -49.7495 H         1 UNK         0.3000 
    231 H231       -6.6427  -20.1895  -52.5924 H         1 UNK         0.0600 
    232 H232       -5.8564  -22.3448  -51.6721 H         1 UNK         0.0600 
    233 H233       -4.6804  -21.7455  -52.8235 H         1 UNK         0.0600 
    234 H234       -4.3634  -21.6038  -51.1006 H         1 UNK         0.0600 
    235 H235       -4.6343  -18.4692  -50.3722 H         1 UNK         0.3000 
    236 H236       -3.0392  -16.9673  -50.4302 H         1 UNK         0.0600 
    237 H237       -4.6462  -15.6809  -51.8751 H         1 UNK         0.0600 
    238 H238       -2.9742  -15.2974  -52.2583 H         1 UNK         0.0600 
    239 H239       -3.8919  -16.3582  -53.3154 H         1 UNK         0.0600 
    240 H240       -2.3213  -19.6095  -50.9247 H         1 UNK         0.3000 
    241 H241       -0.7646  -20.9943  -51.5774 H         1 UNK         0.0600 
    242 H242       -2.7792  -19.7543  -53.8011 H         1 UNK         0.3800 
    243 H243       -2.1343  -20.5621  -55.2032 H         1 UNK         0.3800 
    244 H244        0.8066  -18.9874  -50.9281 H         1 UNK         0.0800 
    245 H245        1.0957  -18.8274  -52.6400 H         1 UNK         0.0800 
    246 H246        3.6010  -19.2489  -52.5932 H         1 UNK         0.0800 
    247 H247        4.4167  -20.6113  -51.8641 H         1 UNK         0.0800 
@<TRIPOS>BOND
     1    1    2 1    
     2    1  127 1    
     3    1  128 1    
     4    1  129 1    
     5    2    3 2    
     6    2    4 am   BACKBONE|DICT|INTERRES
     7    4    5 1    
     8    4  130 1    
     9    5    6 1    
    10    5   65 1    
    11    5  131 1    
    12    6    7 1    
    13    6  132 1    
    14    6  133 1    
    15    7    8 1    
    16    8    9 1    
    17    8  134 1    
    18    8  135 1    
    19    9   10 ar   
    20    9   14 ar   
    21   10   11 ar   
    22   10  136 1    
    23   11   12 ar   
    24   11  126 1    
    25   12   13 ar   
    26   12  137 1    
    27   13   14 ar   
    28   13   15 1    
    29   14  138 1    
    30   15   16 1    
    31   15  139 1    
    32   15  140 1    
    33   16   17 1    
    34   17   18 1    
    35   17  141 1    
    36   17  142 1    
    37   18   19 1    
    38   18   67 1    
    39   18  143 1    
    40   19   20 am   BACKBONE|DICT|INTERRES
    41   19  144 1    
    42   20   21 2    
    43   20   22 1    
    44   22   23 1    
    45   22   24 1    
    46   22  145 1    
    47   23  146 1    
    48   23  147 1    
    49   23  148 1    
    50   24   25 am   BACKBONE|DICT|INTERRES
    51   24  149 1    
    52   25   26 2    
    53   25   27 1    
    54   27   28 1    
    55   27   29 1    
    56   27  150 1    
    57   28  151 1    
    58   28  152 1    
    59   28  153 1    
    60   29   30 am   BACKBONE|DICT|INTERRES
    61   29  154 1    
    62   30   31 2    
    63   30   32 1    
    64   32   33 1    
    65   32   34 1    
    66   32  155 1    
    67   33  156 1    
    68   33  157 1    
    69   33  158 1    
    70   34   35 am   BACKBONE|DICT|INTERRES
    71   34  159 1    
    72   35   36 2    
    73   35   37 1    
    74   37   38 1    
    75   37   39 1    
    76   37  160 1    
    77   38  161 1    
    78   38  162 1    
    79   38  163 1    
    80   39   40 am   BACKBONE|DICT|INTERRES
    81   39  164 1    
    82   40   41 2    
    83   40   42 1    
    84   42   43 1    
    85   42   44 1    
    86   42  165 1    
    87   43  166 1    
    88   43  167 1    
    89   43  168 1    
    90   44   45 am   BACKBONE|DICT|INTERRES
    91   44  169 1    
    92   45   46 2    
    93   45   47 1    
    94   47   48 1    
    95   47   49 1    
    96   47  170 1    
    97   48  171 1    
    98   48  172 1    
    99   48  173 1    
   100   49   50 am   BACKBONE|DICT|INTERRES
   101   49  174 1    
   102   50   51 2    
   103   50   52 1    
   104   52   53 1    
   105   52   54 1    
   106   52  175 1    
   107   53  176 1    
   108   53  177 1    
   109   53  178 1    
   110   54   55 am   BACKBONE|DICT|INTERRES
   111   54  179 1    
   112   55   56 2    
   113   55   57 1    
   114   57   58 1    
   115   57   59 1    
   116   57  180 1    
   117   58  181 1    
   118   58  182 1    
   119   58  183 1    
   120   59   60 am   BACKBONE|DICT|INTERRES
   121   59  184 1    
   122   60   61 2    
   123   60   62 1    
   124   62   63 1    
   125   62   64 1    
   126   62  185 1    
   127   63  186 1    
   128   63  187 1    
   129   63  188 1    
   130   64   65 am   BACKBONE|DICT|INTERRES
   131   64  189 1    
   132   65   66 2    
   133   67   68 2    
   134   67   69 am   BACKBONE|DICT|INTERRES
   135   69   70 1    
   136   69  190 1    
   137   70   71 1    
   138   70   72 1    
   139   70  191 1    
   140   71  192 1    
   141   71  193 1    
   142   71  194 1    
   143   72   73 2    
   144   72   74 am   BACKBONE|DICT|INTERRES
   145   74   75 1    
   146   74  195 1    
   147   75   76 1    
   148   75   77 1    
   149   75  196 1    
   150   76  197 1    
   151   76  198 1    
   152   76  199 1    
   153   77   78 2    
   154   77   79 am   BACKBONE|DICT|INTERRES
   155   79   80 1    
   156   79  200 1    
   157   80   81 1    
   158   80   82 1    
   159   80  201 1    
   160   81  202 1    
   161   81  203 1    
   162   81  204 1    
   163   82   83 2    
   164   82   84 am   BACKBONE|DICT|INTERRES
   165   84   85 1    
   166   84  205 1    
   167   85   86 1    
   168   85   87 1    
   169   85  206 1    
   170   86  207 1    
   171   86  208 1    
   172   86  209 1    
   173   87   88 2    
   174   87   89 am   BACKBONE|DICT|INTERRES
   175   89   90 1    
   176   89  210 1    
   177   90   91 1    
   178   90   92 1    
   179   90  211 1    
   180   91  212 1    
   181   91  213 1    
   182   91  214 1    
   183   92   93 2    
   184   92   94 am   BACKBONE|DICT|INTERRES
   185   94   95 1    
   186   94  215 1    
   187   95   96 1    
   188   95   97 1    
   189   95  216 1    
   190   96  217 1    
   191   96  218 1    
   192   96  219 1    
   193   97   98 2    
   194   97   99 am   BACKBONE|DICT|INTERRES
   195   99  100 1    
   196   99  220 1    
   197  100  101 1    
   198  100  102 1    
   199  100  221 1    
   200  101  222 1    
   201  101  223 1    
   202  101  224 1    
   203  102  103 2    
   204  102  104 am   BACKBONE|DICT|INTERRES
   205  104  105 1    
   206  104  225 1    
   207  105  106 1    
   208  105  107 1    
   209  105  226 1    
   210  106  227 1    
   211  106  228 1    
   212  106  229 1    
   213  107  108 2    
   214  107  109 am   BACKBONE|DICT|INTERRES
   215  109  110 1    
   216  109  230 1    
   217  110  111 1    
   218  110  112 1    
   219  110  231 1    
   220  111  232 1    
   221  111  233 1    
   222  111  234 1    
   223  112  113 2    
   224  112  114 am   BACKBONE|DICT|INTERRES
   225  114  115 1    
   226  114  235 1    
   227  115  116 1    
   228  115  117 1    
   229  115  236 1    
   230  116  237 1    
   231  116  238 1    
   232  116  239 1    
   233  117  118 2    
   234  117  119 am   BACKBONE|DICT|INTERRES
   235  119  120 1    
   236  119  240 1    
   237  120  121 1    
   238  120  124 1    
   239  120  241 1    
   240  121  122 am   BACKBONE|DICT|INTERRES
   241  121  123 2    
   242  122  242 1    
   243  122  243 1    
   244  124  125 1    
   245  124  244 1    
   246  124  245 1    
   247  125  126 1    
   248  126  246 1    
   249  126  247 1    
@<TRIPOS>SUBSTRUCTURE
     1 UNK         1 GROUP             0       ****    0 ROOT    
