@<TRIPOS>MOLECULE
3R540
247   249    1
SMALL
USER_CHARGES


@<TRIPOS>ATOM
      1 CA          5.6932  -10.8118  -46.9686 C.3       0 UNK        -0.1800 
      2 C           4.3293  -10.5733  -47.5996 C.2       0 UNK         0.5000 
      3 O           4.1537   -9.5971  -48.3282 O.2       0 UNK        -0.5000 
      4 N           3.3664  -11.4625  -47.3230 N.am      1 UNK        -0.5000 
      5 CA          1.9840  -11.4230  -47.8164 C.3       1 UNK         0.1400 
      6 C6          1.8796  -11.5601  -49.3617 C.3       23 UNK        -0.0398 
      7 S7          0.5028  -12.6487  -49.8598 S.3       23 UNK        -0.2404 
      8 C8          1.3300  -14.2659  -49.7588 C.3       23 UNK        -0.0205 
      9 C9          0.3761  -15.4026  -50.0854 C.ar      23 UNK        -0.0193 
     10 C10         0.1961  -15.8062  -51.4111 C.ar      23 UNK        -0.1150 
     11 C11        -0.6624  -16.8646  -51.7207 C.ar      23 UNK        -0.0193 
     12 C12        -1.3386  -17.5268  -50.6912 C.ar      23 UNK        -0.1150 
     13 C13        -1.1699  -17.1284  -49.3609 C.ar      23 UNK        -0.0193 
     14 C14        -0.3141  -16.0629  -49.0644 C.ar      23 UNK        -0.1150 
     15 C15        -1.9139  -17.8437  -48.2442 C.3       23 UNK        -0.0205 
     16 S16        -0.8321  -19.0271  -47.3862 S.3       23 UNK        -0.2404 
     17 C17        -2.0192  -19.8575  -46.2759 C.3       23 UNK        -0.0398 
     18 CA         -2.2047  -21.3561  -46.6170 C.3       11 UNK         0.1400 
     19 N          -0.9385  -22.0937  -46.6896 N.am      11 UNK        -0.5000 
     20 C          -0.8034  -23.3555  -47.1204 C.2       10 UNK         0.5000 
     21 O          -1.7402  -24.0462  -47.5171 O.2       10 UNK        -0.5000 
     22 CA          0.6090  -23.9606  -47.0520 C.3       10 UNK         0.1400 
     23 CB          1.4594  -23.4812  -48.2377 C.3       10 UNK        -0.1800 
     24 N           1.2874  -23.6384  -45.7956 N.am      10 UNK        -0.5000 
     25 C           0.8910  -24.0740  -44.5904 C.2       9 UNK         0.5000 
     26 O          -0.0488  -24.8496  -44.4207 O.2       9 UNK        -0.5000 
     27 CA          1.6341  -23.5052  -43.3654 C.3       9 UNK         0.1400 
     28 CB          2.8634  -24.3641  -43.0341 C.3       9 UNK        -0.1800 
     29 N           2.0463  -22.1056  -43.5226 N.am      9 UNK        -0.5000 
     30 C           1.2099  -21.0856  -43.7546 C.2       8 UNK         0.5000 
     31 O          -0.0132  -21.2197  -43.8697 O.2       8 UNK        -0.5000 
     32 CA          1.8447  -19.6964  -43.9263 C.3       8 UNK         0.1400 
     33 CB          2.7705  -19.6474  -45.1568 C.3       8 UNK        -0.1800 
     34 N           0.7675  -18.7311  -44.0936 N.am      8 UNK        -0.5000 
     35 C           0.8104  -17.4253  -43.8294 C.2       7 UNK         0.5000 
     36 O           1.8016  -16.8397  -43.3844 O.2       7 UNK        -0.5000 
     37 CA         -0.4909  -16.6574  -44.1055 C.3       7 UNK         0.1400 
     38 CB         -1.5862  -17.0181  -43.0868 C.3       7 UNK        -0.1800 
     39 N          -0.2302  -15.2256  -44.0413 N.am      7 UNK        -0.5000 
     40 C          -0.7051  -14.3074  -44.8885 C.2       6 UNK         0.5000 
     41 O          -1.4837  -14.5641  -45.8071 O.2       6 UNK        -0.5000 
     42 CA         -0.2430  -12.8512  -44.6792 C.3       6 UNK         0.1400 
     43 CB         -1.3866  -12.0052  -44.1006 C.3       6 UNK        -0.1800 
     44 N           0.9376  -12.7162  -43.8185 N.am      6 UNK        -0.5000 
     45 C           2.1844  -13.0794  -44.1577 C.2       5 UNK         0.5000 
     46 O           2.4758  -13.5227  -45.2688 O.2       5 UNK        -0.5000 
     47 CA          3.2985  -12.9095  -43.1053 C.3       5 UNK         0.1400 
     48 CB          4.5362  -12.2222  -43.7072 C.3       5 UNK        -0.1800 
     49 N           2.8580  -12.1434  -41.9393 N.am      5 UNK        -0.5000 
     50 C           2.4091  -12.6720  -40.7924 C.2       4 UNK         0.5000 
     51 O           2.3100  -13.8829  -40.5947 O.2       4 UNK        -0.5000 
     52 CA          1.9891  -11.6916  -39.6768 C.3       4 UNK         0.1400 
     53 CB          3.0869  -11.5963  -38.6059 C.3       4 UNK        -0.1800 
     54 N           1.6827  -10.3426  -40.1592 N.am      4 UNK        -0.5000 
     55 C           0.6301  -10.0246  -40.9233 C.2       3 UNK         0.5000 
     56 O          -0.2157  -10.8460  -41.2801 O.2       3 UNK        -0.5000 
     57 CA          0.5087   -8.5612  -41.4036 C.3       3 UNK         0.1400 
     58 CB          1.6385   -7.6318  -40.9038 C.3       3 UNK        -0.1800 
     59 N           0.3943   -8.4780  -42.8642 N.am      3 UNK        -0.5000 
     60 C           1.2551   -8.9748  -43.7630 C.2       2 UNK         0.5000 
     61 O           2.2981   -9.5684  -43.4712 O.2       2 UNK        -0.5000 
     62 CA          0.8913   -8.7662  -45.2385 C.3       2 UNK         0.1400 
     63 CB          1.3442   -7.3799  -45.7285 C.3       2 UNK        -0.1800 
     64 N           1.5441   -9.8071  -46.0209 N.am      2 UNK        -0.5000 
     65 C           1.1615  -10.2527  -47.2228 C.2       1 UNK         0.5000 
     66 O           0.1964   -9.7938  -47.8356 O.2       1 UNK        -0.5000 
     67 C          -3.1744  -22.0250  -45.6252 C.2       11 UNK         0.5000 
     68 O          -4.3395  -22.2366  -45.9645 O.2       11 UNK        -0.5000 
     69 N          -2.6480  -22.3961  -44.4476 N.am      12 UNK        -0.5000 
     70 CA         -3.3545  -23.1290  -43.3956 C.3       12 UNK         0.1400 
     71 CB         -2.4514  -23.2351  -42.1581 C.3       12 UNK        -0.1800 
     72 C          -3.8362  -24.5224  -43.8450 C.2       12 UNK         0.5000 
     73 O          -4.9272  -24.9402  -43.4573 O.2       12 UNK        -0.5000 
     74 N          -3.0571  -25.1870  -44.7089 N.am      13 UNK        -0.5000 
     75 CA         -3.3858  -26.4525  -45.3710 C.3       13 UNK         0.1400 
     76 CB         -2.0761  -27.1669  -45.7513 C.3       13 UNK        -0.1800 
     77 C          -4.3268  -26.2700  -46.5854 C.2       13 UNK         0.5000 
     78 O          -4.1547  -26.9454  -47.6021 O.2       13 UNK        -0.5000 
     79 N          -5.3024  -25.3574  -46.4649 N.am      14 UNK        -0.5000 
     80 CA         -6.3285  -25.0028  -47.4510 C.3       14 UNK         0.1400 
     81 CB         -7.3467  -26.1531  -47.5962 C.3       14 UNK        -0.1800 
     82 C          -5.7340  -24.5560  -48.8020 C.2       14 UNK         0.5000 
     83 O          -6.1818  -25.0150  -49.8538 O.2       14 UNK        -0.5000 
     84 N          -4.7061  -23.6961  -48.7403 N.am      15 UNK        -0.5000 
     85 CA         -3.9046  -23.2128  -49.8722 C.3       15 UNK         0.1400 
     86 CB         -4.7375  -22.2715  -50.7643 C.3       15 UNK        -0.1800 
     87 C          -3.2523  -24.3738  -50.6506 C.2       15 UNK         0.5000 
     88 O          -3.4050  -24.4723  -51.8685 O.2       15 UNK        -0.5000 
     89 N          -2.5704  -25.2523  -49.9030 N.am      16 UNK        -0.5000 
     90 CA         -1.9322  -26.4993  -50.3316 C.3       16 UNK         0.1400 
     91 CB         -0.6927  -26.1942  -51.1977 C.3       16 UNK        -0.1800 
     92 C          -2.9286  -27.4543  -51.0201 C.2       16 UNK         0.5000 
     93 O          -2.6603  -27.9389  -52.1190 O.2       16 UNK        -0.5000 
     94 N          -4.0905  -27.6599  -50.3823 N.am      17 UNK        -0.5000 
     95 CA         -5.2596  -28.3827  -50.9011 C.3       17 UNK         0.1400 
     96 CB         -4.9799  -29.8985  -50.9563 C.3       17 UNK        -0.1800 
     97 C          -5.7515  -27.8041  -52.2480 C.2       17 UNK         0.5000 
     98 O          -5.9944  -28.5457  -53.2016 O.2       17 UNK        -0.5000 
     99 N          -5.8413  -26.4689  -52.2915 N.am      18 UNK        -0.5000 
    100 CA        -6.1879  -25.6006  -53.4182 C.3       18 UNK         0.1400 
    101 CB        -7.6154  -25.8905  -53.9242 C.3       18 UNK        -0.1800 
    102 C         -5.1578  -25.5579  -54.5693 C.2       18 UNK         0.5000 
    103 O         -5.4253  -24.8990  -55.5753 O.2       18 UNK        -0.5000 
    104 N         -3.9925  -26.2071  -54.4247 N.am      19 UNK        -0.5000 
    105 CA        -2.9243  -26.1942  -55.4302 C.3       19 UNK         0.1400 
    106 CB        -1.9518  -27.3541  -55.1719 C.3       19 UNK        -0.1800 
    107 C         -2.1575  -24.8583  -55.4869 C.2       19 UNK         0.5000 
    108 O         -1.5877  -24.5379  -56.5306 O.2       19 UNK        -0.5000 
    109 N         -2.1604  -24.1048  -54.3803 N.am      20 UNK        -0.5000 
    110 CA        -1.5141  -22.8013  -54.2313 C.3       20 UNK         0.1400 
    111 CB        -0.4965  -22.8755  -53.0778 C.3       20 UNK        -0.1800 
    112 C         -2.5555  -21.6871  -54.0117 C.2       20 UNK         0.5000 
    113 O         -2.2262  -20.6496  -53.4355 O.2       20 UNK        -0.5000 
    114 N         -3.7992  -21.9066  -54.4621 N.am      21 UNK        -0.5000 
    115 CA        -4.8922  -20.9363  -54.4121 C.3       21 UNK         0.1400 
    116 CB        -6.2324  -21.6784  -54.5493 C.3       21 UNK        -0.1800 
    117 C         -4.7079  -19.8514  -55.4910 C.2       21 UNK         0.5000 
    118 O         -5.2902  -19.9467  -56.5729 O.2       21 UNK        -0.5000 
    119 N         -3.8665  -18.8580  -55.1847 N.am      22 UNK        -0.5000 
    120 CA        -3.5330  -17.7224  -56.0603 C.3       22 UNK         0.1400 
    121 C         -4.6703  -16.6769  -56.2742 C.2       22 UNK         0.5000 
    122 N         -5.7619  -16.7111  -55.5193 N.am      22 UNK        -0.7600 
    123 O         -4.5644  -15.8262  -57.1538 O.2       22 UNK        -0.5000 
    124 C124       -2.1986  -17.0514  -55.6399 C.3       23 UNK        -0.0398 
    125 S125       -2.2120  -16.3630  -53.9449 S.3       23 UNK        -0.2404 
    126 C126       -0.8552  -17.2907  -53.1668 C.3       23 UNK        -0.0205 
    127 H127        6.4821  -10.6513  -47.7034 H         1 UNK         0.0600 
    128 H128        5.7896  -11.8295  -46.5907 H         1 UNK         0.0600 
    129 H129        5.8500  -10.1201  -46.1408 H         1 UNK         0.0600 
    130 H130        3.5634  -12.2422  -46.7063 H         1 UNK         0.3000 
    131 H131        1.5379  -12.3168  -47.3828 H         1 UNK         0.0600 
    132 H132        2.7988  -11.9783  -49.7740 H         1 UNK         0.0800 
    133 H133        1.7674  -10.5881  -49.8452 H         1 UNK         0.0800 
    134 H134        1.7431  -14.4035  -48.7580 H         1 UNK         0.0800 
    135 H135        2.1769  -14.2856  -50.4466 H         1 UNK         0.0800 
    136 H136        0.7220  -15.2925  -52.2039 H         1 UNK         0.1150 
    137 H137       -1.9992  -18.3493  -50.9287 H         1 UNK         0.1150 
    138 H138       -0.1817  -15.7535  -48.0366 H         1 UNK         0.1150 
    139 H139       -2.2931  -17.1123  -47.5281 H         1 UNK         0.0800 
    140 H140       -2.7826  -18.3685  -48.6454 H         1 UNK         0.0800 
    141 H141       -2.9800  -19.3415  -46.3229 H         1 UNK         0.0800 
    142 H142       -1.6704  -19.7327  -45.2518 H         1 UNK         0.0800 
    143 H143       -2.6653  -21.4057  -47.6038 H         1 UNK         0.0600 
    144 H144       -0.1236  -21.6092  -46.3457 H         1 UNK         0.3000 
    145 H145        0.5104  -25.0462  -47.1187 H         1 UNK         0.0600 
    146 H146        1.6256  -22.4035  -48.2078 H         1 UNK         0.0600 
    147 H147        2.4332  -23.9710  -48.2472 H         1 UNK         0.0600 
    148 H148        0.9716  -23.7110  -49.1859 H         1 UNK         0.0600 
    149 H149        2.0731  -23.0072  -45.8452 H         1 UNK         0.3000 
    150 H150        0.9481  -23.5521  -42.5173 H         1 UNK         0.0600 
    151 H151        2.5828  -25.4087  -42.8916 H         1 UNK         0.0600 
    152 H152        3.3421  -24.0298  -42.1135 H         1 UNK         0.0600 
    153 H153        3.6064  -24.3295  -43.8318 H         1 UNK         0.0600 
    154 H154        3.0355  -21.9189  -43.4425 H         1 UNK         0.3000 
    155 H155        2.4097  -19.4635  -43.0216 H         1 UNK         0.0600 
    156 H156        3.6049  -20.3422  -45.0575 H         1 UNK         0.0600 
    157 H157        3.1977  -18.6532  -45.2890 H         1 UNK         0.0600 
    158 H158        2.2344  -19.9018  -46.0723 H         1 UNK         0.0600 
    159 H159       -0.1049  -19.1588  -44.3721 H         1 UNK         0.3000 
    160 H160       -0.8270  -16.9311  -45.1078 H         1 UNK         0.0600 
    161 H161       -2.5082  -16.4745  -43.2937 H         1 UNK         0.0600 
    162 H162       -1.2793  -16.7798  -42.0675 H         1 UNK         0.0600 
    163 H163       -1.8252  -18.0817  -43.1187 H         1 UNK         0.0600 
    164 H164        0.4673  -14.9504  -43.3629 H         1 UNK         0.3000 
    165 H165        0.0004  -12.4522  -45.6629 H         1 UNK         0.0600 
    166 H166       -1.6837  -12.3561  -43.1116 H         1 UNK         0.0600 
    167 H167       -1.1006  -10.9578  -44.0129 H         1 UNK         0.0600 
    168 H168       -2.2680  -12.0460  -44.7418 H         1 UNK         0.0600 
    169 H169        0.7797  -12.3355  -42.8946 H         1 UNK         0.3000 
    170 H170        3.5957  -13.9139  -42.7966 H         1 UNK         0.0600 
    171 H171        4.2977  -11.2399  -44.1151 H         1 UNK         0.0600 
    172 H172        5.3174  -12.0921  -42.9581 H         1 UNK         0.0600 
    173 H173        4.9624  -12.8212  -44.5123 H         1 UNK         0.0600 
    174 H174        2.8499  -11.1361  -42.0537 H         1 UNK         0.3000 
    175 H175        1.0896  -12.0969  -39.2086 H         1 UNK         0.0600 
    176 H176        4.0101  -11.1812  -39.0123 H         1 UNK         0.0600 
    177 H177        2.7727  -10.9672  -37.7729 H         1 UNK         0.0600 
    178 H178        3.3214  -12.5801  -38.1971 H         1 UNK         0.0600 
    179 H179        2.3438   -9.6169  -39.9229 H         1 UNK         0.3000 
    180 H180       -0.4315   -8.1874  -40.9959 H         1 UNK         0.0600 
    181 H181        2.6198   -7.9437  -41.2636 H         1 UNK         0.0600 
    182 H182        1.6735   -7.6004  -39.8141 H         1 UNK         0.0600 
    183 H183        1.4764   -6.6090  -41.2441 H         1 UNK         0.0600 
    184 H184       -0.4454   -8.0297  -43.2027 H         1 UNK         0.3000 
    185 H185       -0.1913   -8.8604  -45.3460 H         1 UNK         0.0600 
    186 H186        1.0680   -7.2179  -46.7704 H         1 UNK         0.0600 
    187 H187        0.8802   -6.5852  -45.1431 H         1 UNK         0.0600 
    188 H188        2.4255   -7.2611  -45.6474 H         1 UNK         0.0600 
    189 H189        2.3310  -10.2394  -45.5541 H         1 UNK         0.3000 
    190 H190       -1.6777  -22.1599  -44.2595 H         1 UNK         0.3000 
    191 H191       -4.2371  -22.5460  -43.1249 H         1 UNK         0.0600 
    192 H192       -1.5515  -23.8141  -42.3656 H         1 UNK         0.0600 
    193 H193       -2.1419  -22.2498  -41.8089 H         1 UNK         0.0600 
    194 H194       -2.9735  -23.7243  -41.3350 H         1 UNK         0.0600 
    195 H195       -2.1635  -24.7796  -44.9571 H         1 UNK         0.3000 
    196 H196       -3.9132  -27.0899  -44.6588 H         1 UNK         0.0600 
    197 H197       -1.4377  -27.3095  -44.8793 H         1 UNK         0.0600 
    198 H198       -1.5099  -26.5995  -46.4903 H         1 UNK         0.0600 
    199 H199       -2.2718  -28.1538  -46.1722 H         1 UNK         0.0600 
    200 H200       -5.3504  -24.8555  -45.5869 H         1 UNK         0.3000 
    201 H201       -6.8582  -24.1379  -47.0496 H         1 UNK         0.0600 
    202 H202       -8.1716  -25.8661  -48.2494 H         1 UNK         0.0600 
    203 H203       -7.7768  -26.4221  -46.6315 H         1 UNK         0.0600 
    204 H204       -6.8896  -27.0478  -48.0199 H         1 UNK         0.0600 
    205 H205       -4.4012  -23.3997  -47.8205 H         1 UNK         0.3000 
    206 H206       -3.0836  -22.6283  -49.4598 H         1 UNK         0.0600 
    207 H207       -5.5353  -22.8005  -51.2860 H         1 UNK         0.0600 
    208 H208       -4.1070  -21.8015  -51.5171 H         1 UNK         0.0600 
    209 H209       -5.1912  -21.4719  -50.1791 H         1 UNK         0.0600 
    210 H210       -2.4841  -25.0387  -48.9120 H         1 UNK         0.3000 
    211 H211       -1.5935  -27.0022  -49.4247 H         1 UNK         0.0600 
    212 H212       -0.0055  -25.5243  -50.6815 H         1 UNK         0.0600 
    213 H213       -0.1444  -27.1078  -51.4295 H         1 UNK         0.0600 
    214 H214       -0.9660  -25.7292  -52.1448 H         1 UNK         0.0600 
    215 H215       -4.2028  -27.2431  -49.4600 H         1 UNK         0.3000 
    216 H216       -6.0650  -28.2194  -50.1838 H         1 UNK         0.0600 
    217 H217       -5.8772  -30.4506  -51.2376 H         1 UNK         0.0600 
    218 H218       -4.2045  -30.1421  -51.6832 H         1 UNK         0.0600 
    219 H219       -4.6589  -30.2743  -49.9849 H         1 UNK         0.0600 
    220 H220       -5.6512  -25.9653  -51.4280 H         1 UNK         0.3000 
    221 H221       -6.1923  -24.5951  -52.9978 H         1 UNK         0.0600 
    222 H222       -7.6813  -26.8589  -54.4204 H         1 UNK         0.0600 
    223 H223       -8.3336  -25.8817  -53.1043 H         1 UNK         0.0600 
    224 H224       -7.9370  -25.1350  -54.6421 H         1 UNK         0.0600 
    225 H225       -3.8073  -26.7106  -53.5651 H         1 UNK         0.3000 
    226 H226       -3.3794  -26.3555  -56.4097 H         1 UNK         0.0600 
    227 H227       -2.4795  -28.3035  -55.0790 H         1 UNK         0.0600 
    228 H228       -1.2415  -27.4541  -55.9934 H         1 UNK         0.0600 
    229 H229       -1.3726  -27.1983  -54.2616 H         1 UNK         0.0600 
    230 H230       -2.6791  -24.4254  -53.5634 H         1 UNK         0.3000 
    231 H231       -0.9699  -22.5386  -55.1401 H         1 UNK         0.0600 
    232 H232        0.0674  -21.9462  -52.9902 H         1 UNK         0.0600 
    233 H233        0.2253  -23.6759  -53.2407 H         1 UNK         0.0600 
    234 H234       -0.9840  -23.0540  -52.1196 H         1 UNK         0.0600 
    235 H235       -3.9890  -22.7759  -54.9406 H         1 UNK         0.3000 
    236 H236       -4.8890  -20.4441  -53.4373 H         1 UNK         0.0600 
    237 H237       -6.3870  -22.3645  -53.7178 H         1 UNK         0.0600 
    238 H238       -7.0683  -20.9780  -54.5485 H         1 UNK         0.0600 
    239 H239       -6.2860  -22.2531  -55.4747 H         1 UNK         0.0600 
    240 H240       -3.3825  -18.8919  -54.2964 H         1 UNK         0.3000 
    241 H241       -3.3600  -18.1453  -57.0518 H         1 UNK         0.0600 
    242 H242       -6.4926  -16.0336  -55.6713 H         1 UNK         0.3800 
    243 H243       -5.8581  -17.3979  -54.7893 H         1 UNK         0.3800 
    244 H244       -1.3908  -17.7792  -55.7271 H         1 UNK         0.0800 
    245 H245       -1.9384  -16.2498  -56.3332 H         1 UNK         0.0800 
    246 H246        0.0657  -17.1281  -53.7290 H         1 UNK         0.0800 
    247 H247       -1.0621  -18.3592  -53.2170 H         1 UNK         0.0800 
@<TRIPOS>BOND
     1    1    2 1    
     2    1  127 1    
     3    1  128 1    
     4    1  129 1    
     5    2    3 2    
     6    2    4 am   BACKBONE|DICT|INTERRES
     7    4    5 1    
     8    4  130 1    
     9    5    6 1    
    10    5   65 1    
    11    5  131 1    
    12    6    7 1    
    13    6  132 1    
    14    6  133 1    
    15    7    8 1    
    16    8    9 1    
    17    8  134 1    
    18    8  135 1    
    19    9   10 ar   
    20    9   14 ar   
    21   10   11 ar   
    22   10  136 1    
    23   11   12 ar   
    24   11  126 1    
    25   12   13 ar   
    26   12  137 1    
    27   13   14 ar   
    28   13   15 1    
    29   14  138 1    
    30   15   16 1    
    31   15  139 1    
    32   15  140 1    
    33   16   17 1    
    34   17   18 1    
    35   17  141 1    
    36   17  142 1    
    37   18   19 1    
    38   18   67 1    
    39   18  143 1    
    40   19   20 am   BACKBONE|DICT|INTERRES
    41   19  144 1    
    42   20   21 2    
    43   20   22 1    
    44   22   23 1    
    45   22   24 1    
    46   22  145 1    
    47   23  146 1    
    48   23  147 1    
    49   23  148 1    
    50   24   25 am   BACKBONE|DICT|INTERRES
    51   24  149 1    
    52   25   26 2    
    53   25   27 1    
    54   27   28 1    
    55   27   29 1    
    56   27  150 1    
    57   28  151 1    
    58   28  152 1    
    59   28  153 1    
    60   29   30 am   BACKBONE|DICT|INTERRES
    61   29  154 1    
    62   30   31 2    
    63   30   32 1    
    64   32   33 1    
    65   32   34 1    
    66   32  155 1    
    67   33  156 1    
    68   33  157 1    
    69   33  158 1    
    70   34   35 am   BACKBONE|DICT|INTERRES
    71   34  159 1    
    72   35   36 2    
    73   35   37 1    
    74   37   38 1    
    75   37   39 1    
    76   37  160 1    
    77   38  161 1    
    78   38  162 1    
    79   38  163 1    
    80   39   40 am   BACKBONE|DICT|INTERRES
    81   39  164 1    
    82   40   41 2    
    83   40   42 1    
    84   42   43 1    
    85   42   44 1    
    86   42  165 1    
    87   43  166 1    
    88   43  167 1    
    89   43  168 1    
    90   44   45 am   BACKBONE|DICT|INTERRES
    91   44  169 1    
    92   45   46 2    
    93   45   47 1    
    94   47   48 1    
    95   47   49 1    
    96   47  170 1    
    97   48  171 1    
    98   48  172 1    
    99   48  173 1    
   100   49   50 am   BACKBONE|DICT|INTERRES
   101   49  174 1    
   102   50   51 2    
   103   50   52 1    
   104   52   53 1    
   105   52   54 1    
   106   52  175 1    
   107   53  176 1    
   108   53  177 1    
   109   53  178 1    
   110   54   55 am   BACKBONE|DICT|INTERRES
   111   54  179 1    
   112   55   56 2    
   113   55   57 1    
   114   57   58 1    
   115   57   59 1    
   116   57  180 1    
   117   58  181 1    
   118   58  182 1    
   119   58  183 1    
   120   59   60 am   BACKBONE|DICT|INTERRES
   121   59  184 1    
   122   60   61 2    
   123   60   62 1    
   124   62   63 1    
   125   62   64 1    
   126   62  185 1    
   127   63  186 1    
   128   63  187 1    
   129   63  188 1    
   130   64   65 am   BACKBONE|DICT|INTERRES
   131   64  189 1    
   132   65   66 2    
   133   67   68 2    
   134   67   69 am   BACKBONE|DICT|INTERRES
   135   69   70 1    
   136   69  190 1    
   137   70   71 1    
   138   70   72 1    
   139   70  191 1    
   140   71  192 1    
   141   71  193 1    
   142   71  194 1    
   143   72   73 2    
   144   72   74 am   BACKBONE|DICT|INTERRES
   145   74   75 1    
   146   74  195 1    
   147   75   76 1    
   148   75   77 1    
   149   75  196 1    
   150   76  197 1    
   151   76  198 1    
   152   76  199 1    
   153   77   78 2    
   154   77   79 am   BACKBONE|DICT|INTERRES
   155   79   80 1    
   156   79  200 1    
   157   80   81 1    
   158   80   82 1    
   159   80  201 1    
   160   81  202 1    
   161   81  203 1    
   162   81  204 1    
   163   82   83 2    
   164   82   84 am   BACKBONE|DICT|INTERRES
   165   84   85 1    
   166   84  205 1    
   167   85   86 1    
   168   85   87 1    
   169   85  206 1    
   170   86  207 1    
   171   86  208 1    
   172   86  209 1    
   173   87   88 2    
   174   87   89 am   BACKBONE|DICT|INTERRES
   175   89   90 1    
   176   89  210 1    
   177   90   91 1    
   178   90   92 1    
   179   90  211 1    
   180   91  212 1    
   181   91  213 1    
   182   91  214 1    
   183   92   93 2    
   184   92   94 am   BACKBONE|DICT|INTERRES
   185   94   95 1    
   186   94  215 1    
   187   95   96 1    
   188   95   97 1    
   189   95  216 1    
   190   96  217 1    
   191   96  218 1    
   192   96  219 1    
   193   97   98 2    
   194   97   99 am   BACKBONE|DICT|INTERRES
   195   99  100 1    
   196   99  220 1    
   197  100  101 1    
   198  100  102 1    
   199  100  221 1    
   200  101  222 1    
   201  101  223 1    
   202  101  224 1    
   203  102  103 2    
   204  102  104 am   BACKBONE|DICT|INTERRES
   205  104  105 1    
   206  104  225 1    
   207  105  106 1    
   208  105  107 1    
   209  105  226 1    
   210  106  227 1    
   211  106  228 1    
   212  106  229 1    
   213  107  108 2    
   214  107  109 am   BACKBONE|DICT|INTERRES
   215  109  110 1    
   216  109  230 1    
   217  110  111 1    
   218  110  112 1    
   219  110  231 1    
   220  111  232 1    
   221  111  233 1    
   222  111  234 1    
   223  112  113 2    
   224  112  114 am   BACKBONE|DICT|INTERRES
   225  114  115 1    
   226  114  235 1    
   227  115  116 1    
   228  115  117 1    
   229  115  236 1    
   230  116  237 1    
   231  116  238 1    
   232  116  239 1    
   233  117  118 2    
   234  117  119 am   BACKBONE|DICT|INTERRES
   235  119  120 1    
   236  119  240 1    
   237  120  121 1    
   238  120  124 1    
   239  120  241 1    
   240  121  122 am   BACKBONE|DICT|INTERRES
   241  121  123 2    
   242  122  242 1    
   243  122  243 1    
   244  124  125 1    
   245  124  244 1    
   246  124  245 1    
   247  125  126 1    
   248  126  246 1    
   249  126  247 1    
@<TRIPOS>SUBSTRUCTURE
     1 UNK         1 GROUP             0       ****    0 ROOT    
