@<TRIPOS>MOLECULE
3R540
247   249    1
SMALL
USER_CHARGES


@<TRIPOS>ATOM
      1 CA         -0.2977  -10.2863  -48.2721 C.3       0 UNK        -0.1800 
      2 C           1.0746  -10.6014  -47.6934 C.2       0 UNK         0.5000 
      3 O           1.6070   -9.8131  -46.9113 O.2       0 UNK        -0.5000 
      4 N           1.6482  -11.7455  -48.0841 N.am      1 UNK        -0.5000 
      5 CA          2.9291  -12.2692  -47.5992 C.3       1 UNK         0.1400 
      6 C6          3.3728  -13.5214  -48.3976 C.3       23 UNK        -0.0398 
      7 S7          3.5892  -13.1734  -50.1734 S.3       23 UNK        -0.2404 
      8 C8          3.9033  -14.8466  -50.8324 C.3       23 UNK        -0.0205 
      9 C9          2.7016  -15.7847  -50.7481 C.ar      23 UNK        -0.0193 
     10 C10         1.4244  -15.3566  -51.1253 C.ar      23 UNK        -0.1150 
     11 C11         0.3268  -16.2208  -51.0729 C.ar      23 UNK        -0.0193 
     12 C12         0.5231  -17.5379  -50.6360 C.ar      23 UNK        -0.1150 
     13 C13         1.7973  -17.9899  -50.2813 C.ar      23 UNK        -0.0193 
     14 C14         2.8799  -17.1076  -50.3336 C.ar      23 UNK        -0.1150 
     15 C15         2.0083  -19.4422  -49.8752 C.3       23 UNK        -0.0205 
     16 S16         2.4321  -19.6260  -48.1146 S.3       23 UNK        -0.2404 
     17 C17         0.9164  -19.0324  -47.2965 C.3       23 UNK        -0.0398 
     18 CA          0.0024  -20.1813  -46.8132 C.3       11 UNK         0.1400 
     19 N          -0.7620  -19.8009  -45.6253 N.am      11 UNK        -0.5000 
     20 C          -1.5431  -20.6235  -44.9125 C.2       10 UNK         0.5000 
     21 O          -1.6811  -21.8217  -45.1561 O.2       10 UNK        -0.5000 
     22 CA         -2.3309  -19.9855  -43.7578 C.3       10 UNK         0.1400 
     23 CB         -1.4688  -19.9167  -42.4919 C.3       10 UNK        -0.1800 
     24 N          -2.7907  -18.6418  -44.1063 N.am      10 UNK        -0.5000 
     25 C          -3.8200  -18.3925  -44.9265 C.2       9 UNK         0.5000 
     26 O          -4.5250  -19.2713  -45.4245 O.2       9 UNK        -0.5000 
     27 CA         -4.0757  -16.9143  -45.2784 C.3       9 UNK         0.1400 
     28 CB         -4.8360  -16.2085  -44.1456 C.3       9 UNK        -0.1800 
     29 N          -2.8450  -16.1748  -45.5719 N.am      9 UNK        -0.5000 
     30 C          -2.0405  -16.4343  -46.6116 C.2       8 UNK         0.5000 
     31 O          -2.2589  -17.3179  -47.4365 O.2       8 UNK        -0.5000 
     32 CA         -0.7564  -15.5976  -46.7456 C.3       8 UNK         0.1400 
     33 CB         -1.0375  -14.3187  -47.5460 C.3       8 UNK        -0.1800 
     34 N          -0.0980  -15.2379  -45.4882 N.am      8 UNK        -0.5000 
     35 C           0.2174  -16.0481  -44.4694 C.2       7 UNK         0.5000 
     36 O          -0.0853  -17.2424  -44.4168 O.2       7 UNK        -0.5000 
     37 CA          1.0421  -15.3847  -43.3530 C.3       7 UNK         0.1400 
     38 CB          0.3023  -14.1993  -42.6971 C.3       7 UNK        -0.1800 
     39 N           1.5535  -16.3207  -42.3533 N.am      7 UNK        -0.5000 
     40 C           0.8973  -16.9376  -41.3596 C.2       6 UNK         0.5000 
     41 O          -0.3111  -16.8345  -41.1473 O.2       6 UNK        -0.5000 
     42 CA          1.7647  -17.7822  -40.4067 C.3       6 UNK         0.1400 
     43 CB          1.8096  -19.2503  -40.8565 C.3       6 UNK        -0.1800 
     44 N           3.1337  -17.2702  -40.3500 N.am      6 UNK        -0.5000 
     45 C           3.5746  -16.3077  -39.5283 C.2       5 UNK         0.5000 
     46 O           2.8725  -15.7925  -38.6572 O.2       5 UNK        -0.5000 
     47 CA          5.0259  -15.8051  -39.7245 C.3       5 UNK         0.1400 
     48 CB          5.8097  -15.7542  -38.3970 C.3       5 UNK        -0.1800 
     49 N           5.7769  -16.5207  -40.7657 N.am      5 UNK        -0.5000 
     50 C           6.1618  -17.8076  -40.7712 C.2       4 UNK         0.5000 
     51 O           6.0597  -18.5521  -39.7956 O.2       4 UNK        -0.5000 
     52 CA          6.7027  -18.3756  -42.1048 C.3       4 UNK         0.1400 
     53 CB          6.2840  -19.8461  -42.3141 C.3       4 UNK        -0.1800 
     54 N           6.3564  -17.5857  -43.2962 N.am      4 UNK        -0.5000 
     55 C           5.1323  -17.2614  -43.7393 C.2       3 UNK         0.5000 
     56 O           4.0817  -17.5502  -43.1613 O.2       3 UNK        -0.5000 
     57 CA          5.0839  -16.4135  -45.0229 C.3       3 UNK         0.1400 
     58 CB          4.2580  -17.1197  -46.1088 C.3       3 UNK        -0.1800 
     59 N           4.5277  -15.0752  -44.8173 N.am      3 UNK        -0.5000 
     60 C           4.8460  -14.1843  -43.8658 C.2       2 UNK         0.5000 
     61 O           5.6431  -14.4094  -42.9529 O.2       2 UNK        -0.5000 
     62 CA          4.1726  -12.7980  -43.9831 C.3       2 UNK         0.1400 
     63 CB          4.9838  -11.6958  -43.2791 C.3       2 UNK        -0.1800 
     64 N           3.9780  -12.4175  -45.3872 N.am      2 UNK        -0.5000 
     65 C           2.8613  -12.6160  -46.0978 C.2       1 UNK         0.5000 
     66 O           1.8376  -13.1217  -45.6335 O.2       1 UNK        -0.5000 
     67 C          -0.9119  -20.7016  -47.9417 C.2       11 UNK         0.5000 
     68 O          -0.6251  -21.7515  -48.5102 O.2       11 UNK        -0.5000 
     69 N          -2.0231  -19.9982  -48.2029 N.am      12 UNK        -0.5000 
     70 CA         -3.0732  -20.3920  -49.1425 C.3       12 UNK         0.1400 
     71 CB         -4.1439  -19.2935  -49.1979 C.3       12 UNK        -0.1800 
     72 C          -3.7279  -21.7348  -48.7809 C.2       12 UNK         0.5000 
     73 O          -3.9201  -22.5756  -49.6604 O.2       12 UNK        -0.5000 
     74 N          -4.0387  -21.9168  -47.4895 N.am      13 UNK        -0.5000 
     75 CA         -4.6169  -23.1438  -46.9411 C.3       13 UNK         0.1400 
     76 CB         -5.0339  -22.9124  -45.4813 C.3       13 UNK        -0.1800 
     77 C          -3.6740  -24.3547  -47.0658 C.2       13 UNK         0.5000 
     78 O          -4.1358  -25.4543  -47.3704 O.2       13 UNK        -0.5000 
     79 N          -2.3712  -24.1247  -46.8579 N.am      14 UNK        -0.5000 
     80 CA         -1.3163  -25.1146  -47.0637 C.3       14 UNK         0.1400 
     81 CB         -0.0229  -24.6251  -46.3936 C.3       14 UNK        -0.1800 
     82 C          -1.0788  -25.4243  -48.5545 C.2       14 UNK         0.5000 
     83 O          -0.8592  -26.5857  -48.9006 O.2       14 UNK        -0.5000 
     84 N          -1.1145  -24.3854  -49.4009 N.am      15 UNK        -0.5000 
     85 CA         -0.8688  -24.4593  -50.8390 C.3       15 UNK         0.1400 
     86 CB         -0.7043  -23.0453  -51.4223 C.3       15 UNK        -0.1800 
     87 C          -1.9451  -25.2485  -51.6008 C.2       15 UNK         0.5000 
     88 O          -1.6019  -26.2213  -52.2758 O.2       15 UNK        -0.5000 
     89 N          -3.2116  -24.8193  -51.5026 N.am      16 UNK        -0.5000 
     90 CA         -4.3063  -25.3997  -52.2883 C.3       16 UNK         0.1400 
     91 CB         -4.2473  -24.8740  -53.7340 C.3       16 UNK        -0.1800 
     92 C          -5.7100  -25.1952  -51.6913 C.2       16 UNK         0.5000 
     93 O          -6.6279  -25.9068  -52.1046 O.2       16 UNK        -0.5000 
     94 N          -5.8764  -24.2606  -50.7426 N.am      17 UNK        -0.5000 
     95 CA         -7.1237  -23.9396  -50.0405 C.3       17 UNK         0.1400 
     96 CB         -7.4966  -25.0772  -49.0620 C.3       17 UNK        -0.1800 
     97 C          -8.2596  -23.5576  -51.0136 C.2       17 UNK         0.5000 
     98 O          -8.1818  -22.5065  -51.6496 O.2       17 UNK        -0.5000 
     99 N          -9.2841  -24.4126  -51.1301 N.am      18 UNK        -0.5000 
    100 CA       -10.4298  -24.2343  -52.0232 C.3       18 UNK         0.1400 
    101 CB       -11.4746  -25.3180  -51.7176 C.3       18 UNK        -0.1800 
    102 C        -10.0616  -24.2483  -53.5201 C.2       18 UNK         0.5000 
    103 O        -10.7641  -23.6253  -54.3177 O.2       18 UNK        -0.5000 
    104 N         -8.9626  -24.9247  -53.8830 N.am      19 UNK        -0.5000 
    105 CA        -8.4502  -25.0152  -55.2502 C.3       19 UNK         0.1400 
    106 CB        -7.7143  -26.3553  -55.4263 C.3       19 UNK        -0.1800 
    107 C         -7.5941  -23.7848  -55.6201 C.2       19 UNK         0.5000 
    108 O         -6.4215  -23.9223  -55.9674 O.2       19 UNK        -0.5000 
    109 N         -8.2185  -22.6018  -55.5532 N.am      20 UNK        -0.5000 
    110 CA        -7.6925  -21.2896  -55.9437 C.3       20 UNK         0.1400 
    111 CB        -7.3322  -21.2564  -57.4451 C.3       20 UNK        -0.1800 
    112 C         -6.5652  -20.7505  -55.0362 C.2       20 UNK         0.5000 
    113 O         -5.6687  -20.0581  -55.5253 O.2       20 UNK        -0.5000 
    114 N         -6.6686  -21.0159  -53.7242 N.am      21 UNK        -0.5000 
    115 CA        -5.9056  -20.3962  -52.6343 C.3       21 UNK         0.1400 
    116 CB        -6.4274  -18.9577  -52.4050 C.3       21 UNK        -0.1800 
    117 C         -4.3776  -20.4825  -52.8232 C.2       21 UNK         0.5000 
    118 O         -3.8118  -21.5662  -52.6923 O.2       21 UNK        -0.5000 
    119 N         -3.7433  -19.3415  -53.1116 N.am      22 UNK        -0.5000 
    120 CA        -2.3016  -19.2025  -53.3623 C.3       22 UNK         0.1400 
    121 C         -1.8140  -19.8410  -54.6976 C.2       22 UNK         0.5000 
    122 N         -2.6909  -20.2192  -55.6212 N.am      22 UNK        -0.7600 
    123 O         -0.6127  -19.9947  -54.8989 O.2       22 UNK        -0.5000 
    124 C124       -1.8548  -17.7188  -53.2784 C.3       23 UNK        -0.0398 
    125 S125       -2.3668  -16.9028  -51.7255 S.3       23 UNK        -0.2404 
    126 C126       -1.0379  -15.6733  -51.4962 C.3       23 UNK        -0.0205 
    127 H127       -0.2651   -9.3498  -48.8288 H         1 UNK         0.0600 
    128 H128       -1.0276  -10.1827  -47.4693 H         1 UNK         0.0600 
    129 H129       -0.6440  -11.0710  -48.9455 H         1 UNK         0.0600 
    130 H130        1.1664  -12.3356  -48.7454 H         1 UNK         0.3000 
    131 H131        3.6773  -11.4854  -47.7358 H         1 UNK         0.0600 
    132 H132        4.3220  -13.9056  -48.0192 H         1 UNK         0.0800 
    133 H133        2.6444  -14.3269  -48.2828 H         1 UNK         0.0800 
    134 H134        4.1947  -14.7576  -51.8796 H         1 UNK         0.0800 
    135 H135        4.7619  -15.2713  -50.3099 H         1 UNK         0.0800 
    136 H136        1.2833  -14.3406  -51.4667 H         1 UNK         0.1150 
    137 H137       -0.3073  -18.2261  -50.5796 H         1 UNK         0.1150 
    138 H138        3.8646  -17.4600  -50.0596 H         1 UNK         0.1150 
    139 H139        1.1258  -20.0433  -50.0997 H         1 UNK         0.0800 
    140 H140        2.8177  -19.8619  -50.4739 H         1 UNK         0.0800 
    141 H141        0.3775  -18.3365  -47.9379 H         1 UNK         0.0800 
    142 H142        1.2519  -18.4435  -46.4430 H         1 UNK         0.0800 
    143 H143        0.6358  -21.0148  -46.5014 H         1 UNK         0.0600 
    144 H144       -0.6688  -18.8397  -45.3089 H         1 UNK         0.3000 
    145 H145       -3.1987  -20.6145  -43.5480 H         1 UNK         0.0600 
    146 H146       -0.5788  -19.3092  -42.6548 H         1 UNK         0.0600 
    147 H147       -1.1391  -20.9109  -42.1880 H         1 UNK         0.0600 
    148 H148       -2.0213  -19.4845  -41.6575 H         1 UNK         0.0600 
    149 H149       -2.2116  -17.8721  -43.7970 H         1 UNK         0.3000 
    150 H150       -4.7013  -16.8923  -46.1734 H         1 UNK         0.0600 
    151 H151       -5.7650  -16.7314  -43.9145 H         1 UNK         0.0600 
    152 H152       -5.0995  -15.1879  -44.4239 H         1 UNK         0.0600 
    153 H153       -4.2464  -16.1653  -43.2289 H         1 UNK         0.0600 
    154 H154       -2.5848  -15.4390  -44.9321 H         1 UNK         0.3000 
    155 H155       -0.0422  -16.1899  -47.3174 H         1 UNK         0.0600 
    156 H156       -0.1082  -13.8389  -47.8470 H         1 UNK         0.0600 
    157 H157       -1.6182  -13.5993  -46.9675 H         1 UNK         0.0600 
    158 H158       -1.5980  -14.5369  -48.4551 H         1 UNK         0.0600 
    159 H159        0.2842  -14.2967  -45.4581 H         1 UNK         0.3000 
    160 H160        1.9338  -14.9904  -43.8340 H         1 UNK         0.0600 
    161 H161       -0.6661  -14.4955  -42.2933 H         1 UNK         0.0600 
    162 H162        0.1210  -13.3994  -43.4155 H         1 UNK         0.0600 
    163 H163        0.8885  -13.7703  -41.8844 H         1 UNK         0.0600 
    164 H164        2.5216  -16.5946  -42.4891 H         1 UNK         0.3000 
    165 H165        1.3201  -17.7415  -39.4102 H         1 UNK         0.0600 
    166 H166        2.4906  -19.8328  -40.2356 H         1 UNK         0.0600 
    167 H167        0.8260  -19.7110  -40.7715 H         1 UNK         0.0600 
    168 H168        2.1365  -19.3466  -41.8930 H         1 UNK         0.0600 
    169 H169        3.7599  -17.6017  -41.0736 H         1 UNK         0.3000 
    170 H170        4.9352  -14.7802  -40.0872 H         1 UNK         0.0600 
    171 H171        5.3330  -15.0747  -37.6896 H         1 UNK         0.0600 
    172 H172        5.8654  -16.7314  -37.9172 H         1 UNK         0.0600 
    173 H173        6.8274  -15.3964  -38.5528 H         1 UNK         0.0600 
    174 H174        5.9008  -15.9927  -41.6243 H         1 UNK         0.3000 
    175 H175        7.7901  -18.3475  -42.0238 H         1 UNK         0.0600 
    176 H176        5.1992  -19.9574  -42.3368 H         1 UNK         0.0600 
    177 H177        6.6806  -20.2400  -43.2498 H         1 UNK         0.0600 
    178 H178        6.6613  -20.4824  -41.5127 H         1 UNK         0.0600 
    179 H179        7.1503  -17.2483  -43.8228 H         1 UNK         0.3000 
    180 H180        6.1006  -16.2872  -45.3996 H         1 UNK         0.0600 
    181 H181        4.2978  -16.5814  -47.0560 H         1 UNK         0.0600 
    182 H182        3.2108  -17.2089  -45.8181 H         1 UNK         0.0600 
    183 H183        4.6333  -18.1271  -46.2938 H         1 UNK         0.0600 
    184 H184        3.8456  -14.7823  -45.4987 H         1 UNK         0.3000 
    185 H185        3.2063  -12.8672  -43.4797 H         1 UNK         0.0600 
    186 H186        4.4923  -10.7270  -43.3703 H         1 UNK         0.0600 
    187 H187        5.0887  -11.9037  -42.2134 H         1 UNK         0.0600 
    188 H188        5.9868  -11.6042  -43.6976 H         1 UNK         0.0600 
    189 H189        4.7866  -12.0239  -45.8484 H         1 UNK         0.3000 
    190 H190       -2.1603  -19.1038  -47.7356 H         1 UNK         0.3000 
    191 H191       -2.6236  -20.4900  -50.1322 H         1 UNK         0.0600 
    192 H192       -3.7415  -18.3690  -49.6086 H         1 UNK         0.0600 
    193 H193       -4.5425  -19.0688  -48.2081 H         1 UNK         0.0600 
    194 H194       -4.9827  -19.5962  -49.8227 H         1 UNK         0.0600 
    195 H195       -3.8526  -21.1688  -46.8346 H         1 UNK         0.3000 
    196 H196       -5.5180  -23.3651  -47.5130 H         1 UNK         0.0600 
    197 H197       -4.1778  -22.6911  -44.8444 H         1 UNK         0.0600 
    198 H198       -5.7356  -22.0821  -45.3981 H         1 UNK         0.0600 
    199 H199       -5.5252  -23.7964  -45.0730 H         1 UNK         0.0600 
    200 H200       -2.0819  -23.2031  -46.5450 H         1 UNK         0.3000 
    201 H201       -1.6191  -26.0425  -46.5739 H         1 UNK         0.0600 
    202 H202        0.3276  -23.6882  -46.8274 H         1 UNK         0.0600 
    203 H203        0.7764  -25.3586  -46.5052 H         1 UNK         0.0600 
    204 H204       -0.1702  -24.4626  -45.3257 H         1 UNK         0.0600 
    205 H205       -1.2240  -23.4508  -49.0160 H         1 UNK         0.3000 
    206 H206        0.0792  -24.9823  -50.9808 H         1 UNK         0.0600 
    207 H207        0.1626  -22.5412  -50.9953 H         1 UNK         0.0600 
    208 H208       -0.5590  -23.0797  -52.5028 H         1 UNK         0.0600 
    209 H209       -1.5796  -22.4248  -51.2313 H         1 UNK         0.0600 
    210 H210       -3.4144  -24.0066  -50.9289 H         1 UNK         0.3000 
    211 H211       -4.1612  -26.4818  -52.3174 H         1 UNK         0.0600 
    212 H212       -4.9261  -25.4330  -54.3745 H         1 UNK         0.0600 
    213 H213       -3.2535  -24.9753  -54.1691 H         1 UNK         0.0600 
    214 H214       -4.5322  -23.8237  -53.7929 H         1 UNK         0.0600 
    215 H215       -5.0862  -23.6798  -50.4742 H         1 UNK         0.3000 
    216 H216       -6.9222  -23.0453  -49.4497 H         1 UNK         0.0600 
    217 H217       -8.3838  -24.8219  -48.4811 H         1 UNK         0.0600 
    218 H218       -7.6920  -26.0195  -49.5748 H         1 UNK         0.0600 
    219 H219       -6.6927  -25.2618  -48.3509 H         1 UNK         0.0600 
    220 H220       -9.2564  -25.2681  -50.5948 H         1 UNK         0.3000 
    221 H221      -10.8736  -23.2605  -51.8061 H         1 UNK         0.0600 
    222 H222      -11.8079  -25.2645  -50.6809 H         1 UNK         0.0600 
    223 H223      -11.0785  -26.3191  -51.8930 H         1 UNK         0.0600 
    224 H224      -12.3572  -25.1990  -52.3475 H         1 UNK         0.0600 
    225 H225       -8.3914  -25.3533  -53.1623 H         1 UNK         0.3000 
    226 H226       -9.2920  -25.0268  -55.9459 H         1 UNK         0.0600 
    227 H227       -6.8993  -26.4701  -54.7144 H         1 UNK         0.0600 
    228 H228       -8.3951  -27.1945  -55.2839 H         1 UNK         0.0600 
    229 H229       -7.2949  -26.4469  -56.4290 H         1 UNK         0.0600 
    230 H230       -9.1805  -22.6128  -55.2307 H         1 UNK         0.3000 
    231 H231       -8.5230  -20.5958  -55.8058 H         1 UNK         0.0600 
    232 H232       -6.4544  -21.8639  -57.6663 H         1 UNK         0.0600 
    233 H233       -7.1129  -20.2392  -57.7719 H         1 UNK         0.0600 
    234 H234       -8.1568  -21.6203  -58.0579 H         1 UNK         0.0600 
    235 H235       -7.4039  -21.6398  -53.4116 H         1 UNK         0.3000 
    236 H236       -6.1168  -20.9681  -51.7306 H         1 UNK         0.0600 
    237 H237       -5.8842  -18.4497  -51.6081 H         1 UNK         0.0600 
    238 H238       -6.3468  -18.3423  -53.3017 H         1 UNK         0.0600 
    239 H239       -7.4777  -18.9725  -52.1131 H         1 UNK         0.0600 
    240 H240       -4.2888  -18.4986  -53.2103 H         1 UNK         0.3000 
    241 H241       -1.7874  -19.7447  -52.5662 H         1 UNK         0.0600 
    242 H242       -2.3597  -20.6324  -56.4779 H         1 UNK         0.3800 
    243 H243       -3.6897  -20.1071  -55.4728 H         1 UNK         0.3800 
    244 H244       -2.2683  -17.1479  -54.1115 H         1 UNK         0.0800 
    245 H245       -0.7694  -17.6504  -53.3708 H         1 UNK         0.0800 
    246 H246       -0.9297  -15.1095  -52.4242 H         1 UNK         0.0800 
    247 H247       -1.3673  -14.9579  -50.7433 H         1 UNK         0.0800 
@<TRIPOS>BOND
     1    1    2 1    
     2    1  127 1    
     3    1  128 1    
     4    1  129 1    
     5    2    3 2    
     6    2    4 am   BACKBONE|DICT|INTERRES
     7    4    5 1    
     8    4  130 1    
     9    5    6 1    
    10    5   65 1    
    11    5  131 1    
    12    6    7 1    
    13    6  132 1    
    14    6  133 1    
    15    7    8 1    
    16    8    9 1    
    17    8  134 1    
    18    8  135 1    
    19    9   10 ar   
    20    9   14 ar   
    21   10   11 ar   
    22   10  136 1    
    23   11   12 ar   
    24   11  126 1    
    25   12   13 ar   
    26   12  137 1    
    27   13   14 ar   
    28   13   15 1    
    29   14  138 1    
    30   15   16 1    
    31   15  139 1    
    32   15  140 1    
    33   16   17 1    
    34   17   18 1    
    35   17  141 1    
    36   17  142 1    
    37   18   19 1    
    38   18   67 1    
    39   18  143 1    
    40   19   20 am   BACKBONE|DICT|INTERRES
    41   19  144 1    
    42   20   21 2    
    43   20   22 1    
    44   22   23 1    
    45   22   24 1    
    46   22  145 1    
    47   23  146 1    
    48   23  147 1    
    49   23  148 1    
    50   24   25 am   BACKBONE|DICT|INTERRES
    51   24  149 1    
    52   25   26 2    
    53   25   27 1    
    54   27   28 1    
    55   27   29 1    
    56   27  150 1    
    57   28  151 1    
    58   28  152 1    
    59   28  153 1    
    60   29   30 am   BACKBONE|DICT|INTERRES
    61   29  154 1    
    62   30   31 2    
    63   30   32 1    
    64   32   33 1    
    65   32   34 1    
    66   32  155 1    
    67   33  156 1    
    68   33  157 1    
    69   33  158 1    
    70   34   35 am   BACKBONE|DICT|INTERRES
    71   34  159 1    
    72   35   36 2    
    73   35   37 1    
    74   37   38 1    
    75   37   39 1    
    76   37  160 1    
    77   38  161 1    
    78   38  162 1    
    79   38  163 1    
    80   39   40 am   BACKBONE|DICT|INTERRES
    81   39  164 1    
    82   40   41 2    
    83   40   42 1    
    84   42   43 1    
    85   42   44 1    
    86   42  165 1    
    87   43  166 1    
    88   43  167 1    
    89   43  168 1    
    90   44   45 am   BACKBONE|DICT|INTERRES
    91   44  169 1    
    92   45   46 2    
    93   45   47 1    
    94   47   48 1    
    95   47   49 1    
    96   47  170 1    
    97   48  171 1    
    98   48  172 1    
    99   48  173 1    
   100   49   50 am   BACKBONE|DICT|INTERRES
   101   49  174 1    
   102   50   51 2    
   103   50   52 1    
   104   52   53 1    
   105   52   54 1    
   106   52  175 1    
   107   53  176 1    
   108   53  177 1    
   109   53  178 1    
   110   54   55 am   BACKBONE|DICT|INTERRES
   111   54  179 1    
   112   55   56 2    
   113   55   57 1    
   114   57   58 1    
   115   57   59 1    
   116   57  180 1    
   117   58  181 1    
   118   58  182 1    
   119   58  183 1    
   120   59   60 am   BACKBONE|DICT|INTERRES
   121   59  184 1    
   122   60   61 2    
   123   60   62 1    
   124   62   63 1    
   125   62   64 1    
   126   62  185 1    
   127   63  186 1    
   128   63  187 1    
   129   63  188 1    
   130   64   65 am   BACKBONE|DICT|INTERRES
   131   64  189 1    
   132   65   66 2    
   133   67   68 2    
   134   67   69 am   BACKBONE|DICT|INTERRES
   135   69   70 1    
   136   69  190 1    
   137   70   71 1    
   138   70   72 1    
   139   70  191 1    
   140   71  192 1    
   141   71  193 1    
   142   71  194 1    
   143   72   73 2    
   144   72   74 am   BACKBONE|DICT|INTERRES
   145   74   75 1    
   146   74  195 1    
   147   75   76 1    
   148   75   77 1    
   149   75  196 1    
   150   76  197 1    
   151   76  198 1    
   152   76  199 1    
   153   77   78 2    
   154   77   79 am   BACKBONE|DICT|INTERRES
   155   79   80 1    
   156   79  200 1    
   157   80   81 1    
   158   80   82 1    
   159   80  201 1    
   160   81  202 1    
   161   81  203 1    
   162   81  204 1    
   163   82   83 2    
   164   82   84 am   BACKBONE|DICT|INTERRES
   165   84   85 1    
   166   84  205 1    
   167   85   86 1    
   168   85   87 1    
   169   85  206 1    
   170   86  207 1    
   171   86  208 1    
   172   86  209 1    
   173   87   88 2    
   174   87   89 am   BACKBONE|DICT|INTERRES
   175   89   90 1    
   176   89  210 1    
   177   90   91 1    
   178   90   92 1    
   179   90  211 1    
   180   91  212 1    
   181   91  213 1    
   182   91  214 1    
   183   92   93 2    
   184   92   94 am   BACKBONE|DICT|INTERRES
   185   94   95 1    
   186   94  215 1    
   187   95   96 1    
   188   95   97 1    
   189   95  216 1    
   190   96  217 1    
   191   96  218 1    
   192   96  219 1    
   193   97   98 2    
   194   97   99 am   BACKBONE|DICT|INTERRES
   195   99  100 1    
   196   99  220 1    
   197  100  101 1    
   198  100  102 1    
   199  100  221 1    
   200  101  222 1    
   201  101  223 1    
   202  101  224 1    
   203  102  103 2    
   204  102  104 am   BACKBONE|DICT|INTERRES
   205  104  105 1    
   206  104  225 1    
   207  105  106 1    
   208  105  107 1    
   209  105  226 1    
   210  106  227 1    
   211  106  228 1    
   212  106  229 1    
   213  107  108 2    
   214  107  109 am   BACKBONE|DICT|INTERRES
   215  109  110 1    
   216  109  230 1    
   217  110  111 1    
   218  110  112 1    
   219  110  231 1    
   220  111  232 1    
   221  111  233 1    
   222  111  234 1    
   223  112  113 2    
   224  112  114 am   BACKBONE|DICT|INTERRES
   225  114  115 1    
   226  114  235 1    
   227  115  116 1    
   228  115  117 1    
   229  115  236 1    
   230  116  237 1    
   231  116  238 1    
   232  116  239 1    
   233  117  118 2    
   234  117  119 am   BACKBONE|DICT|INTERRES
   235  119  120 1    
   236  119  240 1    
   237  120  121 1    
   238  120  124 1    
   239  120  241 1    
   240  121  122 am   BACKBONE|DICT|INTERRES
   241  121  123 2    
   242  122  242 1    
   243  122  243 1    
   244  124  125 1    
   245  124  244 1    
   246  124  245 1    
   247  125  126 1    
   248  126  246 1    
   249  126  247 1    
@<TRIPOS>SUBSTRUCTURE
     1 UNK         1 GROUP             0       ****    0 ROOT    
