@<TRIPOS>MOLECULE
3R540
247   249    1
SMALL
USER_CHARGES


@<TRIPOS>ATOM
      1 CA          5.1380  -14.5773  -49.5924 C.3       0 UNK        -0.1800 
      2 C           4.0296  -15.0216  -48.6490 C.2       0 UNK         0.5000 
      3 O           3.9623  -16.1973  -48.2938 O.2       0 UNK        -0.5000 
      4 N           3.1638  -14.0877  -48.2440 N.am      1 UNK        -0.5000 
      5 CA          2.0160  -14.3366  -47.3691 C.3       1 UNK         0.1400 
      6 C6          0.8018  -14.9679  -48.0975 C.3       23 UNK        -0.0398 
      7 S7          0.2372  -14.0658  -49.5878 S.3       23 UNK        -0.2404 
      8 C8          0.7332  -15.1861  -50.9419 C.3       23 UNK        -0.0205 
      9 C9          0.1724  -16.5917  -50.7699 C.ar      23 UNK        -0.0193 
     10 C10        -1.2094  -16.8083  -50.7711 C.ar      23 UNK        -0.1150 
     11 C11        -1.7277  -18.0839  -50.5317 C.ar      23 UNK        -0.0193 
     12 C12        -0.8488  -19.1486  -50.3119 C.ar      23 UNK        -0.1150 
     13 C13         0.5339  -18.9513  -50.3299 C.ar      23 UNK        -0.0193 
     14 C14         1.0388  -17.6703  -50.5651 C.ar      23 UNK        -0.1150 
     15 C15         1.4780  -20.1241  -50.1044 C.3       23 UNK        -0.0205 
     16 S16         2.4501  -19.9885  -48.5658 S.3       23 UNK        -0.2404 
     17 C17         1.1817  -19.9071  -47.2558 C.3       23 UNK        -0.0398 
     18 CA          0.6003  -21.2964  -46.8753 C.3       11 UNK         0.1400 
     19 N           0.4424  -21.4666  -45.4288 N.am      11 UNK        -0.5000 
     20 C           0.0415  -22.5948  -44.8228 C.2       10 UNK         0.5000 
     21 O          -0.1609  -23.6589  -45.4080 O.2       10 UNK        -0.5000 
     22 CA         -0.2427  -22.4961  -43.3150 C.3       10 UNK         0.1400 
     23 CB          1.0443  -22.6817  -42.4976 C.3       10 UNK        -0.1800 
     24 N          -0.8737  -21.2206  -42.9723 N.am      10 UNK        -0.5000 
     25 C          -2.1321  -20.8945  -43.3012 C.2       9 UNK         0.5000 
     26 O          -2.9069  -21.6594  -43.8762 O.2       9 UNK        -0.5000 
     27 CA         -2.5854  -19.4603  -42.9704 C.3       9 UNK         0.1400 
     28 CB         -3.0400  -19.3592  -41.5069 C.3       9 UNK        -0.1800 
     29 N          -1.5458  -18.4610  -43.2263 N.am      9 UNK        -0.5000 
     30 C          -1.0765  -18.1516  -44.4433 C.2       8 UNK         0.5000 
     31 O          -1.4826  -18.6665  -45.4835 O.2       8 UNK        -0.5000 
     32 CA          0.0689  -17.1248  -44.5108 C.3       8 UNK         0.1400 
     33 CB         -0.5032  -15.7010  -44.5327 C.3       8 UNK        -0.1800 
     34 N           1.0480  -17.2300  -43.4247 N.am      8 UNK        -0.5000 
     35 C           1.7216  -18.3370  -43.0766 C.2       7 UNK         0.5000 
     36 O           1.5500  -19.4349  -43.6092 O.2       7 UNK        -0.5000 
     37 CA          2.7549  -18.1673  -41.9447 C.3       7 UNK         0.1400 
     38 CB          3.5665  -19.4469  -41.6561 C.3       7 UNK        -0.1800 
     39 N           3.6331  -17.0205  -42.1878 N.am      7 UNK        -0.5000 
     40 C           4.4858  -16.8414  -43.2079 C.2       6 UNK         0.5000 
     41 O           4.7441  -17.7011  -44.0501 O.2       6 UNK        -0.5000 
     42 CA          5.1412  -15.4522  -43.3328 C.3       6 UNK         0.1400 
     43 CB          4.5964  -14.7320  -44.5713 C.3       6 UNK        -0.1800 
     44 N           4.8919  -14.6044  -42.1652 N.am      6 UNK        -0.5000 
     45 C           5.6927  -14.5268  -41.0945 C.2       5 UNK         0.5000 
     46 O           6.7716  -15.1126  -40.9994 O.2       5 UNK        -0.5000 
     47 CA          5.1836  -13.6747  -39.9161 C.3       5 UNK         0.1400 
     48 CB          5.6069  -12.2075  -40.0823 C.3       5 UNK        -0.1800 
     49 N           3.7292  -13.7461  -39.7539 N.am      5 UNK        -0.5000 
     50 C           3.0607  -14.8442  -39.3715 C.2       4 UNK         0.5000 
     51 O           3.6073  -15.9086  -39.0844 O.2       4 UNK        -0.5000 
     52 CA          1.5230  -14.7621  -39.3353 C.3       4 UNK         0.1400 
     53 CB          1.0337  -14.4879  -37.9054 C.3       4 UNK        -0.1800 
     54 N           0.9589  -13.7528  -40.2334 N.am      4 UNK        -0.5000 
     55 C           1.0289  -13.7749  -41.5708 C.2       3 UNK         0.5000 
     56 O           1.6036  -14.6663  -42.2022 O.2       3 UNK        -0.5000 
     57 CA          0.3235  -12.6246  -42.3250 C.3       3 UNK         0.1400 
     58 CB          0.0386  -11.3858  -41.4457 C.3       3 UNK        -0.1800 
     59 N           1.0231  -12.2148  -43.5450 N.am      3 UNK        -0.5000 
     60 C           2.2841  -11.7791  -43.6609 C.2       2 UNK         0.5000 
     61 O           3.0862  -11.7424  -42.7255 O.2       2 UNK        -0.5000 
     62 CA          2.7090  -11.3212  -45.0756 C.3       2 UNK         0.1400 
     63 CB          4.0778  -10.6168  -45.0795 C.3       2 UNK        -0.1800 
     64 N           2.7536  -12.4343  -46.0255 N.am      2 UNK        -0.5000 
     65 C           1.6964  -13.0831  -46.5330 C.2       1 UNK         0.5000 
     66 O           0.5308  -12.7373  -46.3331 O.2       1 UNK        -0.5000 
     67 C          -0.7257  -21.5722  -47.6105 C.2       11 UNK         0.5000 
     68 O          -0.7491  -22.3920  -48.5256 O.2       11 UNK        -0.5000 
     69 N          -1.8110  -20.9237  -47.1625 N.am      12 UNK        -0.5000 
     70 CA         -3.1657  -21.0891  -47.6886 C.3       12 UNK         0.1400 
     71 CB         -4.1180  -20.1076  -46.9895 C.3       12 UNK        -0.1800 
     72 C          -3.6887  -22.5288  -47.5700 C.2       12 UNK         0.5000 
     73 O          -4.2678  -23.0360  -48.5299 O.2       12 UNK        -0.5000 
     74 N          -3.4441  -23.1713  -46.4192 N.am      13 UNK        -0.5000 
     75 CA         -3.7899  -24.5702  -46.1661 C.3       13 UNK         0.1400 
     76 CB         -3.5179  -24.9138  -44.6939 C.3       13 UNK        -0.1800 
     77 C          -3.0546  -25.5442  -47.1054 C.2       13 UNK         0.5000 
     78 O          -3.6879  -26.4448  -47.6569 O.2       13 UNK        -0.5000 
     79 N          -1.7466  -25.3246  -47.3015 N.am      14 UNK        -0.5000 
     80 CA         -0.9062  -26.0938  -48.2216 C.3       14 UNK         0.1400 
     81 CB          0.5695  -25.7446  -47.9750 C.3       14 UNK        -0.1800 
     82 C          -1.2788  -25.8720  -49.7003 C.2       14 UNK         0.5000 
     83 O          -1.2719  -26.8242  -50.4811 O.2       14 UNK        -0.5000 
     84 N          -1.6103  -24.6233  -50.0508 N.am      15 UNK        -0.5000 
     85 CA         -2.0079  -24.1943  -51.3917 C.3       15 UNK         0.1400 
     86 CB         -1.8607  -22.6684  -51.4761 C.3       15 UNK        -0.1800 
     87 C          -3.4361  -24.6084  -51.7959 C.2       15 UNK         0.5000 
     88 O          -3.7663  -24.5152  -52.9785 O.2       15 UNK        -0.5000 
     89 N          -4.2463  -25.0369  -50.8174 N.am      16 UNK        -0.5000 
     90 CA         -5.6667  -25.3885  -50.9172 C.3       16 UNK         0.1400 
     91 CB         -5.8974  -26.5565  -51.8996 C.3       16 UNK        -0.1800 
     92 C          -6.5772  -24.1690  -51.1838 C.2       16 UNK         0.5000 
     93 O          -7.6315  -24.3121  -51.8050 O.2       16 UNK        -0.5000 
     94 N          -6.1694  -23.0077  -50.6525 N.am      17 UNK        -0.5000 
     95 CA         -6.8692  -21.7218  -50.6433 C.3       17 UNK         0.1400 
     96 CB         -8.0962  -21.8005  -49.7068 C.3       17 UNK        -0.1800 
     97 C          -7.1886  -21.1631  -52.0506 C.2       17 UNK         0.5000 
     98 O          -6.4260  -21.3822  -52.9954 O.2       17 UNK        -0.5000 
     99 N          -8.2800  -20.3911  -52.1498 N.am      18 UNK        -0.5000 
    100 CA        -8.7672  -19.7597  -53.3754 C.3       18 UNK         0.1400 
    101 CB        -9.9251  -18.8140  -53.0210 C.3       18 UNK        -0.1800 
    102 C         -9.2132  -20.7908  -54.4285 C.2       18 UNK         0.5000 
    103 O         -9.7122  -21.8600  -54.0700 O.2       18 UNK        -0.5000 
    104 N         -9.0301  -20.4306  -55.7071 N.am      19 UNK        -0.5000 
    105 CA        -9.2423  -21.2669  -56.8976 C.3       19 UNK         0.1400 
    106 CB       -10.7276  -21.6564  -57.0577 C.3       19 UNK        -0.1800 
    107 C         -8.2845  -22.4790  -56.9619 C.2       19 UNK         0.5000 
    108 O         -8.6184  -23.5037  -57.5600 O.2       19 UNK        -0.5000 
    109 N         -7.1006  -22.3248  -56.3592 N.am      20 UNK        -0.5000 
    110 CA        -6.0071  -23.2876  -56.3432 C.3       20 UNK         0.1400 
    111 CB        -6.1570  -24.2408  -55.1434 C.3       20 UNK        -0.1800 
    112 C         -4.6761  -22.5150  -56.3973 C.2       20 UNK         0.5000 
    113 O         -4.6017  -21.4978  -57.0938 O.2       20 UNK        -0.5000 
    114 N         -3.6381  -22.9901  -55.6947 N.am      21 UNK        -0.5000 
    115 CA        -2.2654  -22.4832  -55.8127 C.3       21 UNK         0.1400 
    116 CB        -1.2824  -23.5020  -55.2188 C.3       21 UNK        -0.1800 
    117 C         -2.0344  -21.0629  -55.2529 C.2       21 UNK         0.5000 
    118 O         -0.9823  -20.4841  -55.5284 O.2       21 UNK        -0.5000 
    119 N         -3.0146  -20.5014  -54.5300 N.am      22 UNK        -0.5000 
    120 CA        -3.0622  -19.0661  -54.1952 C.3       22 UNK         0.1400 
    121 C         -3.3012  -18.1412  -55.4287 C.2       22 UNK         0.5000 
    122 N         -3.7754  -18.6432  -56.5651 N.am      22 UNK        -0.7600 
    123 O         -3.0504  -16.9418  -55.3521 O.2       22 UNK        -0.5000 
    124 C124       -4.1094  -18.7438  -53.1000 C.3       23 UNK        -0.0398 
    125 S125       -3.8316  -19.6271  -51.5299 S.3       23 UNK        -0.2404 
    126 C126       -3.2321  -18.2980  -50.4375 C.3       23 UNK        -0.0205 
    127 H127        5.0752  -15.1300  -50.5297 H         1 UNK         0.0600 
    128 H128        6.1124  -14.7724  -49.1445 H         1 UNK         0.0600 
    129 H129        5.0749  -13.5130  -49.8204 H         1 UNK         0.0600 
    130 H130        3.2533  -13.1379  -48.5792 H         1 UNK         0.3000 
    131 H131        2.3286  -15.0675  -46.6201 H         1 UNK         0.0600 
    132 H132        1.0607  -15.9922  -48.3600 H         1 UNK         0.0800 
    133 H133       -0.0482  -15.0640  -47.4215 H         1 UNK         0.0800 
    134 H134        0.3829  -14.7752  -51.8896 H         1 UNK         0.0800 
    135 H135        1.8225  -15.2072  -50.9993 H         1 UNK         0.0800 
    136 H136       -1.8785  -15.9722  -50.9185 H         1 UNK         0.1150 
    137 H137       -1.2466  -20.1342  -50.1229 H         1 UNK         0.1150 
    138 H138        2.1084  -17.5117  -50.5592 H         1 UNK         0.1150 
    139 H139        0.9347  -21.0691  -50.1045 H         1 UNK         0.0800 
    140 H140        2.1699  -20.1801  -50.9457 H         1 UNK         0.0800 
    141 H141        0.4105  -19.1829  -47.5251 H         1 UNK         0.0800 
    142 H142        1.6859  -19.4693  -46.3933 H         1 UNK         0.0800 
    143 H143        1.3070  -22.0691  -47.1862 H         1 UNK         0.0600 
    144 H144        0.6356  -20.6570  -44.8472 H         1 UNK         0.3000 
    145 H145       -0.9310  -23.3009  -43.0482 H         1 UNK         0.0600 
    146 H146        0.8479  -22.6112  -41.4278 H         1 UNK         0.0600 
    147 H147        1.4819  -23.6631  -42.6843 H         1 UNK         0.0600 
    148 H148        1.7984  -21.9370  -42.7518 H         1 UNK         0.0600 
    149 H149       -0.2754  -20.5135  -42.5698 H         1 UNK         0.3000 
    150 H150       -3.4405  -19.2286  -43.6092 H         1 UNK         0.0600 
    151 H151       -3.8281  -20.0824  -41.2928 H         1 UNK         0.0600 
    152 H152       -3.4404  -18.3696  -41.2861 H         1 UNK         0.0600 
    153 H153       -2.2199  -19.5525  -40.8144 H         1 UNK         0.0600 
    154 H154       -1.1520  -17.9918  -42.4244 H         1 UNK         0.3000 
    155 H155        0.6050  -17.2924  -45.4468 H         1 UNK         0.0600 
    156 H156       -1.2165  -15.5738  -45.3478 H         1 UNK         0.0600 
    157 H157        0.2862  -14.9639  -44.6697 H         1 UNK         0.0600 
    158 H158       -1.0224  -15.4634  -43.6036 H         1 UNK         0.0600 
    159 H159        1.2754  -16.3604  -42.9479 H         1 UNK         0.3000 
    160 H160        2.1875  -17.9306  -41.0437 H         1 UNK         0.0600 
    161 H161        4.0996  -19.8018  -42.5386 H         1 UNK         0.0600 
    162 H162        2.9123  -20.2535  -41.3246 H         1 UNK         0.0600 
    163 H163        4.2984  -19.2786  -40.8662 H         1 UNK         0.0600 
    164 H164        3.5011  -16.2361  -41.5656 H         1 UNK         0.3000 
    165 H165        6.2148  -15.6001  -43.4662 H         1 UNK         0.0600 
    166 H166        3.5190  -14.5882  -44.4896 H         1 UNK         0.0600 
    167 H167        5.0661  -13.7568  -44.6957 H         1 UNK         0.0600 
    168 H168        4.7873  -15.3059  -45.4792 H         1 UNK         0.0600 
    169 H169        4.0259  -14.0798  -42.1628 H         1 UNK         0.3000 
    170 H170        5.6452  -14.0601  -39.0045 H         1 UNK         0.0600 
    171 H171        6.6906  -12.1225  -40.1732 H         1 UNK         0.0600 
    172 H172        5.1676  -11.7587  -40.9738 H         1 UNK         0.0600 
    173 H173        5.3056  -11.6097  -39.2220 H         1 UNK         0.0600 
    174 H174        3.2031  -12.9191  -39.9981 H         1 UNK         0.3000 
    175 H175        1.1386  -15.7358  -39.6464 H         1 UNK         0.0600 
    176 H176        1.3657  -13.5129  -37.5465 H         1 UNK         0.0600 
    177 H177       -0.0547  -14.5151  -37.8483 H         1 UNK         0.0600 
    178 H178        1.4123  -15.2396  -37.2113 H         1 UNK         0.0600 
    179 H179        0.4717  -12.9858  -39.7930 H         1 UNK         0.3000 
    180 H180       -0.6366  -13.0268  -42.6504 H         1 UNK         0.0600 
    181 H181        0.9523  -10.9743  -41.0146 H         1 UNK         0.0600 
    182 H182       -0.6437  -11.6209  -40.6281 H         1 UNK         0.0600 
    183 H183       -0.4340  -10.5952  -42.0290 H         1 UNK         0.0600 
    184 H184        0.4897  -12.2909  -44.4058 H         1 UNK         0.3000 
    185 H185        1.9652  -10.6001  -45.4210 H         1 UNK         0.0600 
    186 H186        4.0762   -9.7588  -44.4060 H         1 UNK         0.0600 
    187 H187        4.8787  -11.2835  -44.7581 H         1 UNK         0.0600 
    188 H188        4.3281  -10.2464  -46.0737 H         1 UNK         0.0600 
    189 H189        3.6727  -12.7944  -46.2359 H         1 UNK         0.3000 
    190 H190       -1.6977  -20.2305  -46.4259 H         1 UNK         0.3000 
    191 H191       -3.1369  -20.8409  -48.7498 H         1 UNK         0.0600 
    192 H192       -3.7763  -19.0782  -47.0956 H         1 UNK         0.0600 
    193 H193       -4.2023  -20.3186  -45.9233 H         1 UNK         0.0600 
    194 H194       -5.1196  -20.1655  -47.4174 H         1 UNK         0.0600 
    195 H195       -3.0026  -22.6645  -45.6591 H         1 UNK         0.3000 
    196 H196       -4.8611  -24.6823  -46.3462 H         1 UNK         0.0600 
    197 H197       -3.7963  -25.9456  -44.4761 H         1 UNK         0.0600 
    198 H198       -4.0950  -24.2732  -44.0268 H         1 UNK         0.0600 
    199 H199       -2.4644  -24.7975  -44.4398 H         1 UNK         0.0600 
    200 H200       -1.2907  -24.5762  -46.7877 H         1 UNK         0.3000 
    201 H201       -1.0456  -27.1538  -47.9993 H         1 UNK         0.0600 
    202 H202        0.8612  -25.9711  -46.9494 H         1 UNK         0.0600 
    203 H203        0.7681  -24.6868  -48.1514 H         1 UNK         0.0600 
    204 H204        1.2229  -26.3171  -48.6343 H         1 UNK         0.0600 
    205 H205       -1.5116  -23.8846  -49.3579 H         1 UNK         0.3000 
    206 H206       -1.3223  -24.6507  -52.1072 H         1 UNK         0.0600 
    207 H207       -0.8220  -22.3636  -51.3527 H         1 UNK         0.0600 
    208 H208       -2.2018  -22.2807  -52.4350 H         1 UNK         0.0600 
    209 H209       -2.4519  -22.1758  -50.7048 H         1 UNK         0.0600 
    210 H210       -3.8698  -25.0300  -49.8784 H         1 UNK         0.3000 
    211 H211       -5.9437  -25.7471  -49.9249 H         1 UNK         0.0600 
    212 H212       -5.7308  -26.2583  -52.9343 H         1 UNK         0.0600 
    213 H213       -5.2350  -27.3936  -51.6795 H         1 UNK         0.0600 
    214 H214       -6.9209  -26.9263  -51.8308 H         1 UNK         0.0600 
    215 H215       -5.3039  -23.0243  -50.1196 H         1 UNK         0.3000 
    216 H216       -6.1686  -21.0158  -50.1965 H         1 UNK         0.0600 
    217 H217       -7.8240  -22.2330  -48.7437 H         1 UNK         0.0600 
    218 H218       -8.8907  -22.4148  -50.1328 H         1 UNK         0.0600 
    219 H219       -8.5089  -20.8126  -49.5005 H         1 UNK         0.0600 
    220 H220       -8.8628  -20.2831  -51.3335 H         1 UNK         0.3000 
    221 H221       -7.9484  -19.1678  -53.7899 H         1 UNK         0.0600 
    222 H222      -10.7640  -19.3538  -52.5796 H         1 UNK         0.0600 
    223 H223       -9.6078  -18.0480  -52.3130 H         1 UNK         0.0600 
    224 H224      -10.2969  -18.3001  -53.9084 H         1 UNK         0.0600 
    225 H225       -8.6395  -19.5169  -55.8929 H         1 UNK         0.3000 
    226 H226       -8.9808  -20.6407  -57.7517 H         1 UNK         0.0600 
    227 H227      -11.3741  -20.7810  -56.9971 H         1 UNK         0.0600 
    228 H228      -10.9054  -22.1228  -58.0273 H         1 UNK         0.0600 
    229 H229      -11.0483  -22.3653  -56.2942 H         1 UNK         0.0600 
    230 H230       -6.8964  -21.4399  -55.9169 H         1 UNK         0.3000 
    231 H231       -6.0444  -23.8830  -57.2574 H         1 UNK         0.0600 
    232 H232       -5.4102  -25.0347  -55.1702 H         1 UNK         0.0600 
    233 H233       -7.1342  -24.7235  -55.1421 H         1 UNK         0.0600 
    234 H234       -6.0526  -23.7123  -54.1963 H         1 UNK         0.0600 
    235 H235       -3.7821  -23.7627  -55.0535 H         1 UNK         0.3000 
    236 H236       -2.0426  -22.4183  -56.8800 H         1 UNK         0.0600 
    237 H237       -1.3709  -24.4697  -55.7128 H         1 UNK         0.0600 
    238 H238       -0.2503  -23.1702  -55.3385 H         1 UNK         0.0600 
    239 H239       -1.4548  -23.6532  -54.1579 H         1 UNK         0.0600 
    240 H240       -3.8415  -21.0420  -54.3199 H         1 UNK         0.3000 
    241 H241       -2.0833  -18.7932  -53.7954 H         1 UNK         0.0600 
    242 H242       -3.9940  -19.6297  -56.6581 H         1 UNK         0.3800 
    243 H243       -3.9191  -18.0294  -57.3511 H         1 UNK         0.3800 
    244 H244       -4.1327  -17.6715  -52.8996 H         1 UNK         0.0800 
    245 H245       -5.1093  -19.0002  -53.4532 H         1 UNK         0.0800 
    246 H246       -3.4718  -18.5602  -49.4084 H         1 UNK         0.0800 
    247 H247       -3.7775  -17.3753  -50.6398 H         1 UNK         0.0800 
@<TRIPOS>BOND
     1    1    2 1    
     2    1  127 1    
     3    1  128 1    
     4    1  129 1    
     5    2    3 2    
     6    2    4 am   BACKBONE|DICT|INTERRES
     7    4    5 1    
     8    4  130 1    
     9    5    6 1    
    10    5   65 1    
    11    5  131 1    
    12    6    7 1    
    13    6  132 1    
    14    6  133 1    
    15    7    8 1    
    16    8    9 1    
    17    8  134 1    
    18    8  135 1    
    19    9   10 ar   
    20    9   14 ar   
    21   10   11 ar   
    22   10  136 1    
    23   11   12 ar   
    24   11  126 1    
    25   12   13 ar   
    26   12  137 1    
    27   13   14 ar   
    28   13   15 1    
    29   14  138 1    
    30   15   16 1    
    31   15  139 1    
    32   15  140 1    
    33   16   17 1    
    34   17   18 1    
    35   17  141 1    
    36   17  142 1    
    37   18   19 1    
    38   18   67 1    
    39   18  143 1    
    40   19   20 am   BACKBONE|DICT|INTERRES
    41   19  144 1    
    42   20   21 2    
    43   20   22 1    
    44   22   23 1    
    45   22   24 1    
    46   22  145 1    
    47   23  146 1    
    48   23  147 1    
    49   23  148 1    
    50   24   25 am   BACKBONE|DICT|INTERRES
    51   24  149 1    
    52   25   26 2    
    53   25   27 1    
    54   27   28 1    
    55   27   29 1    
    56   27  150 1    
    57   28  151 1    
    58   28  152 1    
    59   28  153 1    
    60   29   30 am   BACKBONE|DICT|INTERRES
    61   29  154 1    
    62   30   31 2    
    63   30   32 1    
    64   32   33 1    
    65   32   34 1    
    66   32  155 1    
    67   33  156 1    
    68   33  157 1    
    69   33  158 1    
    70   34   35 am   BACKBONE|DICT|INTERRES
    71   34  159 1    
    72   35   36 2    
    73   35   37 1    
    74   37   38 1    
    75   37   39 1    
    76   37  160 1    
    77   38  161 1    
    78   38  162 1    
    79   38  163 1    
    80   39   40 am   BACKBONE|DICT|INTERRES
    81   39  164 1    
    82   40   41 2    
    83   40   42 1    
    84   42   43 1    
    85   42   44 1    
    86   42  165 1    
    87   43  166 1    
    88   43  167 1    
    89   43  168 1    
    90   44   45 am   BACKBONE|DICT|INTERRES
    91   44  169 1    
    92   45   46 2    
    93   45   47 1    
    94   47   48 1    
    95   47   49 1    
    96   47  170 1    
    97   48  171 1    
    98   48  172 1    
    99   48  173 1    
   100   49   50 am   BACKBONE|DICT|INTERRES
   101   49  174 1    
   102   50   51 2    
   103   50   52 1    
   104   52   53 1    
   105   52   54 1    
   106   52  175 1    
   107   53  176 1    
   108   53  177 1    
   109   53  178 1    
   110   54   55 am   BACKBONE|DICT|INTERRES
   111   54  179 1    
   112   55   56 2    
   113   55   57 1    
   114   57   58 1    
   115   57   59 1    
   116   57  180 1    
   117   58  181 1    
   118   58  182 1    
   119   58  183 1    
   120   59   60 am   BACKBONE|DICT|INTERRES
   121   59  184 1    
   122   60   61 2    
   123   60   62 1    
   124   62   63 1    
   125   62   64 1    
   126   62  185 1    
   127   63  186 1    
   128   63  187 1    
   129   63  188 1    
   130   64   65 am   BACKBONE|DICT|INTERRES
   131   64  189 1    
   132   65   66 2    
   133   67   68 2    
   134   67   69 am   BACKBONE|DICT|INTERRES
   135   69   70 1    
   136   69  190 1    
   137   70   71 1    
   138   70   72 1    
   139   70  191 1    
   140   71  192 1    
   141   71  193 1    
   142   71  194 1    
   143   72   73 2    
   144   72   74 am   BACKBONE|DICT|INTERRES
   145   74   75 1    
   146   74  195 1    
   147   75   76 1    
   148   75   77 1    
   149   75  196 1    
   150   76  197 1    
   151   76  198 1    
   152   76  199 1    
   153   77   78 2    
   154   77   79 am   BACKBONE|DICT|INTERRES
   155   79   80 1    
   156   79  200 1    
   157   80   81 1    
   158   80   82 1    
   159   80  201 1    
   160   81  202 1    
   161   81  203 1    
   162   81  204 1    
   163   82   83 2    
   164   82   84 am   BACKBONE|DICT|INTERRES
   165   84   85 1    
   166   84  205 1    
   167   85   86 1    
   168   85   87 1    
   169   85  206 1    
   170   86  207 1    
   171   86  208 1    
   172   86  209 1    
   173   87   88 2    
   174   87   89 am   BACKBONE|DICT|INTERRES
   175   89   90 1    
   176   89  210 1    
   177   90   91 1    
   178   90   92 1    
   179   90  211 1    
   180   91  212 1    
   181   91  213 1    
   182   91  214 1    
   183   92   93 2    
   184   92   94 am   BACKBONE|DICT|INTERRES
   185   94   95 1    
   186   94  215 1    
   187   95   96 1    
   188   95   97 1    
   189   95  216 1    
   190   96  217 1    
   191   96  218 1    
   192   96  219 1    
   193   97   98 2    
   194   97   99 am   BACKBONE|DICT|INTERRES
   195   99  100 1    
   196   99  220 1    
   197  100  101 1    
   198  100  102 1    
   199  100  221 1    
   200  101  222 1    
   201  101  223 1    
   202  101  224 1    
   203  102  103 2    
   204  102  104 am   BACKBONE|DICT|INTERRES
   205  104  105 1    
   206  104  225 1    
   207  105  106 1    
   208  105  107 1    
   209  105  226 1    
   210  106  227 1    
   211  106  228 1    
   212  106  229 1    
   213  107  108 2    
   214  107  109 am   BACKBONE|DICT|INTERRES
   215  109  110 1    
   216  109  230 1    
   217  110  111 1    
   218  110  112 1    
   219  110  231 1    
   220  111  232 1    
   221  111  233 1    
   222  111  234 1    
   223  112  113 2    
   224  112  114 am   BACKBONE|DICT|INTERRES
   225  114  115 1    
   226  114  235 1    
   227  115  116 1    
   228  115  117 1    
   229  115  236 1    
   230  116  237 1    
   231  116  238 1    
   232  116  239 1    
   233  117  118 2    
   234  117  119 am   BACKBONE|DICT|INTERRES
   235  119  120 1    
   236  119  240 1    
   237  120  121 1    
   238  120  124 1    
   239  120  241 1    
   240  121  122 am   BACKBONE|DICT|INTERRES
   241  121  123 2    
   242  122  242 1    
   243  122  243 1    
   244  124  125 1    
   245  124  244 1    
   246  124  245 1    
   247  125  126 1    
   248  126  246 1    
   249  126  247 1    
@<TRIPOS>SUBSTRUCTURE
     1 UNK         1 GROUP             0       ****    0 ROOT    
