@<TRIPOS>MOLECULE
3R540
247   249    1
SMALL
USER_CHARGES


@<TRIPOS>ATOM
      1 CA         -5.3431  -13.9651  -50.3386 C.3       0 UNK        -0.1800 
      2 C          -4.3518  -13.6721  -49.2215 C.2       0 UNK         0.5000 
      3 O          -4.3796  -14.3465  -48.1945 O.2       0 UNK        -0.5000 
      4 N          -3.5130  -12.6441  -49.4158 N.am      1 UNK        -0.5000 
      5 CA         -2.3670  -12.1791  -48.6101 C.3       1 UNK         0.1400 
      6 C6         -1.1226  -13.0990  -48.7356 C.3       23 UNK        -0.0398 
      7 S7         -1.0607  -14.5390  -47.6080 S.3       23 UNK        -0.2404 
      8 C8         -0.5710  -15.8587  -48.7526 C.3       23 UNK        -0.0205 
      9 C9         -1.7637  -16.4270  -49.4974 C.ar      23 UNK        -0.0193 
     10 C10        -2.0072  -16.0804  -50.8281 C.ar      23 UNK        -0.1150 
     11 C11        -3.0877  -16.6372  -51.5268 C.ar      23 UNK        -0.0193 
     12 C12        -3.9193  -17.5465  -50.8658 C.ar      23 UNK        -0.1150 
     13 C13        -3.6759  -17.9112  -49.5396 C.ar      23 UNK        -0.0193 
     14 C14        -2.6049  -17.3363  -48.8568 C.ar      23 UNK        -0.1150 
     15 C15        -4.5505  -18.9449  -48.8513 C.3       23 UNK        -0.0205 
     16 S16        -3.8613  -20.6168  -49.0488 S.3       23 UNK        -0.2404 
     17 C17        -2.4450  -20.5769  -47.8993 C.3       23 UNK        -0.0398 
     18 CA         -1.9959  -21.9944  -47.4802 C.3       11 UNK         0.1400 
     19 N          -0.6207  -22.0113  -46.9750 N.am      11 UNK        -0.5000 
     20 C           0.0724  -23.1290  -46.7132 C.2       10 UNK         0.5000 
     21 O          -0.3619  -24.2630  -46.9078 O.2       10 UNK        -0.5000 
     22 CA          1.4631  -22.9584  -46.0808 C.3       10 UNK         0.1400 
     23 CB          2.5061  -22.6008  -47.1499 C.3       10 UNK        -0.1800 
     24 N           1.4737  -21.9586  -45.0124 N.am      10 UNK        -0.5000 
     25 C           0.7739  -22.0589  -43.8724 C.2       9 UNK         0.5000 
     26 O           0.0832  -23.0346  -43.5792 O.2       9 UNK        -0.5000 
     27 CA          0.8067  -20.8470  -42.9230 C.3       9 UNK         0.1400 
     28 CB          2.0968  -20.8371  -42.0908 C.3       9 UNK        -0.1800 
     29 N           0.6656  -19.5733  -43.6293 N.am      9 UNK        -0.5000 
     30 C          -0.4074  -19.2168  -44.3507 C.2       8 UNK         0.5000 
     31 O          -1.4200  -19.9071  -44.4658 O.2       8 UNK        -0.5000 
     32 CA         -0.3038  -17.8951  -45.1280 C.3       8 UNK         0.1400 
     33 CB         -0.5912  -16.6873  -44.2258 C.3       8 UNK        -0.1800 
     34 N           1.0050  -17.7435  -45.7600 N.am      8 UNK        -0.5000 
     35 C           1.4368  -18.4995  -46.7788 C.2       7 UNK         0.5000 
     36 O           0.7570  -19.3713  -47.3214 O.2       7 UNK        -0.5000 
     37 CA          2.8825  -18.2577  -47.2409 C.3       7 UNK         0.1400 
     38 CB          2.9566  -17.0537  -48.1912 C.3       7 UNK        -0.1800 
     39 N           3.7893  -18.0571  -46.1085 N.am      7 UNK        -0.5000 
     40 C           4.1351  -19.0359  -45.2593 C.2       6 UNK         0.5000 
     41 O           3.7377  -20.1950  -45.3629 O.2       6 UNK        -0.5000 
     42 CA          5.0495  -18.6696  -44.0774 C.3       6 UNK         0.1400 
     43 CB          6.5247  -18.8420  -44.4682 C.3       6 UNK        -0.1800 
     44 N           4.8464  -17.3189  -43.5573 N.am      6 UNK        -0.5000 
     45 C           3.7050  -16.8367  -43.0475 C.2       5 UNK         0.5000 
     46 O           2.6528  -17.4771  -42.9996 O.2       5 UNK        -0.5000 
     47 CA          3.7396  -15.3909  -42.5068 C.3       5 UNK         0.1400 
     48 CB          5.1615  -14.7961  -42.3982 C.3       5 UNK        -0.1800 
     49 N           2.8877  -14.4673  -43.2598 N.am      5 UNK        -0.5000 
     50 C           2.8266  -14.2827  -44.5856 C.2       4 UNK         0.5000 
     51 O           3.4193  -14.9875  -45.4057 O.2       4 UNK        -0.5000 
     52 CA          1.9554  -13.0964  -45.0601 C.3       4 UNK         0.1400 
     53 CB          1.9868  -12.9154  -46.5862 C.3       4 UNK        -0.1800 
     54 N           0.5632  -13.1848  -44.5961 N.am      4 UNK        -0.5000 
     55 C           0.1627  -12.8970  -43.3488 C.2       3 UNK         0.5000 
     56 O           0.9394  -12.5005  -42.4771 O.2       3 UNK        -0.5000 
     57 CA         -1.3262  -13.0925  -43.0123 C.3       3 UNK         0.1400 
     58 CB         -1.6927  -12.5366  -41.6173 C.3       3 UNK        -0.1800 
     59 N          -2.1863  -12.5010  -44.0368 N.am      3 UNK        -0.5000 
     60 C          -3.4874  -12.7797  -44.1862 C.2       2 UNK         0.5000 
     61 O          -4.0775  -13.6448  -43.5375 O.2       2 UNK        -0.5000 
     62 CA         -4.2764  -11.9572  -45.2205 C.3       2 UNK         0.1400 
     63 CB         -4.3734  -10.4689  -44.8288 C.3       2 UNK        -0.1800 
     64 N          -3.7938  -12.1412  -46.5890 N.am      2 UNK        -0.5000 
     65 C          -2.6448  -11.7471  -47.1470 C.2       1 UNK         0.5000 
     66 O          -1.8023  -11.0680  -46.5563 O.2       1 UNK        -0.5000 
     67 C          -2.9861  -22.6375  -46.4864 C.2       11 UNK         0.5000 
     68 O          -3.8292  -23.4320  -46.9038 O.2       11 UNK        -0.5000 
     69 N          -2.8435  -22.3210  -45.1913 N.am      12 UNK        -0.5000 
     70 CA         -3.6307  -22.9060  -44.1057 C.3       12 UNK         0.1400 
     71 CB         -3.3265  -22.1751  -42.7895 C.3       12 UNK        -0.1800 
     72 C          -3.4055  -24.4224  -43.9646 C.2       12 UNK         0.5000 
     73 O          -4.3788  -25.1700  -43.8658 O.2       12 UNK        -0.5000 
     74 N          -2.1372  -24.8552  -44.0159 N.am      13 UNK        -0.5000 
     75 CA         -1.7328  -26.2642  -43.9939 C.3       13 UNK         0.1400 
     76 CB         -0.2036  -26.3555  -43.8835 C.3       13 UNK        -0.1800 
     77 C          -2.2390  -27.0590  -45.2139 C.2       13 UNK         0.5000 
     78 O          -2.6108  -28.2240  -45.0704 O.2       13 UNK        -0.5000 
     79 N          -2.2815  -26.4029  -46.3806 N.am      14 UNK        -0.5000 
     80 CA         -2.8226  -26.9320  -47.6336 C.3       14 UNK         0.1400 
     81 CB         -2.1812  -26.1714  -48.8045 C.3       14 UNK        -0.1800 
     82 C          -4.3644  -26.8787  -47.7186 C.2       14 UNK         0.5000 
     83 O          -4.9170  -27.3148  -48.7286 O.2       14 UNK        -0.5000 
     84 N          -5.0288  -26.3556  -46.6767 N.am      15 UNK        -0.5000 
     85 CA         -6.4785  -26.2071  -46.5239 C.3       15 UNK         0.1400 
     86 CB         -7.1786  -27.5825  -46.4904 C.3       15 UNK        -0.1800 
     87 C          -7.0917  -25.2284  -47.5465 C.2       15 UNK         0.5000 
     88 O          -8.0985  -25.5438  -48.1837 O.2       15 UNK        -0.5000 
     89 N          -6.4709  -24.0455  -47.6594 N.am      16 UNK        -0.5000 
     90 CA         -6.8635  -22.9056  -48.4937 C.3       16 UNK         0.1400 
     91 CB         -8.2505  -22.3617  -48.0903 C.3       16 UNK        -0.1800 
     92 C          -6.7299  -23.1965  -50.0020 C.2       16 UNK         0.5000 
     93 O          -7.6145  -22.8471  -50.7857 O.2       16 UNK        -0.5000 
     94 N          -5.6165  -23.8396  -50.3803 N.am      17 UNK        -0.5000 
     95 CA         -5.3039  -24.2246  -51.7598 C.3       17 UNK         0.1400 
     96 CB         -4.1395  -25.2247  -51.7484 C.3       17 UNK        -0.1800 
     97 C          -4.9731  -23.0391  -52.6887 C.2       17 UNK         0.5000 
     98 O          -5.1478  -23.1661  -53.9015 O.2       17 UNK        -0.5000 
     99 N          -4.5024  -21.9240  -52.1095 N.am      18 UNK        -0.5000 
    100 CA        -4.0616  -20.6966  -52.7774 C.3       18 UNK         0.1400 
    101 CB        -5.2630  -19.9607  -53.4134 C.3       18 UNK        -0.1800 
    102 C         -2.8837  -20.9629  -53.7372 C.2       18 UNK         0.5000 
    103 O         -1.8753  -21.5176  -53.2947 O.2       18 UNK        -0.5000 
    104 N         -3.0238  -20.5658  -55.0116 N.am      19 UNK        -0.5000 
    105 CA        -2.0966  -20.7934  -56.1246 C.3       19 UNK         0.1400 
    106 CB        -2.1477  -22.2759  -56.5570 C.3       19 UNK        -0.1800 
    107 C         -0.6742  -20.2859  -55.8145 C.2       19 UNK         0.5000 
    108 O         -0.4511  -19.0739  -55.8211 O.2       19 UNK        -0.5000 
    109 N          0.2464  -21.2098  -55.5083 N.am      20 UNK        -0.5000 
    110 CA         1.6441  -20.9587  -55.1507 C.3       20 UNK         0.1400 
    111 CB         2.3627  -22.3080  -54.9970 C.3       20 UNK        -0.1800 
    112 C          1.8438  -20.0945  -53.8883 C.2       20 UNK         0.5000 
    113 O          2.9200  -19.5174  -53.7294 O.2       20 UNK        -0.5000 
    114 N          0.8195  -19.9984  -53.0262 N.am      21 UNK        -0.5000 
    115 CA         0.8031  -19.0887  -51.8786 C.3       21 UNK         0.1400 
    116 CB        -0.3717  -19.4448  -50.9582 C.3       21 UNK        -0.1800 
    117 C          0.7492  -17.6047  -52.3004 C.2       21 UNK         0.5000 
    118 O          1.3682  -16.7693  -51.6412 O.2       21 UNK        -0.5000 
    119 N          0.0438  -17.3114  -53.4020 N.am      22 UNK        -0.5000 
    120 CA         0.0743  -16.0088  -54.0849 C.3       22 UNK         0.1400 
    121 C          1.2458  -15.9438  -55.1027 C.2       22 UNK         0.5000 
    122 N          1.4527  -16.9715  -55.9172 N.am      22 UNK        -0.7600 
    123 O          1.9695  -14.9535  -55.1566 O.2       22 UNK        -0.5000 
    124 C124       -1.2740  -15.6897  -54.7859 C.3       23 UNK        -0.0398 
    125 S125       -2.4919  -14.8874  -53.6884 S.3       23 UNK        -0.2404 
    126 C126       -3.3980  -16.3096  -52.9884 C.3       23 UNK        -0.0205 
    127 H127       -5.0250  -13.5264  -51.2847 H         1 UNK         0.0600 
    128 H128       -6.3253  -13.5672  -50.0843 H         1 UNK         0.0600 
    129 H129       -5.4384  -15.0409  -50.4835 H         1 UNK         0.0600 
    130 H130       -3.6287  -12.1244  -50.2746 H         1 UNK         0.3000 
    131 H131       -2.0918  -11.2458  -49.1038 H         1 UNK         0.0600 
    132 H132       -0.2256  -12.5089  -48.5494 H         1 UNK         0.0800 
    133 H133       -1.0254  -13.4353  -49.7681 H         1 UNK         0.0800 
    134 H134        0.1931  -15.4982  -49.4429 H         1 UNK         0.0800 
    135 H135       -0.1057  -16.6572  -48.1807 H         1 UNK         0.0800 
    136 H136       -1.3356  -15.3878  -51.3115 H         1 UNK         0.1150 
    137 H137       -4.7572  -17.9826  -51.3896 H         1 UNK         0.1150 
    138 H138       -2.4135  -17.6076  -47.8296 H         1 UNK         0.1150 
    139 H139       -4.6643  -18.7078  -47.7924 H         1 UNK         0.0800 
    140 H140       -5.5544  -18.9251  -49.2778 H         1 UNK         0.0800 
    141 H141       -2.6816  -19.9658  -47.0266 H         1 UNK         0.0800 
    142 H142       -1.6301  -20.0678  -48.4127 H         1 UNK         0.0800 
    143 H143       -1.9924  -22.6189  -48.3765 H         1 UNK         0.0600 
    144 H144       -0.1756  -21.1114  -46.8259 H         1 UNK         0.3000 
    145 H145        1.7460  -23.9167  -45.6407 H         1 UNK         0.0600 
    146 H146        2.5065  -23.3348  -47.9567 H         1 UNK         0.0600 
    147 H147        2.3119  -21.6243  -47.5939 H         1 UNK         0.0600 
    148 H148        3.5111  -22.5829  -46.7282 H         1 UNK         0.0600 
    149 H149        2.0719  -21.1504  -45.1570 H         1 UNK         0.3000 
    150 H150       -0.0384  -20.9383  -42.2376 H         1 UNK         0.0600 
    151 H151        2.1849  -21.7495  -41.4997 H         1 UNK         0.0600 
    152 H152        2.1144  -19.9957  -41.3977 H         1 UNK         0.0600 
    153 H153        2.9820  -20.7701  -42.7223 H         1 UNK         0.0600 
    154 H154        1.4402  -18.9199  -43.5572 H         1 UNK         0.3000 
    155 H155       -1.0608  -17.9138  -45.9139 H         1 UNK         0.0600 
    156 H156        0.1602  -16.5710  -43.4446 H         1 UNK         0.0600 
    157 H157       -0.6161  -15.7684  -44.8092 H         1 UNK         0.0600 
    158 H158       -1.5618  -16.7869  -43.7383 H         1 UNK         0.0600 
    159 H159        1.6471  -17.0868  -45.3387 H         1 UNK         0.3000 
    160 H160        3.2104  -19.1424  -47.7911 H         1 UNK         0.0600 
    161 H161        2.6130  -16.1360  -47.7131 H         1 UNK         0.0600 
    162 H162        2.3332  -17.2168  -49.0710 H         1 UNK         0.0600 
    163 H163        3.9753  -16.8885  -48.5418 H         1 UNK         0.0600 
    164 H164        4.0988  -17.1098  -45.9266 H         1 UNK         0.3000 
    165 H165        4.8318  -19.3663  -43.2662 H         1 UNK         0.0600 
    166 H166        7.1816  -18.6819  -43.6131 H         1 UNK         0.0600 
    167 H167        6.7155  -19.8505  -44.8380 H         1 UNK         0.0600 
    168 H168        6.8172  -18.1436  -45.2533 H         1 UNK         0.0600 
    169 H169        5.6490  -16.7071  -43.5785 H         1 UNK         0.3000 
    170 H170        3.3252  -15.4395  -41.4989 H         1 UNK         0.0600 
    171 H171        5.8130  -15.4285  -41.7935 H         1 UNK         0.0600 
    172 H172        5.6277  -14.6652  -43.3756 H         1 UNK         0.0600 
    173 H173        5.1354  -13.8184  -41.9166 H         1 UNK         0.0600 
    174 H174        2.3176  -13.8425  -42.6970 H         1 UNK         0.3000 
    175 H175        2.3999  -12.1955  -44.6318 H         1 UNK         0.0600 
    176 H176        1.6383  -13.8056  -47.1077 H         1 UNK         0.0600 
    177 H177        1.3728  -12.0694  -46.8937 H         1 UNK         0.0600 
    178 H178        3.0025  -12.7188  -46.9315 H         1 UNK         0.0600 
    179 H179       -0.1142  -13.5204  -45.2669 H         1 UNK         0.3000 
    180 H180       -1.4954  -14.1706  -43.0003 H         1 UNK         0.0600 
    181 H181       -1.5609  -11.4549  -41.5726 H         1 UNK         0.0600 
    182 H182       -1.0680  -12.9781  -40.8398 H         1 UNK         0.0600 
    183 H183       -2.7261  -12.7577  -41.3516 H         1 UNK         0.0600 
    184 H184       -1.7664  -11.8130  -44.6553 H         1 UNK         0.3000 
    185 H185       -5.2937  -12.3519  -45.2211 H         1 UNK         0.0600 
    186 H186       -4.8362  -10.3587  -43.8474 H         1 UNK         0.0600 
    187 H187       -3.3974   -9.9863  -44.7801 H         1 UNK         0.0600 
    188 H188       -4.9854   -9.9147  -45.5404 H         1 UNK         0.0600 
    189 H189       -4.3236  -12.8128  -47.1387 H         1 UNK         0.3000 
    190 H190       -2.1554  -21.6205  -44.9280 H         1 UNK         0.3000 
    191 H191       -4.6853  -22.7490  -44.3415 H         1 UNK         0.0600 
    192 H192       -2.2785  -22.2705  -42.5058 H         1 UNK         0.0600 
    193 H193       -3.9262  -22.5772  -41.9722 H         1 UNK         0.0600 
    194 H194       -3.5543  -21.1119  -42.8685 H         1 UNK         0.0600 
    195 H195       -1.3875  -24.1693  -44.0589 H         1 UNK         0.3000 
    196 H196       -2.1659  -26.7194  -43.1010 H         1 UNK         0.0600 
    197 H197        0.1246  -27.3947  -43.8404 H         1 UNK         0.0600 
    198 H198        0.1563  -25.8625  -42.9803 H         1 UNK         0.0600 
    199 H199        0.2895  -25.8896  -44.7371 H         1 UNK         0.0600 
    200 H200       -1.8877  -25.4679  -46.4242 H         1 UNK         0.3000 
    201 H201       -2.5334  -27.9813  -47.7184 H         1 UNK         0.0600 
    202 H202       -1.0931  -26.2081  -48.7506 H         1 UNK         0.0600 
    203 H203       -2.4814  -25.1231  -48.8154 H         1 UNK         0.0600 
    204 H204       -2.4671  -26.6124  -49.7591 H         1 UNK         0.0600 
    205 H205       -4.4801  -25.9991  -45.9039 H         1 UNK         0.3000 
    206 H206       -6.6289  -25.7480  -45.5458 H         1 UNK         0.0600 
    207 H207       -8.2343  -27.4750  -46.2388 H         1 UNK         0.0600 
    208 H208       -7.1244  -28.0929  -47.4522 H         1 UNK         0.0600 
    209 H209       -6.7314  -28.2333  -45.7391 H         1 UNK         0.0600 
    210 H210       -5.5916  -23.9195  -47.1609 H         1 UNK         0.3000 
    211 H211       -6.1442  -22.1196  -48.2705 H         1 UNK         0.0600 
    212 H212       -9.0510  -23.0601  -48.3350 H         1 UNK         0.0600 
    213 H213       -8.4659  -21.4266  -48.6085 H         1 UNK         0.0600 
    214 H214       -8.2977  -22.1568  -47.0208 H         1 UNK         0.0600 
    215 H215       -4.9540  -24.1099  -49.6681 H         1 UNK         0.3000 
    216 H216       -6.1791  -24.7291  -52.1746 H         1 UNK         0.0600 
    217 H217       -3.2380  -24.7853  -51.3202 H         1 UNK         0.0600 
    218 H218       -3.8950  -25.5528  -52.7596 H         1 UNK         0.0600 
    219 H219       -4.3931  -26.1153  -51.1739 H         1 UNK         0.0600 
    220 H220       -4.3745  -21.9358  -51.1071 H         1 UNK         0.3000 
    221 H221       -3.6567  -20.0571  -51.9950 H         1 UNK         0.0600 
    222 H222       -5.7171  -20.5331  -54.2229 H         1 UNK         0.0600 
    223 H223       -6.0391  -19.7760  -52.6704 H         1 UNK         0.0600 
    224 H224       -4.9692  -18.9901  -53.8138 H         1 UNK         0.0600 
    225 H225       -3.8841  -20.0991  -55.2604 H         1 UNK         0.3000 
    226 H226       -2.4571  -20.1934  -56.9614 H         1 UNK         0.0600 
    227 H227       -3.1504  -22.5464  -56.8882 H         1 UNK         0.0600 
    228 H228       -1.4724  -22.4676  -57.3920 H         1 UNK         0.0600 
    229 H229       -1.8805  -22.9548  -55.7464 H         1 UNK         0.0600 
    230 H230       -0.0515  -22.1740  -55.4802 H         1 UNK         0.3000 
    231 H231        2.1020  -20.4198  -55.9825 H         1 UNK         0.0600 
    232 H232        3.4187  -22.1657  -54.7631 H         1 UNK         0.0600 
    233 H233        2.3118  -22.8904  -55.9172 H         1 UNK         0.0600 
    234 H234        1.9265  -22.9053  -54.1953 H         1 UNK         0.0600 
    235 H235       -0.0248  -20.5320  -53.2054 H         1 UNK         0.3000 
    236 H236        1.7262  -19.2408  -51.3151 H         1 UNK         0.0600 
    237 H237       -0.3468  -20.4949  -50.6664 H         1 UNK         0.0600 
    238 H238       -0.3296  -18.8542  -50.0432 H         1 UNK         0.0600 
    239 H239       -1.3333  -19.2496  -51.4330 H         1 UNK         0.0600 
    240 H240       -0.3683  -18.0716  -53.9263 H         1 UNK         0.3000 
    241 H241        0.2632  -15.2246  -53.3489 H         1 UNK         0.0600 
    242 H242        0.8206  -17.7687  -55.9123 H         1 UNK         0.3800 
    243 H243        2.2111  -16.9360  -56.5790 H         1 UNK         0.3800 
    244 H244       -1.1243  -14.9863  -55.6074 H         1 UNK         0.0800 
    245 H245       -1.7018  -16.5807  -55.2478 H         1 UNK         0.0800 
    246 H246       -3.2169  -17.1994  -53.5916 H         1 UNK         0.0800 
    247 H247       -4.4636  -16.0926  -53.0758 H         1 UNK         0.0800 
@<TRIPOS>BOND
     1    1    2 1    
     2    1  127 1    
     3    1  128 1    
     4    1  129 1    
     5    2    3 2    
     6    2    4 am   BACKBONE|DICT|INTERRES
     7    4    5 1    
     8    4  130 1    
     9    5    6 1    
    10    5   65 1    
    11    5  131 1    
    12    6    7 1    
    13    6  132 1    
    14    6  133 1    
    15    7    8 1    
    16    8    9 1    
    17    8  134 1    
    18    8  135 1    
    19    9   10 ar   
    20    9   14 ar   
    21   10   11 ar   
    22   10  136 1    
    23   11   12 ar   
    24   11  126 1    
    25   12   13 ar   
    26   12  137 1    
    27   13   14 ar   
    28   13   15 1    
    29   14  138 1    
    30   15   16 1    
    31   15  139 1    
    32   15  140 1    
    33   16   17 1    
    34   17   18 1    
    35   17  141 1    
    36   17  142 1    
    37   18   19 1    
    38   18   67 1    
    39   18  143 1    
    40   19   20 am   BACKBONE|DICT|INTERRES
    41   19  144 1    
    42   20   21 2    
    43   20   22 1    
    44   22   23 1    
    45   22   24 1    
    46   22  145 1    
    47   23  146 1    
    48   23  147 1    
    49   23  148 1    
    50   24   25 am   BACKBONE|DICT|INTERRES
    51   24  149 1    
    52   25   26 2    
    53   25   27 1    
    54   27   28 1    
    55   27   29 1    
    56   27  150 1    
    57   28  151 1    
    58   28  152 1    
    59   28  153 1    
    60   29   30 am   BACKBONE|DICT|INTERRES
    61   29  154 1    
    62   30   31 2    
    63   30   32 1    
    64   32   33 1    
    65   32   34 1    
    66   32  155 1    
    67   33  156 1    
    68   33  157 1    
    69   33  158 1    
    70   34   35 am   BACKBONE|DICT|INTERRES
    71   34  159 1    
    72   35   36 2    
    73   35   37 1    
    74   37   38 1    
    75   37   39 1    
    76   37  160 1    
    77   38  161 1    
    78   38  162 1    
    79   38  163 1    
    80   39   40 am   BACKBONE|DICT|INTERRES
    81   39  164 1    
    82   40   41 2    
    83   40   42 1    
    84   42   43 1    
    85   42   44 1    
    86   42  165 1    
    87   43  166 1    
    88   43  167 1    
    89   43  168 1    
    90   44   45 am   BACKBONE|DICT|INTERRES
    91   44  169 1    
    92   45   46 2    
    93   45   47 1    
    94   47   48 1    
    95   47   49 1    
    96   47  170 1    
    97   48  171 1    
    98   48  172 1    
    99   48  173 1    
   100   49   50 am   BACKBONE|DICT|INTERRES
   101   49  174 1    
   102   50   51 2    
   103   50   52 1    
   104   52   53 1    
   105   52   54 1    
   106   52  175 1    
   107   53  176 1    
   108   53  177 1    
   109   53  178 1    
   110   54   55 am   BACKBONE|DICT|INTERRES
   111   54  179 1    
   112   55   56 2    
   113   55   57 1    
   114   57   58 1    
   115   57   59 1    
   116   57  180 1    
   117   58  181 1    
   118   58  182 1    
   119   58  183 1    
   120   59   60 am   BACKBONE|DICT|INTERRES
   121   59  184 1    
   122   60   61 2    
   123   60   62 1    
   124   62   63 1    
   125   62   64 1    
   126   62  185 1    
   127   63  186 1    
   128   63  187 1    
   129   63  188 1    
   130   64   65 am   BACKBONE|DICT|INTERRES
   131   64  189 1    
   132   65   66 2    
   133   67   68 2    
   134   67   69 am   BACKBONE|DICT|INTERRES
   135   69   70 1    
   136   69  190 1    
   137   70   71 1    
   138   70   72 1    
   139   70  191 1    
   140   71  192 1    
   141   71  193 1    
   142   71  194 1    
   143   72   73 2    
   144   72   74 am   BACKBONE|DICT|INTERRES
   145   74   75 1    
   146   74  195 1    
   147   75   76 1    
   148   75   77 1    
   149   75  196 1    
   150   76  197 1    
   151   76  198 1    
   152   76  199 1    
   153   77   78 2    
   154   77   79 am   BACKBONE|DICT|INTERRES
   155   79   80 1    
   156   79  200 1    
   157   80   81 1    
   158   80   82 1    
   159   80  201 1    
   160   81  202 1    
   161   81  203 1    
   162   81  204 1    
   163   82   83 2    
   164   82   84 am   BACKBONE|DICT|INTERRES
   165   84   85 1    
   166   84  205 1    
   167   85   86 1    
   168   85   87 1    
   169   85  206 1    
   170   86  207 1    
   171   86  208 1    
   172   86  209 1    
   173   87   88 2    
   174   87   89 am   BACKBONE|DICT|INTERRES
   175   89   90 1    
   176   89  210 1    
   177   90   91 1    
   178   90   92 1    
   179   90  211 1    
   180   91  212 1    
   181   91  213 1    
   182   91  214 1    
   183   92   93 2    
   184   92   94 am   BACKBONE|DICT|INTERRES
   185   94   95 1    
   186   94  215 1    
   187   95   96 1    
   188   95   97 1    
   189   95  216 1    
   190   96  217 1    
   191   96  218 1    
   192   96  219 1    
   193   97   98 2    
   194   97   99 am   BACKBONE|DICT|INTERRES
   195   99  100 1    
   196   99  220 1    
   197  100  101 1    
   198  100  102 1    
   199  100  221 1    
   200  101  222 1    
   201  101  223 1    
   202  101  224 1    
   203  102  103 2    
   204  102  104 am   BACKBONE|DICT|INTERRES
   205  104  105 1    
   206  104  225 1    
   207  105  106 1    
   208  105  107 1    
   209  105  226 1    
   210  106  227 1    
   211  106  228 1    
   212  106  229 1    
   213  107  108 2    
   214  107  109 am   BACKBONE|DICT|INTERRES
   215  109  110 1    
   216  109  230 1    
   217  110  111 1    
   218  110  112 1    
   219  110  231 1    
   220  111  232 1    
   221  111  233 1    
   222  111  234 1    
   223  112  113 2    
   224  112  114 am   BACKBONE|DICT|INTERRES
   225  114  115 1    
   226  114  235 1    
   227  115  116 1    
   228  115  117 1    
   229  115  236 1    
   230  116  237 1    
   231  116  238 1    
   232  116  239 1    
   233  117  118 2    
   234  117  119 am   BACKBONE|DICT|INTERRES
   235  119  120 1    
   236  119  240 1    
   237  120  121 1    
   238  120  124 1    
   239  120  241 1    
   240  121  122 am   BACKBONE|DICT|INTERRES
   241  121  123 2    
   242  122  242 1    
   243  122  243 1    
   244  124  125 1    
   245  124  244 1    
   246  124  245 1    
   247  125  126 1    
   248  126  246 1    
   249  126  247 1    
@<TRIPOS>SUBSTRUCTURE
     1 UNK         1 GROUP             0       ****    0 ROOT    
