@<TRIPOS>MOLECULE
3R540
247   249    1
SMALL
USER_CHARGES


@<TRIPOS>ATOM
      1 CA          3.8580  -16.6821  -53.6069 C.3       0 UNK        -0.1800 
      2 C           3.8893  -17.3431  -52.2301 C.2       0 UNK         0.5000 
      3 O           3.4523  -18.4839  -52.1051 O.2       0 UNK        -0.5000 
      4 N           4.4028  -16.6865  -51.1788 N.am      1 UNK        -0.5000 
      5 CA          4.9723  -15.3316  -51.1673 C.3       1 UNK         0.1400 
      6 C6          5.9089  -15.1137  -49.9460 C.3       23 UNK        -0.0398 
      7 S7          5.1061  -14.7437  -48.3418 S.3       23 UNK        -0.2404 
      8 C8          5.0495  -16.3701  -47.5180 C.3       23 UNK        -0.0205 
      9 C9          3.9624  -17.2946  -48.0560 C.ar      23 UNK        -0.0193 
     10 C10         2.6771  -16.8126  -48.3322 C.ar      23 UNK        -0.1150 
     11 C11         1.6818  -17.6706  -48.8061 C.ar      23 UNK        -0.0193 
     12 C12         1.9675  -19.0268  -48.9743 C.ar      23 UNK        -0.1150 
     13 C13         3.2397  -19.5275  -48.6864 C.ar      23 UNK        -0.0193 
     14 C14         4.2360  -18.6541  -48.2399 C.ar      23 UNK        -0.1150 
     15 C15         3.5270  -21.0142  -48.8518 C.3       23 UNK        -0.0205 
     16 S16         3.8183  -21.8684  -47.2634 S.3       23 UNK        -0.2404 
     17 C17         2.3077  -21.4885  -46.3089 C.3       23 UNK        -0.0398 
     18 CA          1.2515  -22.6189  -46.3016 C.3       11 UNK         0.1400 
     19 N           0.2761  -22.4353  -45.2211 N.am      11 UNK        -0.5000 
     20 C          -0.6780  -23.3134  -44.8796 C.2       10 UNK         0.5000 
     21 O          -0.7942  -24.4253  -45.3924 O.2       10 UNK        -0.5000 
     22 CA         -1.7077  -22.8545  -43.8280 C.3       10 UNK         0.1400 
     23 CB         -1.1657  -23.0374  -42.4030 C.3       10 UNK        -0.1800 
     24 N          -2.1207  -21.4642  -44.0245 N.am      10 UNK        -0.5000 
     25 C          -2.8023  -21.0203  -45.0910 C.2       9 UNK         0.5000 
     26 O          -3.2444  -21.7557  -45.9733 O.2       9 UNK        -0.5000 
     27 CA         -2.9493  -19.4936  -45.2284 C.3       9 UNK         0.1400 
     28 CB         -4.1577  -18.9692  -44.4389 C.3       9 UNK        -0.1800 
     29 N          -1.7324  -18.7969  -44.8041 N.am      9 UNK        -0.5000 
     30 C          -0.5819  -18.8332  -45.4913 C.2       8 UNK         0.5000 
     31 O          -0.4608  -19.4123  -46.5681 O.2       8 UNK        -0.5000 
     32 CA          0.6489  -18.1619  -44.8557 C.3       8 UNK         0.1400 
     33 CB          0.7353  -16.6917  -45.2645 C.3       8 UNK        -0.1800 
     34 N           0.6490  -18.2534  -43.3973 N.am      8 UNK        -0.5000 
     35 C           0.8816  -19.3868  -42.7217 C.2       7 UNK         0.5000 
     36 O           1.1635  -20.4535  -43.2654 O.2       7 UNK        -0.5000 
     37 CA          0.7105  -19.3351  -41.1911 C.3       7 UNK         0.1400 
     38 CB          2.0287  -18.9350  -40.5132 C.3       7 UNK        -0.1800 
     39 N          -0.3509  -18.4190  -40.7665 N.am      7 UNK        -0.5000 
     40 C          -1.6394  -18.5342  -41.1140 C.2       6 UNK         0.5000 
     41 O          -2.0756  -19.4670  -41.7894 O.2       6 UNK        -0.5000 
     42 CA         -2.5941  -17.3986  -40.6985 C.3       6 UNK         0.1400 
     43 CB         -2.1221  -16.6099  -39.4565 C.3       6 UNK        -0.1800 
     44 N          -2.8758  -16.4900  -41.8181 N.am      6 UNK        -0.5000 
     45 C          -1.9950  -15.7448  -42.5033 C.2       5 UNK         0.5000 
     46 O          -0.7783  -15.7586  -42.2950 O.2       5 UNK        -0.5000 
     47 CA         -2.5662  -14.8493  -43.6196 C.3       5 UNK         0.1400 
     48 CB         -3.7779  -14.0196  -43.1524 C.3       5 UNK        -0.1800 
     49 N          -1.5224  -13.9487  -44.1080 N.am      5 UNK        -0.5000 
     50 C          -1.3985  -13.5131  -45.3657 C.2       4 UNK         0.5000 
     51 O          -2.1807  -13.8125  -46.2718 O.2       4 UNK        -0.5000 
     52 CA         -0.2017  -12.5918  -45.6593 C.3       4 UNK         0.1400 
     53 CB          1.1496  -13.3051  -45.4676 C.3       4 UNK        -0.1800 
     54 N          -0.2910  -12.0978  -47.0293 N.am      4 UNK        -0.5000 
     55 C           0.2374  -10.9566  -47.4834 C.2       3 UNK         0.5000 
     56 O           0.8610  -10.1624  -46.7761 O.2       3 UNK        -0.5000 
     57 CA          0.0297  -10.6748  -48.9851 C.3       3 UNK         0.1400 
     58 CB          0.7885   -9.4294  -49.4912 C.3       3 UNK        -0.1800 
     59 N           0.3240  -11.8502  -49.8116 N.am      3 UNK        -0.5000 
     60 C           1.5035  -12.4653  -49.9807 C.2       2 UNK         0.5000 
     61 O           2.5553  -12.0967  -49.4546 O.2       2 UNK        -0.5000 
     62 CA          1.4552  -13.7187  -50.8809 C.3       2 UNK         0.1400 
     63 CB          1.0355  -13.3799  -52.3261 C.3       2 UNK        -0.1800 
     64 N           2.6713  -14.5362  -50.8742 N.am      2 UNK        -0.5000 
     65 C           3.8989  -14.2274  -51.3186 C.2       1 UNK         0.5000 
     66 O           4.2009  -13.1652  -51.8644 O.2       1 UNK        -0.5000 
     67 C           0.5591  -22.7689  -47.6734 C.2       11 UNK         0.5000 
     68 O           0.8928  -23.6873  -48.4209 O.2       11 UNK        -0.5000 
     69 N          -0.4239  -21.9023  -47.9604 N.am      12 UNK        -0.5000 
     70 CA         -1.2627  -21.9652  -49.1581 C.3       12 UNK         0.1400 
     71 CB         -2.1824  -20.7371  -49.2178 C.3       12 UNK        -0.1800 
     72 C          -2.0717  -23.2714  -49.2430 C.2       12 UNK         0.5000 
     73 O          -2.0820  -23.9025  -50.2989 O.2       12 UNK        -0.5000 
     74 N          -2.6779  -23.6858  -48.1211 N.am      13 UNK        -0.5000 
     75 CA         -3.3976  -24.9540  -47.9917 C.3       13 UNK         0.1400 
     76 CB         -4.0894  -25.0230  -46.6224 C.3       13 UNK        -0.1800 
     77 C          -2.4936  -26.1813  -48.2177 C.2       13 UNK         0.5000 
     78 O          -2.8888  -27.0987  -48.9373 O.2       13 UNK        -0.5000 
     79 N          -1.2797  -26.1585  -47.6480 N.am      14 UNK        -0.5000 
     80 CA         -0.2461  -27.1810  -47.8392 C.3       14 UNK         0.1400 
     81 CB          0.9129  -26.9285  -46.8632 C.3       14 UNK        -0.1800 
     82 C           0.2674  -27.2589  -49.2912 C.2       14 UNK         0.5000 
     83 O           0.5661  -28.3519  -49.7728 O.2       14 UNK        -0.5000 
     84 N           0.3155  -26.1080  -49.9749 N.am      15 UNK        -0.5000 
     85 CA          0.6311  -25.9727  -51.3990 C.3       15 UNK         0.1400 
     86 CB          1.1151  -24.5367  -51.6635 C.3       15 UNK        -0.1800 
     87 C          -0.5435  -26.3436  -52.3338 C.2       15 UNK         0.5000 
     88 O          -0.3761  -26.2827  -53.5526 O.2       15 UNK        -0.5000 
     89 N          -1.6977  -26.7184  -51.7610 N.am      16 UNK        -0.5000 
     90 CA         -2.9473  -27.1146  -52.4181 C.3       16 UNK         0.1400 
     91 CB         -2.7463  -28.3553  -53.3143 C.3       16 UNK        -0.1800 
     92 C          -3.6738  -25.9573  -53.1357 C.2       16 UNK         0.5000 
     93 O          -4.4706  -26.2052  -54.0433 O.2       16 UNK        -0.5000 
     94 N          -3.4249  -24.7191  -52.6943 N.am      17 UNK        -0.5000 
     95 CA         -4.2059  -23.5361  -53.0453 C.3       17 UNK         0.1400 
     96 CB         -3.2630  -22.3219  -53.1070 C.3       17 UNK        -0.1800 
     97 C          -5.3171  -23.3231  -51.9995 C.2       17 UNK         0.5000 
     98 O          -5.3342  -23.9878  -50.9596 O.2       17 UNK        -0.5000 
     99 N          -6.2340  -22.3915  -52.2840 N.am      18 UNK        -0.5000 
    100 CA        -7.2690  -21.9656  -51.3433 C.3       18 UNK         0.1400 
    101 CB        -8.3230  -21.1328  -52.0903 C.3       18 UNK        -0.1800 
    102 C         -6.6539  -21.1479  -50.1944 C.2       18 UNK         0.5000 
    103 O         -5.8848  -20.2234  -50.4580 O.2       18 UNK        -0.5000 
    104 N         -7.0362  -21.4634  -48.9506 N.am      19 UNK        -0.5000 
    105 CA        -6.5856  -20.7595  -47.7433 C.3       19 UNK         0.1400 
    106 CB        -6.9803  -21.5860  -46.5100 C.3       19 UNK        -0.1800 
    107 C         -7.1365  -19.3218  -47.6320 C.2       19 UNK         0.5000 
    108 O         -6.5569  -18.5012  -46.9220 O.2       19 UNK        -0.5000 
    109 N         -8.2421  -19.0441  -48.3379 N.am      20 UNK        -0.5000 
    110 CA        -8.8410  -17.7158  -48.4756 C.3       20 UNK         0.1400 
    111 CB       -10.3041  -17.8810  -48.9159 C.3       20 UNK        -0.1800 
    112 C         -8.0802  -16.8091  -49.4660 C.2       20 UNK         0.5000 
    113 O         -8.2665  -15.5919  -49.4285 O.2       20 UNK        -0.5000 
    114 N         -7.2524  -17.4066  -50.3328 N.am      21 UNK        -0.5000 
    115 CA        -6.3529  -16.7158  -51.2527 C.3       21 UNK         0.1400 
    116 CB        -6.3432  -17.4800  -52.5887 C.3       21 UNK        -0.1800 
    117 C         -4.9404  -16.6449  -50.6443 C.2       21 UNK         0.5000 
    118 O         -4.6960  -17.2125  -49.5757 O.2       21 UNK        -0.5000 
    119 N         -4.0272  -15.9564  -51.3437 N.am      22 UNK        -0.5000 
    120 CA        -2.6047  -15.7869  -50.9955 C.3       22 UNK         0.1400 
    121 C         -2.3842  -14.8746  -49.7546 C.2       22 UNK         0.5000 
    122 N         -2.8813  -15.2505  -48.5864 N.am      22 UNK        -0.7600 
    123 O         -1.7639  -13.8202  -49.8577 O.2       22 UNK        -0.5000 
    124 C124       -1.8747  -17.1553  -50.8779 C.3       23 UNK        -0.0398 
    125 S125       -0.0527  -17.0704  -50.8841 S.3       23 UNK        -0.2404 
    126 C126        0.2836  -17.1525  -49.0967 C.3       23 UNK        -0.0205 
    127 H127        3.5142  -17.3915  -54.3600 H         1 UNK         0.0600 
    128 H128        4.8484  -16.3415  -53.9073 H         1 UNK         0.0600 
    129 H129        3.1723  -15.8353  -53.6164 H         1 UNK         0.0600 
    130 H130        4.3808  -17.1487  -50.2797 H         1 UNK         0.3000 
    131 H131        5.6135  -15.2532  -52.0468 H         1 UNK         0.0600 
    132 H132        6.5769  -15.9680  -49.8281 H         1 UNK         0.0800 
    133 H133        6.5669  -14.2701  -50.1604 H         1 UNK         0.0800 
    134 H134        4.8594  -16.2100  -46.4561 H         1 UNK         0.0800 
    135 H135        6.0322  -16.8394  -47.5857 H         1 UNK         0.0800 
    136 H136        2.4489  -15.7687  -48.1689 H         1 UNK         0.1150 
    137 H137        1.1900  -19.6930  -49.3211 H         1 UNK         0.1150 
    138 H138        5.2189  -19.0433  -48.0135 H         1 UNK         0.1150 
    139 H139        2.7097  -21.5093  -49.3786 H         1 UNK         0.0800 
    140 H140        4.4082  -21.1355  -49.4830 H         1 UNK         0.0800 
    141 H141        1.8718  -20.5494  -46.6416 H         1 UNK         0.0800 
    142 H142        2.6432  -21.3044  -45.2880 H         1 UNK         0.0800 
    143 H143        1.7680  -23.5584  -46.0941 H         1 UNK         0.0600 
    144 H144        0.3508  -21.5752  -44.6885 H         1 UNK         0.3000 
    145 H145       -2.5939  -23.4833  -43.9346 H         1 UNK         0.0600 
    146 H146       -1.9094  -22.7515  -41.6589 H         1 UNK         0.0600 
    147 H147       -0.9034  -24.0799  -42.2183 H         1 UNK         0.0600 
    148 H148       -0.2718  -22.4397  -42.2279 H         1 UNK         0.0600 
    149 H149       -1.8468  -20.7951  -43.3128 H         1 UNK         0.3000 
    150 H150       -3.1206  -19.2700  -46.2839 H         1 UNK         0.0600 
    151 H151       -5.0763  -19.4461  -44.7799 H         1 UNK         0.0600 
    152 H152       -4.2825  -17.8953  -44.5774 H         1 UNK         0.0600 
    153 H153       -4.0714  -19.1651  -43.3712 H         1 UNK         0.0600 
    154 H154       -1.7403  -18.3844  -43.8834 H         1 UNK         0.3000 
    155 H155        1.5398  -18.6651  -45.2357 H         1 UNK         0.0600 
    156 H156       -0.1057  -16.1243  -44.8763 H         1 UNK         0.0600 
    157 H157        1.6553  -16.2362  -44.8986 H         1 UNK         0.0600 
    158 H158        0.7214  -16.5815  -46.3459 H         1 UNK         0.0600 
    159 H159        0.3945  -17.4167  -42.8831 H         1 UNK         0.3000 
    160 H160        0.4411  -20.3383  -40.8545 H         1 UNK         0.0600 
    161 H161        2.3348  -17.9259  -40.7919 H         1 UNK         0.0600 
    162 H162        2.8347  -19.6133  -40.7967 H         1 UNK         0.0600 
    163 H163        1.9411  -18.9722  -39.4272 H         1 UNK         0.0600 
    164 H164       -0.0657  -17.5998  -40.2494 H         1 UNK         0.3000 
    165 H165       -3.5398  -17.8776  -40.4404 H         1 UNK         0.0600 
    166 H166       -2.8879  -15.9048  -39.1333 H         1 UNK         0.0600 
    167 H167       -1.9290  -17.2797  -38.6175 H         1 UNK         0.0600 
    168 H168       -1.2115  -16.0397  -39.6416 H         1 UNK         0.0600 
    169 H169       -3.8498  -16.4305  -42.0793 H         1 UNK         0.3000 
    170 H170       -2.8783  -15.5147  -44.4275 H         1 UNK         0.0600 
    171 H171       -4.6155  -14.6558  -42.8656 H         1 UNK         0.0600 
    172 H172       -3.5272  -13.3933  -42.2953 H         1 UNK         0.0600 
    173 H173       -4.1364  -13.3659  -43.9478 H         1 UNK         0.0600 
    174 H174       -0.8034  -13.7356  -43.4287 H         1 UNK         0.3000 
    175 H175       -0.2673  -11.7504  -44.9664 H         1 UNK         0.0600 
    176 H176        1.2899  -14.0945  -46.2061 H         1 UNK         0.0600 
    177 H177        1.9797  -12.6069  -45.5757 H         1 UNK         0.0600 
    178 H178        1.2347  -13.7509  -44.4762 H         1 UNK         0.0600 
    179 H179       -0.8437  -12.6768  -47.6510 H         1 UNK         0.3000 
    180 H180       -1.0359  -10.4774  -49.1099 H         1 UNK         0.0600 
    181 H181        1.8654   -9.5207  -49.3478 H         1 UNK         0.0600 
    182 H182        0.4647   -8.5344  -48.9589 H         1 UNK         0.0600 
    183 H183        0.6044   -9.2601  -50.5520 H         1 UNK         0.0600 
    184 H184       -0.4957  -12.3205  -50.1851 H         1 UNK         0.3000 
    185 H185        0.6877  -14.3590  -50.4529 H         1 UNK         0.0600 
    186 H186        0.9916  -14.2780  -52.9424 H         1 UNK         0.0600 
    187 H187        0.0448  -12.9253  -52.3540 H         1 UNK         0.0600 
    188 H188        1.7275  -12.6814  -52.7970 H         1 UNK         0.0600 
    189 H189        2.5643  -15.4500  -50.4566 H         1 UNK         0.3000 
    190 H190       -0.6000  -21.1300  -47.3227 H         1 UNK         0.3000 
    191 H191       -0.5989  -21.9291  -50.0241 H         1 UNK         0.0600 
    192 H192       -2.8711  -20.7010  -48.3747 H         1 UNK         0.0600 
    193 H193       -2.7839  -20.7362  -50.1274 H         1 UNK         0.0600 
    194 H194       -1.5991  -19.8182  -49.2109 H         1 UNK         0.0600 
    195 H195       -2.6589  -23.0843  -47.3029 H         1 UNK         0.3000 
    196 H196       -4.1725  -24.9703  -48.7598 H         1 UNK         0.0600 
    197 H197       -4.6828  -25.9334  -46.5317 H         1 UNK         0.0600 
    198 H198       -4.7630  -24.1790  -46.4790 H         1 UNK         0.0600 
    199 H199       -3.3703  -25.0176  -45.8039 H         1 UNK         0.0600 
    200 H200       -1.0476  -25.3891  -47.0249 H         1 UNK         0.3000 
    201 H201       -0.6889  -28.1487  -47.5950 H         1 UNK         0.0600 
    202 H202        0.5677  -26.9432  -45.8293 H         1 UNK         0.0600 
    203 H203        1.3884  -25.9642  -47.0426 H         1 UNK         0.0600 
    204 H204        1.6808  -27.6967  -46.9614 H         1 UNK         0.0600 
    205 H205        0.1171  -25.2454  -49.4777 H         1 UNK         0.3000 
    206 H206        1.4529  -26.6516  -51.6347 H         1 UNK         0.0600 
    207 H207        1.9654  -24.2836  -51.0299 H         1 UNK         0.0600 
    208 H208        1.4349  -24.4134  -52.6988 H         1 UNK         0.0600 
    209 H209        0.3292  -23.8057  -51.4749 H         1 UNK         0.0600 
    210 H210       -1.7423  -26.7025  -50.7493 H         1 UNK         0.3000 
    211 H211       -3.6149  -27.4128  -51.6089 H         1 UNK         0.0600 
    212 H212       -2.1653  -28.1233  -54.2071 H         1 UNK         0.0600 
    213 H213       -3.7045  -28.7561  -53.6466 H         1 UNK         0.0600 
    214 H214       -2.2332  -29.1521  -52.7757 H         1 UNK         0.0600 
    215 H215       -2.8200  -24.6067  -51.8835 H         1 UNK         0.3000 
    216 H216       -4.6714  -23.6657  -54.0243 H         1 UNK         0.0600 
    217 H217       -3.7944  -21.4234  -53.4221 H         1 UNK         0.0600 
    218 H218       -2.4560  -22.4877  -53.8209 H         1 UNK         0.0600 
    219 H219       -2.8112  -22.1099  -52.1386 H         1 UNK         0.0600 
    220 H220       -6.1508  -21.8574  -53.1363 H         1 UNK         0.3000 
    221 H221       -7.7576  -22.8529  -50.9346 H         1 UNK         0.0600 
    222 H222       -7.8896  -20.2361  -52.5349 H         1 UNK         0.0600 
    223 H223       -8.7885  -21.7109  -52.8887 H         1 UNK         0.0600 
    224 H224       -9.1184  -20.8123  -51.4163 H         1 UNK         0.0600 
    225 H225       -7.6671  -22.2394  -48.8097 H         1 UNK         0.3000 
    226 H226       -5.4955  -20.6916  -47.7746 H         1 UNK         0.0600 
    227 H227       -6.5463  -22.5845  -46.5499 H         1 UNK         0.0600 
    228 H228       -6.6236  -21.1169  -45.5928 H         1 UNK         0.0600 
    229 H229       -8.0624  -21.6921  -46.4255 H         1 UNK         0.0600 
    230 H230       -8.6659  -19.7885  -48.8707 H         1 UNK         0.3000 
    231 H231       -8.8297  -17.2229  -47.5012 H         1 UNK         0.0600 
    232 H232      -10.7989  -16.9125  -48.9997 H         1 UNK         0.0600 
    233 H233      -10.8694  -18.4712  -48.1943 H         1 UNK         0.0600 
    234 H234      -10.3795  -18.3730  -49.8866 H         1 UNK         0.0600 
    235 H235       -7.0631  -18.3942  -50.2166 H         1 UNK         0.3000 
    236 H236       -6.7017  -15.6972  -51.4341 H         1 UNK         0.0600 
    237 H237       -7.3526  -17.5940  -52.9843 H         1 UNK         0.0600 
    238 H238       -5.7607  -16.9510  -53.3435 H         1 UNK         0.0600 
    239 H239       -5.9117  -18.4758  -52.4826 H         1 UNK         0.0600 
    240 H240       -4.3193  -15.4941  -52.1927 H         1 UNK         0.3000 
    241 H241       -2.1653  -15.2618  -51.8449 H         1 UNK         0.0600 
    242 H242       -3.4751  -16.0719  -48.5469 H         1 UNK         0.3800 
    243 H243       -2.7278  -14.6814  -47.7567 H         1 UNK         0.3800 
    244 H244       -2.2126  -17.7001  -49.9973 H         1 UNK         0.0800 
    245 H245       -2.1546  -17.7824  -51.7253 H         1 UNK         0.0800 
    246 H246        0.1362  -16.1634  -48.6611 H         1 UNK         0.0800 
    247 H247       -0.4356  -17.8084  -48.6083 H         1 UNK         0.0800 
@<TRIPOS>BOND
     1    1    2 1    
     2    1  127 1    
     3    1  128 1    
     4    1  129 1    
     5    2    3 2    
     6    2    4 am   BACKBONE|DICT|INTERRES
     7    4    5 1    
     8    4  130 1    
     9    5    6 1    
    10    5   65 1    
    11    5  131 1    
    12    6    7 1    
    13    6  132 1    
    14    6  133 1    
    15    7    8 1    
    16    8    9 1    
    17    8  134 1    
    18    8  135 1    
    19    9   10 ar   
    20    9   14 ar   
    21   10   11 ar   
    22   10  136 1    
    23   11   12 ar   
    24   11  126 1    
    25   12   13 ar   
    26   12  137 1    
    27   13   14 ar   
    28   13   15 1    
    29   14  138 1    
    30   15   16 1    
    31   15  139 1    
    32   15  140 1    
    33   16   17 1    
    34   17   18 1    
    35   17  141 1    
    36   17  142 1    
    37   18   19 1    
    38   18   67 1    
    39   18  143 1    
    40   19   20 am   BACKBONE|DICT|INTERRES
    41   19  144 1    
    42   20   21 2    
    43   20   22 1    
    44   22   23 1    
    45   22   24 1    
    46   22  145 1    
    47   23  146 1    
    48   23  147 1    
    49   23  148 1    
    50   24   25 am   BACKBONE|DICT|INTERRES
    51   24  149 1    
    52   25   26 2    
    53   25   27 1    
    54   27   28 1    
    55   27   29 1    
    56   27  150 1    
    57   28  151 1    
    58   28  152 1    
    59   28  153 1    
    60   29   30 am   BACKBONE|DICT|INTERRES
    61   29  154 1    
    62   30   31 2    
    63   30   32 1    
    64   32   33 1    
    65   32   34 1    
    66   32  155 1    
    67   33  156 1    
    68   33  157 1    
    69   33  158 1    
    70   34   35 am   BACKBONE|DICT|INTERRES
    71   34  159 1    
    72   35   36 2    
    73   35   37 1    
    74   37   38 1    
    75   37   39 1    
    76   37  160 1    
    77   38  161 1    
    78   38  162 1    
    79   38  163 1    
    80   39   40 am   BACKBONE|DICT|INTERRES
    81   39  164 1    
    82   40   41 2    
    83   40   42 1    
    84   42   43 1    
    85   42   44 1    
    86   42  165 1    
    87   43  166 1    
    88   43  167 1    
    89   43  168 1    
    90   44   45 am   BACKBONE|DICT|INTERRES
    91   44  169 1    
    92   45   46 2    
    93   45   47 1    
    94   47   48 1    
    95   47   49 1    
    96   47  170 1    
    97   48  171 1    
    98   48  172 1    
    99   48  173 1    
   100   49   50 am   BACKBONE|DICT|INTERRES
   101   49  174 1    
   102   50   51 2    
   103   50   52 1    
   104   52   53 1    
   105   52   54 1    
   106   52  175 1    
   107   53  176 1    
   108   53  177 1    
   109   53  178 1    
   110   54   55 am   BACKBONE|DICT|INTERRES
   111   54  179 1    
   112   55   56 2    
   113   55   57 1    
   114   57   58 1    
   115   57   59 1    
   116   57  180 1    
   117   58  181 1    
   118   58  182 1    
   119   58  183 1    
   120   59   60 am   BACKBONE|DICT|INTERRES
   121   59  184 1    
   122   60   61 2    
   123   60   62 1    
   124   62   63 1    
   125   62   64 1    
   126   62  185 1    
   127   63  186 1    
   128   63  187 1    
   129   63  188 1    
   130   64   65 am   BACKBONE|DICT|INTERRES
   131   64  189 1    
   132   65   66 2    
   133   67   68 2    
   134   67   69 am   BACKBONE|DICT|INTERRES
   135   69   70 1    
   136   69  190 1    
   137   70   71 1    
   138   70   72 1    
   139   70  191 1    
   140   71  192 1    
   141   71  193 1    
   142   71  194 1    
   143   72   73 2    
   144   72   74 am   BACKBONE|DICT|INTERRES
   145   74   75 1    
   146   74  195 1    
   147   75   76 1    
   148   75   77 1    
   149   75  196 1    
   150   76  197 1    
   151   76  198 1    
   152   76  199 1    
   153   77   78 2    
   154   77   79 am   BACKBONE|DICT|INTERRES
   155   79   80 1    
   156   79  200 1    
   157   80   81 1    
   158   80   82 1    
   159   80  201 1    
   160   81  202 1    
   161   81  203 1    
   162   81  204 1    
   163   82   83 2    
   164   82   84 am   BACKBONE|DICT|INTERRES
   165   84   85 1    
   166   84  205 1    
   167   85   86 1    
   168   85   87 1    
   169   85  206 1    
   170   86  207 1    
   171   86  208 1    
   172   86  209 1    
   173   87   88 2    
   174   87   89 am   BACKBONE|DICT|INTERRES
   175   89   90 1    
   176   89  210 1    
   177   90   91 1    
   178   90   92 1    
   179   90  211 1    
   180   91  212 1    
   181   91  213 1    
   182   91  214 1    
   183   92   93 2    
   184   92   94 am   BACKBONE|DICT|INTERRES
   185   94   95 1    
   186   94  215 1    
   187   95   96 1    
   188   95   97 1    
   189   95  216 1    
   190   96  217 1    
   191   96  218 1    
   192   96  219 1    
   193   97   98 2    
   194   97   99 am   BACKBONE|DICT|INTERRES
   195   99  100 1    
   196   99  220 1    
   197  100  101 1    
   198  100  102 1    
   199  100  221 1    
   200  101  222 1    
   201  101  223 1    
   202  101  224 1    
   203  102  103 2    
   204  102  104 am   BACKBONE|DICT|INTERRES
   205  104  105 1    
   206  104  225 1    
   207  105  106 1    
   208  105  107 1    
   209  105  226 1    
   210  106  227 1    
   211  106  228 1    
   212  106  229 1    
   213  107  108 2    
   214  107  109 am   BACKBONE|DICT|INTERRES
   215  109  110 1    
   216  109  230 1    
   217  110  111 1    
   218  110  112 1    
   219  110  231 1    
   220  111  232 1    
   221  111  233 1    
   222  111  234 1    
   223  112  113 2    
   224  112  114 am   BACKBONE|DICT|INTERRES
   225  114  115 1    
   226  114  235 1    
   227  115  116 1    
   228  115  117 1    
   229  115  236 1    
   230  116  237 1    
   231  116  238 1    
   232  116  239 1    
   233  117  118 2    
   234  117  119 am   BACKBONE|DICT|INTERRES
   235  119  120 1    
   236  119  240 1    
   237  120  121 1    
   238  120  124 1    
   239  120  241 1    
   240  121  122 am   BACKBONE|DICT|INTERRES
   241  121  123 2    
   242  122  242 1    
   243  122  243 1    
   244  124  125 1    
   245  124  244 1    
   246  124  245 1    
   247  125  126 1    
   248  126  246 1    
   249  126  247 1    
@<TRIPOS>SUBSTRUCTURE
     1 UNK         1 GROUP             0       ****    0 ROOT    
