@<TRIPOS>MOLECULE
3R540
247   249    1
SMALL
USER_CHARGES


@<TRIPOS>ATOM
      1 CA          7.3500  -12.5219  -47.9150 C.3       0 UNK        -0.1800 
      2 C           6.8024  -13.9207  -48.1609 C.2       0 UNK         0.5000 
      3 O           7.5051  -14.7657  -48.7166 O.2       0 UNK        -0.5000 
      4 N           5.5487  -14.1624  -47.7599 N.am      1 UNK        -0.5000 
      5 CA          4.8614  -15.4541  -47.8636 C.3       1 UNK         0.1400 
      6 C6          3.3325  -15.3234  -47.6192 C.3       23 UNK        -0.0398 
      7 S7          2.5199  -13.9677  -48.5433 S.3       23 UNK        -0.2404 
      8 C8          2.8105  -14.4028  -50.2902 C.3       23 UNK        -0.0205 
      9 C9          1.9424  -15.5675  -50.7369 C.ar      23 UNK        -0.0193 
     10 C10         0.7122  -15.3363  -51.3569 C.ar      23 UNK        -0.1150 
     11 C11        -0.0934  -16.4066  -51.7572 C.ar      23 UNK        -0.0193 
     12 C12         0.3246  -17.7167  -51.5015 C.ar      23 UNK        -0.1150 
     13 C13         1.5523  -17.9594  -50.8767 C.ar      23 UNK        -0.0193 
     14 C14         2.3695  -16.8798  -50.5315 C.ar      23 UNK        -0.1150 
     15 C15         1.9865  -19.3845  -50.5550 C.3       23 UNK        -0.0205 
     16 S16         2.5518  -19.5797  -48.8278 S.3       23 UNK        -0.2404 
     17 C17         1.0806  -19.0516  -47.8877 C.3       23 UNK        -0.0398 
     18 CA          0.2972  -20.2369  -47.2829 C.3       11 UNK         0.1400 
     19 N          -0.5552  -19.8082  -46.1732 N.am      11 UNK        -0.5000 
     20 C          -1.1326  -20.6383  -45.2950 C.2       10 UNK         0.5000 
     21 O          -0.9511  -21.8539  -45.2861 O.2       10 UNK        -0.5000 
     22 CA         -2.1108  -20.0132  -44.2877 C.3       10 UNK         0.1400 
     23 CB         -1.3797  -19.6021  -43.0059 C.3       10 UNK        -0.1800 
     24 N          -2.8181  -18.8619  -44.8490 N.am      10 UNK        -0.5000 
     25 C          -3.7781  -18.9673  -45.7800 C.2       9 UNK         0.5000 
     26 O          -4.1909  -20.0459  -46.2066 O.2       9 UNK        -0.5000 
     27 CA         -4.3337  -17.6570  -46.3717 C.3       9 UNK         0.1400 
     28 CB         -5.4753  -17.1137  -45.5000 C.3       9 UNK        -0.1800 
     29 N          -3.3147  -16.6183  -46.5330 N.am      9 UNK        -0.5000 
     30 C          -2.2267  -16.7237  -47.3098 C.2       8 UNK         0.5000 
     31 O          -1.9944  -17.7019  -48.0177 O.2       8 UNK        -0.5000 
     32 CA         -1.1939  -15.5799  -47.2339 C.3       8 UNK         0.1400 
     33 CB         -1.4029  -14.5818  -48.3799 C.3       8 UNK        -0.1800 
     34 N          -1.2117  -14.8502  -45.9620 N.am      8 UNK        -0.5000 
     35 C          -0.9486  -15.3852  -44.7619 C.2       7 UNK         0.5000 
     36 O          -0.6537  -16.5720  -44.6094 O.2       7 UNK        -0.5000 
     37 CA         -1.0415  -14.4147  -43.5649 C.3       7 UNK         0.1400 
     38 CB         -2.4327  -13.7511  -43.4690 C.3       7 UNK        -0.1800 
     39 N          -0.6589  -15.0085  -42.2798 N.am      7 UNK        -0.5000 
     40 C          -1.2848  -15.9668  -41.5768 C.2       6 UNK         0.5000 
     41 O          -2.3519  -16.4812  -41.9156 O.2       6 UNK        -0.5000 
     42 CA         -0.6165  -16.3970  -40.2514 C.3       6 UNK         0.1400 
     43 CB         -0.7566  -17.9027  -39.9712 C.3       6 UNK        -0.1800 
     44 N           0.8049  -16.0550  -40.2425 N.am      6 UNK        -0.5000 
     45 C           1.4167  -15.2475  -39.3666 C.2       5 UNK         0.5000 
     46 O           0.8552  -14.7421  -38.3939 O.2       5 UNK        -0.5000 
     47 CA          2.9056  -14.9265  -39.6282 C.3       5 UNK         0.1400 
     48 CB          3.8057  -15.8084  -38.7494 C.3       5 UNK        -0.1800 
     49 N           3.3148  -15.0812  -41.0282 N.am      5 UNK        -0.5000 
     50 C           2.8105  -14.3934  -42.0620 C.2       4 UNK         0.5000 
     51 O           1.9796  -13.4931  -41.9394 O.2       4 UNK        -0.5000 
     52 CA          3.2536  -14.8139  -43.4773 C.3       4 UNK         0.1400 
     53 CB          4.4010  -13.9065  -43.9477 C.3       4 UNK        -0.1800 
     54 N           3.6374  -16.2265  -43.6399 N.am      4 UNK        -0.5000 
     55 C           2.9034  -17.2958  -43.2813 C.2       3 UNK         0.5000 
     56 O           1.8384  -17.2103  -42.6711 O.2       3 UNK        -0.5000 
     57 CA          3.4484  -18.6879  -43.6545 C.3       3 UNK         0.1400 
     58 CB          2.3340  -19.7420  -43.7777 C.3       3 UNK        -0.1800 
     59 N           4.1914  -18.6339  -44.9115 N.am      3 UNK        -0.5000 
     60 C           5.4265  -19.1104  -45.1070 C.2       2 UNK         0.5000 
     61 O           6.0771  -19.7042  -44.2463 O.2       2 UNK        -0.5000 
     62 CA          6.0552  -18.8705  -46.4964 C.3       2 UNK         0.1400 
     63 CB          6.0156  -20.1587  -47.3328 C.3       2 UNK        -0.1800 
     64 N           5.4467  -17.7738  -47.2639 N.am      2 UNK        -0.5000 
     65 C           5.4827  -16.4852  -46.8952 C.2       1 UNK         0.5000 
     66 O           5.9487  -16.1078  -45.8173 O.2       1 UNK        -0.5000 
     67 C          -0.5224  -21.0021  -48.3432 C.2       11 UNK         0.5000 
     68 O          -0.0905  -22.0607  -48.7973 O.2       11 UNK        -0.5000 
     69 N          -1.7189  -20.4915  -48.6690 N.am      12 UNK        -0.5000 
     70 CA         -2.6988  -21.1533  -49.5317 C.3       12 UNK         0.1400 
     71 CB         -3.8842  -20.2090  -49.7793 C.3       12 UNK        -0.1800 
     72 C          -3.1730  -22.5015  -48.9549 C.2       12 UNK         0.5000 
     73 O          -3.2701  -23.4797  -49.6961 O.2       12 UNK        -0.5000 
     74 N          -3.4121  -22.5481  -47.6363 N.am      13 UNK        -0.5000 
     75 CA         -3.7434  -23.7705  -46.9034 C.3       13 UNK         0.1400 
     76 CB         -4.2033  -23.4221  -45.4811 C.3       13 UNK        -0.1800 
     77 C          -2.5924  -24.7928  -46.8850 C.2       13 UNK         0.5000 
     78 O          -2.8428  -25.9772  -47.1058 O.2       13 UNK        -0.5000 
     79 N          -1.3519  -24.3261  -46.6812 N.am      14 UNK        -0.5000 
     80 CA         -0.1327  -25.1398  -46.7487 C.3       14 UNK         0.1400 
     81 CB          1.0695  -24.3141  -46.2657 C.3       14 UNK        -0.1800 
     82 C           0.1285  -25.7165  -48.1546 C.2       14 UNK         0.5000 
     83 O           0.6029  -26.8467  -48.2712 O.2       14 UNK        -0.5000 
     84 N          -0.2342  -24.9514  -49.1926 N.am      15 UNK        -0.5000 
     85 CA         -0.2311  -25.3650  -50.5974 C.3       15 UNK         0.1400 
     86 CB         -0.2394  -24.1064  -51.4816 C.3       15 UNK        -0.1800 
     87 C          -1.4006  -26.3042  -50.9713 C.2       15 UNK         0.5000 
     88 O          -1.4333  -26.7890  -52.1031 O.2       15 UNK        -0.5000 
     89 N          -2.3317  -26.5409  -50.0330 N.am      16 UNK        -0.5000 
     90 CA         -3.5453  -27.3553  -50.1524 C.3       16 UNK         0.1400 
     91 CB         -3.1960  -28.8403  -50.3852 C.3       16 UNK        -0.1800 
     92 C          -4.5461  -26.7927  -51.1826 C.2       16 UNK         0.5000 
     93 O          -5.2055  -27.5578  -51.8891 O.2       16 UNK        -0.5000 
     94 N          -4.6453  -25.4601  -51.2445 N.am      17 UNK        -0.5000 
     95 CA         -5.4899  -24.7186  -52.1743 C.3       17 UNK         0.1400 
     96 CB         -4.6788  -24.3790  -53.4395 C.3       17 UNK        -0.1800 
     97 C          -6.0656  -23.4783  -51.4731 C.2       17 UNK         0.5000 
     98 O          -6.0302  -22.3845  -52.0328 O.2       17 UNK        -0.5000 
     99 N          -6.5896  -23.6646  -50.2515 N.am      18 UNK        -0.5000 
    100 CA        -7.1186  -22.6066  -49.3779 C.3       18 UNK         0.1400 
    101 CB        -7.5837  -23.2343  -48.0545 C.3       18 UNK        -0.1800 
    102 C         -8.2657  -21.7764  -49.9907 C.2       18 UNK         0.5000 
    103 O         -8.4243  -20.6063  -49.6429 O.2       18 UNK        -0.5000 
    104 N         -9.0381  -22.3973  -50.8911 N.am      19 UNK        -0.5000 
    105 CA       -10.1376  -21.7762  -51.6300 C.3       19 UNK         0.1400 
    106 CB       -11.1325  -22.8789  -52.0290 C.3       19 UNK        -0.1800 
    107 C         -9.6770  -20.9864  -52.8743 C.2       19 UNK         0.5000 
    108 O        -10.5134  -20.3451  -53.5129 O.2       19 UNK        -0.5000 
    109 N         -8.3857  -21.0568  -53.2207 N.am      20 UNK        -0.5000 
    110 CA        -7.7912  -20.4301  -54.3959 C.3       20 UNK         0.1400 
    111 CB        -7.7922  -21.4393  -55.5642 C.3       20 UNK        -0.1800 
    112 C         -6.4015  -19.8812  -54.0248 C.2       20 UNK         0.5000 
    113 O         -6.2724  -19.2324  -52.9842 O.2       20 UNK        -0.5000 
    114 N         -5.4016  -20.1238  -54.8864 N.am      21 UNK        -0.5000 
    115 CA        -3.9835  -19.7431  -54.8058 C.3       21 UNK         0.1400 
    116 CB        -3.3033  -20.3493  -53.5627 C.3       21 UNK        -0.1800 
    117 C         -3.7283  -18.2264  -54.8923 C.2       21 UNK         0.5000 
    118 O         -2.9542  -17.7885  -55.7441 O.2       21 UNK        -0.5000 
    119 N         -4.3812  -17.4612  -54.0155 N.am      22 UNK        -0.5000 
    120 CA        -4.2652  -16.0020  -53.8832 C.3       22 UNK         0.1400 
    121 C         -5.3827  -15.2144  -54.6277 C.2       22 UNK         0.5000 
    122 N         -6.3006  -15.8636  -55.3338 N.am      22 UNK        -0.7600 
    123 O         -5.4099  -13.9877  -54.5795 O.2       22 UNK        -0.5000 
    124 C124       -4.1710  -15.5776  -52.3919 C.3       23 UNK        -0.0398 
    125 S125       -2.8527  -16.4065  -51.4308 S.3       23 UNK        -0.2404 
    126 C126       -1.3981  -16.1434  -52.4915 C.3       23 UNK        -0.0205 
    127 H127        6.6172  -11.8800  -47.4253 H         1 UNK         0.0600 
    128 H128        7.6316  -12.0572  -48.8600 H         1 UNK         0.0600 
    129 H129        8.2351  -12.5721  -47.2808 H         1 UNK         0.0600 
    130 H130        5.0215  -13.4253  -47.3157 H         1 UNK         0.3000 
    131 H131        5.0199  -15.8263  -48.8767 H         1 UNK         0.0600 
    132 H132        2.8223  -16.2582  -47.8522 H         1 UNK         0.0800 
    133 H133        3.1316  -15.1409  -46.5629 H         1 UNK         0.0800 
    134 H134        2.5895  -13.5268  -50.9017 H         1 UNK         0.0800 
    135 H135        3.8645  -14.6214  -50.4614 H         1 UNK         0.0800 
    136 H136        0.3842  -14.3213  -51.5323 H         1 UNK         0.1150 
    137 H137       -0.3106  -18.5433  -51.7880 H         1 UNK         0.1150 
    138 H138        3.3270  -17.0650  -50.0687 H         1 UNK         0.1150 
    139 H139        1.1741  -20.0887  -50.7414 H         1 UNK         0.0800 
    140 H140        2.7990  -19.6647  -51.2263 H         1 UNK         0.0800 
    141 H141        1.4424  -18.4069  -47.0858 H         1 UNK         0.0800 
    142 H142        0.4366  -18.4209  -48.5000 H         1 UNK         0.0800 
    143 H143        1.0240  -20.9374  -46.8652 H         1 UNK         0.0600 
    144 H144       -0.7837  -18.8255  -46.1218 H         1 UNK         0.3000 
    145 H145       -2.8471  -20.7739  -44.0214 H         1 UNK         0.0600 
    146 H146       -2.0854  -19.2368  -42.2608 H         1 UNK         0.0600 
    147 H147       -0.8511  -20.4488  -42.5664 H         1 UNK         0.0600 
    148 H148       -0.6462  -18.8165  -43.1900 H         1 UNK         0.0600 
    149 H149       -2.4908  -17.9463  -44.5652 H         1 UNK         0.3000 
    150 H150       -4.7352  -17.8853  -47.3612 H         1 UNK         0.0600 
    151 H151       -6.2607  -17.8606  -45.3763 H         1 UNK         0.0600 
    152 H152       -5.9333  -16.2340  -45.9525 H         1 UNK         0.0600 
    153 H153       -5.1250  -16.8368  -44.5046 H         1 UNK         0.0600 
    154 H154       -3.4234  -15.7846  -45.9755 H         1 UNK         0.3000 
    155 H155       -0.2032  -16.0251  -47.3480 H         1 UNK         0.0600 
    156 H156       -0.6477  -13.7960  -48.3654 H         1 UNK         0.0600 
    157 H157       -2.3852  -14.1104  -48.3336 H         1 UNK         0.0600 
    158 H158       -1.3230  -15.0824  -49.3433 H         1 UNK         0.0600 
    159 H159       -1.4380  -13.8679  -46.0191 H         1 UNK         0.3000 
    160 H160       -0.3087  -13.6279  -43.7494 H         1 UNK         0.0600 
    161 H161       -3.2337  -14.4886  -43.4088 H         1 UNK         0.0600 
    162 H162       -2.6357  -13.1224  -44.3362 H         1 UNK         0.0600 
    163 H163       -2.5029  -13.1103  -42.5899 H         1 UNK         0.0600 
    164 H164        0.2142  -14.6599  -41.9034 H         1 UNK         0.3000 
    165 H165       -1.1436  -15.8578  -39.4622 H         1 UNK         0.0600 
    166 H166       -0.2101  -18.4951  -40.7048 H         1 UNK         0.0600 
    167 H167       -0.3632  -18.1531  -38.9860 H         1 UNK         0.0600 
    168 H168       -1.8001  -18.2185  -39.9908 H         1 UNK         0.0600 
    169 H169        1.3342  -16.4234  -41.0306 H         1 UNK         0.3000 
    170 H170        3.0676  -13.8835  -39.3485 H         1 UNK         0.0600 
    171 H171        3.5516  -15.6980  -37.6943 H         1 UNK         0.0600 
    172 H172        3.7033  -16.8644  -39.0029 H         1 UNK         0.0600 
    173 H173        4.8554  -15.5355  -38.8592 H         1 UNK         0.0600 
    174 H174        3.9835  -15.8111  -41.2250 H         1 UNK         0.3000 
    175 H175        2.3973  -14.6430  -44.1327 H         1 UNK         0.0600 
    176 H176        5.3315  -14.1321  -43.4255 H         1 UNK         0.0600 
    177 H177        4.5813  -14.0120  -45.0152 H         1 UNK         0.0600 
    178 H178        4.1722  -12.8544  -43.7712 H         1 UNK         0.0600 
    179 H179        4.5154  -16.3892  -44.1187 H         1 UNK         0.3000 
    180 H180        4.1070  -18.9835  -42.8357 H         1 UNK         0.0600 
    181 H181        1.6010  -19.4506  -44.5281 H         1 UNK         0.0600 
    182 H182        1.8055  -19.8714  -42.8325 H         1 UNK         0.0600 
    183 H183        2.7359  -20.7151  -44.0604 H         1 UNK         0.0600 
    184 H184        3.7400  -18.1582  -45.6779 H         1 UNK         0.3000 
    185 H185        7.1029  -18.6100  -46.3317 H         1 UNK         0.0600 
    186 H186        6.4812  -20.0153  -48.3080 H         1 UNK         0.0600 
    187 H187        6.5556  -20.9634  -46.8322 H         1 UNK         0.0600 
    188 H188        4.9949  -20.5052  -47.4924 H         1 UNK         0.0600 
    189 H189        5.0366  -18.0301  -48.1506 H         1 UNK         0.3000 
    190 H190       -1.9742  -19.5780  -48.3023 H         1 UNK         0.3000 
    191 H191       -2.2165  -21.3512  -50.4910 H         1 UNK         0.0600 
    192 H192       -4.5931  -20.6482  -50.4817 H         1 UNK         0.0600 
    193 H193       -3.5517  -19.2616  -50.2040 H         1 UNK         0.0600 
    194 H194       -4.4283  -19.9887  -48.8615 H         1 UNK         0.0600 
    195 H195       -3.3766  -21.6869  -47.1012 H         1 UNK         0.3000 
    196 H196       -4.5779  -24.2454  -47.4205 H         1 UNK         0.0600 
    197 H197       -4.5197  -24.3173  -44.9446 H         1 UNK         0.0600 
    198 H198       -5.0501  -22.7356  -45.4974 H         1 UNK         0.0600 
    199 H199       -3.4061  -22.9585  -44.9014 H         1 UNK         0.0600 
    200 H200       -1.2293  -23.3473  -46.4359 H         1 UNK         0.3000 
    201 H201       -0.2598  -25.9825  -46.0661 H         1 UNK         0.0600 
    202 H202        0.9209  -23.9599  -45.2455 H         1 UNK         0.0600 
    203 H203        1.2434  -23.4449  -46.8996 H         1 UNK         0.0600 
    204 H204        1.9816  -24.9121  -46.2725 H         1 UNK         0.0600 
    205 H205       -0.5383  -24.0007  -49.0052 H         1 UNK         0.3000 
    206 H206        0.6949  -25.9093  -50.7928 H         1 UNK         0.0600 
    207 H207        0.6031  -23.4546  -51.2491 H         1 UNK         0.0600 
    208 H208       -0.1656  -24.3675  -52.5379 H         1 UNK         0.0600 
    209 H209       -1.1543  -23.5287  -51.3512 H         1 UNK         0.0600 
    210 H210       -2.2162  -26.0878  -49.1347 H         1 UNK         0.3000 
    211 H211       -4.0475  -27.2897  -49.1866 H         1 UNK         0.0600 
    212 H212       -2.7519  -29.0053  -51.3671 H         1 UNK         0.0600 
    213 H213       -4.0874  -29.4654  -50.3218 H         1 UNK         0.0600 
    214 H214       -2.4939  -29.2016  -49.6337 H         1 UNK         0.0600 
    215 H215       -4.0732  -24.8848  -50.6272 H         1 UNK         0.3000 
    216 H216       -6.3477  -25.3267  -52.4682 H         1 UNK         0.0600 
    217 H217       -3.7952  -23.7882  -53.1965 H         1 UNK         0.0600 
    218 H218       -5.2751  -23.8094  -54.1535 H         1 UNK         0.0600 
    219 H219       -4.3438  -25.2843  -53.9459 H         1 UNK         0.0600 
    220 H220       -6.5795  -24.5990  -49.8694 H         1 UNK         0.3000 
    221 H221       -6.2988  -21.9199  -49.1607 H         1 UNK         0.0600 
    222 H222       -8.4024  -23.9380  -48.2104 H         1 UNK         0.0600 
    223 H223       -6.7774  -23.7677  -47.5555 H         1 UNK         0.0600 
    224 H224       -7.9371  -22.4684  -47.3627 H         1 UNK         0.0600 
    225 H225       -8.8313  -23.3599  -51.1134 H         1 UNK         0.3000 
    226 H226      -10.6555  -21.0740  -50.9733 H         1 UNK         0.0600 
    227 H227      -11.5031  -23.4120  -51.1531 H         1 UNK         0.0600 
    228 H228      -11.9996  -22.4598  -52.5412 H         1 UNK         0.0600 
    229 H229      -10.6766  -23.6086  -52.6994 H         1 UNK         0.0600 
    230 H230       -7.7255  -21.5347  -52.6137 H         1 UNK         0.3000 
    231 H231       -8.3846  -19.5625  -54.6911 H         1 UNK         0.0600 
    232 H232       -7.4262  -20.9861  -56.4862 H         1 UNK         0.0600 
    233 H233       -8.8017  -21.7962  -55.7693 H         1 UNK         0.0600 
    234 H234       -7.1743  -22.3111  -55.3441 H         1 UNK         0.0600 
    235 H235       -5.6420  -20.6461  -55.7170 H         1 UNK         0.3000 
    236 H236       -3.5105  -20.1906  -55.6814 H         1 UNK         0.0600 
    237 H237       -3.4445  -21.4286  -53.5213 H         1 UNK         0.0600 
    238 H238       -2.2296  -20.1585  -53.5728 H         1 UNK         0.0600 
    239 H239       -3.6977  -19.9268  -52.6396 H         1 UNK         0.0600 
    240 H240       -5.0282  -17.9257  -53.3821 H         1 UNK         0.3000 
    241 H241       -3.3452  -15.6811  -54.3727 H         1 UNK         0.0600 
    242 H242       -6.2777  -16.8680  -55.3959 H         1 UNK         0.3800 
    243 H243       -7.0155  -15.3436  -55.8184 H         1 UNK         0.3800 
    244 H244       -4.0055  -14.5018  -52.3133 H         1 UNK         0.0800 
    245 H245       -5.1185  -15.7744  -51.8876 H         1 UNK         0.0800 
    246 H246       -1.4119  -15.1224  -52.8760 H         1 UNK         0.0800 
    247 H247       -1.4564  -16.8025  -53.3583 H         1 UNK         0.0800 
@<TRIPOS>BOND
     1    1    2 1    
     2    1  127 1    
     3    1  128 1    
     4    1  129 1    
     5    2    3 2    
     6    2    4 am   BACKBONE|DICT|INTERRES
     7    4    5 1    
     8    4  130 1    
     9    5    6 1    
    10    5   65 1    
    11    5  131 1    
    12    6    7 1    
    13    6  132 1    
    14    6  133 1    
    15    7    8 1    
    16    8    9 1    
    17    8  134 1    
    18    8  135 1    
    19    9   10 ar   
    20    9   14 ar   
    21   10   11 ar   
    22   10  136 1    
    23   11   12 ar   
    24   11  126 1    
    25   12   13 ar   
    26   12  137 1    
    27   13   14 ar   
    28   13   15 1    
    29   14  138 1    
    30   15   16 1    
    31   15  139 1    
    32   15  140 1    
    33   16   17 1    
    34   17   18 1    
    35   17  141 1    
    36   17  142 1    
    37   18   19 1    
    38   18   67 1    
    39   18  143 1    
    40   19   20 am   BACKBONE|DICT|INTERRES
    41   19  144 1    
    42   20   21 2    
    43   20   22 1    
    44   22   23 1    
    45   22   24 1    
    46   22  145 1    
    47   23  146 1    
    48   23  147 1    
    49   23  148 1    
    50   24   25 am   BACKBONE|DICT|INTERRES
    51   24  149 1    
    52   25   26 2    
    53   25   27 1    
    54   27   28 1    
    55   27   29 1    
    56   27  150 1    
    57   28  151 1    
    58   28  152 1    
    59   28  153 1    
    60   29   30 am   BACKBONE|DICT|INTERRES
    61   29  154 1    
    62   30   31 2    
    63   30   32 1    
    64   32   33 1    
    65   32   34 1    
    66   32  155 1    
    67   33  156 1    
    68   33  157 1    
    69   33  158 1    
    70   34   35 am   BACKBONE|DICT|INTERRES
    71   34  159 1    
    72   35   36 2    
    73   35   37 1    
    74   37   38 1    
    75   37   39 1    
    76   37  160 1    
    77   38  161 1    
    78   38  162 1    
    79   38  163 1    
    80   39   40 am   BACKBONE|DICT|INTERRES
    81   39  164 1    
    82   40   41 2    
    83   40   42 1    
    84   42   43 1    
    85   42   44 1    
    86   42  165 1    
    87   43  166 1    
    88   43  167 1    
    89   43  168 1    
    90   44   45 am   BACKBONE|DICT|INTERRES
    91   44  169 1    
    92   45   46 2    
    93   45   47 1    
    94   47   48 1    
    95   47   49 1    
    96   47  170 1    
    97   48  171 1    
    98   48  172 1    
    99   48  173 1    
   100   49   50 am   BACKBONE|DICT|INTERRES
   101   49  174 1    
   102   50   51 2    
   103   50   52 1    
   104   52   53 1    
   105   52   54 1    
   106   52  175 1    
   107   53  176 1    
   108   53  177 1    
   109   53  178 1    
   110   54   55 am   BACKBONE|DICT|INTERRES
   111   54  179 1    
   112   55   56 2    
   113   55   57 1    
   114   57   58 1    
   115   57   59 1    
   116   57  180 1    
   117   58  181 1    
   118   58  182 1    
   119   58  183 1    
   120   59   60 am   BACKBONE|DICT|INTERRES
   121   59  184 1    
   122   60   61 2    
   123   60   62 1    
   124   62   63 1    
   125   62   64 1    
   126   62  185 1    
   127   63  186 1    
   128   63  187 1    
   129   63  188 1    
   130   64   65 am   BACKBONE|DICT|INTERRES
   131   64  189 1    
   132   65   66 2    
   133   67   68 2    
   134   67   69 am   BACKBONE|DICT|INTERRES
   135   69   70 1    
   136   69  190 1    
   137   70   71 1    
   138   70   72 1    
   139   70  191 1    
   140   71  192 1    
   141   71  193 1    
   142   71  194 1    
   143   72   73 2    
   144   72   74 am   BACKBONE|DICT|INTERRES
   145   74   75 1    
   146   74  195 1    
   147   75   76 1    
   148   75   77 1    
   149   75  196 1    
   150   76  197 1    
   151   76  198 1    
   152   76  199 1    
   153   77   78 2    
   154   77   79 am   BACKBONE|DICT|INTERRES
   155   79   80 1    
   156   79  200 1    
   157   80   81 1    
   158   80   82 1    
   159   80  201 1    
   160   81  202 1    
   161   81  203 1    
   162   81  204 1    
   163   82   83 2    
   164   82   84 am   BACKBONE|DICT|INTERRES
   165   84   85 1    
   166   84  205 1    
   167   85   86 1    
   168   85   87 1    
   169   85  206 1    
   170   86  207 1    
   171   86  208 1    
   172   86  209 1    
   173   87   88 2    
   174   87   89 am   BACKBONE|DICT|INTERRES
   175   89   90 1    
   176   89  210 1    
   177   90   91 1    
   178   90   92 1    
   179   90  211 1    
   180   91  212 1    
   181   91  213 1    
   182   91  214 1    
   183   92   93 2    
   184   92   94 am   BACKBONE|DICT|INTERRES
   185   94   95 1    
   186   94  215 1    
   187   95   96 1    
   188   95   97 1    
   189   95  216 1    
   190   96  217 1    
   191   96  218 1    
   192   96  219 1    
   193   97   98 2    
   194   97   99 am   BACKBONE|DICT|INTERRES
   195   99  100 1    
   196   99  220 1    
   197  100  101 1    
   198  100  102 1    
   199  100  221 1    
   200  101  222 1    
   201  101  223 1    
   202  101  224 1    
   203  102  103 2    
   204  102  104 am   BACKBONE|DICT|INTERRES
   205  104  105 1    
   206  104  225 1    
   207  105  106 1    
   208  105  107 1    
   209  105  226 1    
   210  106  227 1    
   211  106  228 1    
   212  106  229 1    
   213  107  108 2    
   214  107  109 am   BACKBONE|DICT|INTERRES
   215  109  110 1    
   216  109  230 1    
   217  110  111 1    
   218  110  112 1    
   219  110  231 1    
   220  111  232 1    
   221  111  233 1    
   222  111  234 1    
   223  112  113 2    
   224  112  114 am   BACKBONE|DICT|INTERRES
   225  114  115 1    
   226  114  235 1    
   227  115  116 1    
   228  115  117 1    
   229  115  236 1    
   230  116  237 1    
   231  116  238 1    
   232  116  239 1    
   233  117  118 2    
   234  117  119 am   BACKBONE|DICT|INTERRES
   235  119  120 1    
   236  119  240 1    
   237  120  121 1    
   238  120  124 1    
   239  120  241 1    
   240  121  122 am   BACKBONE|DICT|INTERRES
   241  121  123 2    
   242  122  242 1    
   243  122  243 1    
   244  124  125 1    
   245  124  244 1    
   246  124  245 1    
   247  125  126 1    
   248  126  246 1    
   249  126  247 1    
@<TRIPOS>SUBSTRUCTURE
     1 UNK         1 GROUP             0       ****    0 ROOT    
