@<TRIPOS>MOLECULE
3R540
247   249    1
SMALL
USER_CHARGES


@<TRIPOS>ATOM
      1 CA          4.9152  -11.5148  -50.9916 C.3       0 UNK        -0.1800 
      2 C           4.9815  -13.0353  -50.9751 C.2       0 UNK         0.5000 
      3 O           6.0598  -13.6042  -51.1450 O.2       0 UNK        -0.5000 
      4 N           3.8336  -13.6936  -50.7712 N.am      1 UNK        -0.5000 
      5 CA          3.7001  -15.1549  -50.6990 C.3       1 UNK         0.1400 
      6 C6          2.2456  -15.6168  -50.9628 C.3       23 UNK        -0.0398 
      7 S7          0.9967  -14.8304  -49.8789 S.3       23 UNK        -0.2404 
      8 C8         -0.2212  -14.2252  -51.0910 C.3       23 UNK        -0.0205 
      9 C9         -1.2812  -15.2726  -51.4049 C.ar      23 UNK        -0.0193 
     10 C10        -0.9766  -16.3822  -52.1997 C.ar      23 UNK        -0.1150 
     11 C11        -1.9468  -17.3452  -52.4950 C.ar      23 UNK        -0.0193 
     12 C12        -3.2406  -17.1814  -51.9820 C.ar      23 UNK        -0.1150 
     13 C13        -3.5654  -16.0651  -51.2070 C.ar      23 UNK        -0.0193 
     14 C14        -2.5803  -15.1191  -50.9147 C.ar      23 UNK        -0.1150 
     15 C15        -4.9885  -15.8690  -50.7083 C.3       23 UNK        -0.0205 
     16 S16        -5.3967  -16.9926  -49.3404 S.3       23 UNK        -0.2404 
     17 C17        -4.2958  -16.3911  -48.0072 C.3       23 UNK        -0.0398 
     18 CA         -2.9764  -17.1827  -47.7691 C.3       11 UNK         0.1400 
     19 N          -2.4020  -16.8439  -46.4629 N.am      11 UNK        -0.5000 
     20 C          -1.2265  -17.2758  -45.9824 C.2       10 UNK         0.5000 
     21 O          -0.4402  -17.9785  -46.6136 O.2       10 UNK        -0.5000 
     22 CA         -0.9124  -16.9101  -44.5190 C.3       10 UNK         0.1400 
     23 CB         -0.2757  -15.5158  -44.4324 C.3       10 UNK        -0.1800 
     24 N          -2.0802  -16.9472  -43.6338 N.am      10 UNK        -0.5000 
     25 C          -2.8899  -17.9958  -43.4345 C.2       9 UNK         0.5000 
     26 O          -2.7941  -19.0615  -44.0442 O.2       9 UNK        -0.5000 
     27 CA         -3.9611  -17.8210  -42.3396 C.3       9 UNK         0.1400 
     28 CB         -5.0149  -18.9425  -42.3592 C.3       9 UNK        -0.1800 
     29 N          -3.3247  -17.7941  -41.0251 N.am      9 UNK        -0.5000 
     30 C          -2.6716  -16.7484  -40.5004 C.2       8 UNK         0.5000 
     31 O          -2.6650  -15.6252  -41.0070 O.2       8 UNK        -0.5000 
     32 CA         -1.8462  -17.0177  -39.2267 C.3       8 UNK         0.1400 
     33 CB         -2.6689  -16.6901  -37.9715 C.3       8 UNK        -0.1800 
     34 N          -1.3477  -18.3951  -39.1319 N.am      8 UNK        -0.5000 
     35 C          -0.4840  -18.9546  -39.9905 C.2       7 UNK         0.5000 
     36 O          -0.0229  -18.3794  -40.9781 O.2       7 UNK        -0.5000 
     37 CA         -0.1041  -20.4145  -39.7221 C.3       7 UNK         0.1400 
     38 CB         -1.1404  -21.3701  -40.3429 C.3       7 UNK        -0.1800 
     39 N           1.2194  -20.6548  -40.2848 N.am      7 UNK        -0.5000 
     40 C           2.0369  -21.6592  -39.9514 C.2       6 UNK         0.5000 
     41 O           1.7355  -22.5574  -39.1642 O.2       6 UNK        -0.5000 
     42 CA          3.4418  -21.6391  -40.5757 C.3       6 UNK         0.1400 
     43 CB          3.4241  -22.2268  -41.9952 C.3       6 UNK        -0.1800 
     44 N           4.0000  -20.2858  -40.6051 N.am      6 UNK        -0.5000 
     45 C           4.5816  -19.6944  -39.5495 C.2       5 UNK         0.5000 
     46 O           4.7188  -20.2427  -38.4551 O.2       5 UNK        -0.5000 
     47 CA          5.1191  -18.2611  -39.7354 C.3       5 UNK         0.1400 
     48 CB          6.6296  -18.2885  -40.0156 C.3       5 UNK        -0.1800 
     49 N           4.4537  -17.5359  -40.8155 N.am      5 UNK        -0.5000 
     50 C           3.2262  -17.0048  -40.7377 C.2       4 UNK         0.5000 
     51 O           2.5602  -16.9834  -39.7025 O.2       4 UNK        -0.5000 
     52 CA          2.6480  -16.3996  -42.0349 C.3       4 UNK         0.1400 
     53 CB          2.7592  -14.8676  -42.0087 C.3       4 UNK        -0.1800 
     54 N           3.2817  -16.8968  -43.2616 N.am      4 UNK        -0.5000 
     55 C           3.2482  -18.1642  -43.6972 C.2       3 UNK         0.5000 
     56 O           2.7055  -19.0731  -43.0689 O.2       3 UNK        -0.5000 
     57 CA          4.0062  -18.4985  -45.0008 C.3       3 UNK         0.1400 
     58 CB          3.1424  -19.3335  -45.9648 C.3       3 UNK        -0.1800 
     59 N           4.6092  -17.3464  -45.6898 N.am      3 UNK        -0.5000 
     60 C           3.9849  -16.3415  -46.3229 C.2       2 UNK         0.5000 
     61 O           2.7624  -16.2090  -46.3578 O.2       2 UNK        -0.5000 
     62 CA          4.8698  -15.2707  -46.9995 C.3       2 UNK         0.1400 
     63 CB          6.3778  -15.6099  -47.0314 C.3       2 UNK        -0.1800 
     64 N           4.3887  -14.9330  -48.3417 N.am      2 UNK        -0.5000 
     65 C           4.2642  -15.7596  -49.3926 C.2       1 UNK         0.5000 
     66 O           4.5865  -16.9487  -49.3763 O.2       1 UNK        -0.5000 
     67 C          -3.1344  -18.7117  -47.9219 C.2       11 UNK         0.5000 
     68 O          -2.5832  -19.2942  -48.8553 O.2       11 UNK        -0.5000 
     69 N          -3.8504  -19.3345  -46.9746 N.am      12 UNK        -0.5000 
     70 CA         -4.0989  -20.7747  -46.9465 C.3       12 UNK         0.1400 
     71 CB         -5.1377  -21.1010  -45.8642 C.3       12 UNK        -0.1800 
     72 C          -2.8148  -21.5923  -46.7353 C.2       12 UNK         0.5000 
     73 O          -2.6680  -22.6456  -47.3539 O.2       12 UNK        -0.5000 
     74 N          -1.9009  -21.0824  -45.8994 N.am      13 UNK        -0.5000 
     75 CA         -0.5863  -21.6691  -45.6487 C.3       13 UNK         0.1400 
     76 CB          0.1023  -20.9173  -44.5008 C.3       13 UNK        -0.1800 
     77 C           0.3008  -21.6941  -46.9076 C.2       13 UNK         0.5000 
     78 O           0.9083  -22.7257  -47.1953 O.2       13 UNK        -0.5000 
     79 N           0.3339  -20.5784  -47.6504 N.am      14 UNK        -0.5000 
     80 CA          1.0706  -20.4467  -48.9076 C.3       14 UNK         0.1400 
     81 CB          1.1528  -18.9668  -49.3101 C.3       14 UNK        -0.1800 
     82 C           0.4520  -21.2744  -50.0472 C.2       14 UNK         0.5000 
     83 O           1.1859  -21.8996  -50.8134 O.2       14 UNK        -0.5000 
     84 N          -0.8838  -21.2643  -50.1379 N.am      15 UNK        -0.5000 
     85 CA         -1.6499  -21.9564  -51.1735 C.3       15 UNK         0.1400 
     86 CB         -3.0610  -21.3593  -51.2149 C.3       15 UNK        -0.1800 
     87 C          -1.7500  -23.4794  -50.9740 C.2       15 UNK         0.5000 
     88 O          -2.1314  -24.1768  -51.9142 O.2       15 UNK        -0.5000 
     89 N          -1.4670  -23.9580  -49.7527 N.am      16 UNK        -0.5000 
     90 CA         -1.7328  -25.3122  -49.2535 C.3       16 UNK         0.1400 
     91 CB         -0.8734  -26.3634  -49.9861 C.3       16 UNK        -0.1800 
     92 C          -3.2457  -25.6160  -49.2874 C.2       16 UNK         0.5000 
     93 O          -3.6773  -26.6155  -49.8630 O.2       16 UNK        -0.5000 
     94 N          -4.0199  -24.6813  -48.7184 N.am      17 UNK        -0.5000 
     95 CA         -5.4831  -24.5865  -48.6391 C.3       17 UNK         0.1400 
     96 CB         -6.0905  -25.8203  -47.9454 C.3       17 UNK        -0.1800 
     97 C          -6.1980  -24.2870  -49.9738 C.2       17 UNK         0.5000 
     98 O          -7.3053  -23.7481  -49.9464 O.2       17 UNK        -0.5000 
     99 N          -5.5721  -24.5960  -51.1158 N.am      18 UNK        -0.5000 
    100 CA        -6.1048  -24.4200  -52.4691 C.3       18 UNK         0.1400 
    101 CB        -5.3858  -25.4063  -53.4070 C.3       18 UNK        -0.1800 
    102 C         -6.0127  -22.9604  -52.9658 C.2       18 UNK         0.5000 
    103 O         -5.5059  -22.7096  -54.0595 O.2       18 UNK        -0.5000 
    104 N         -6.5086  -22.0125  -52.1586 N.am      19 UNK        -0.5000 
    105 CA        -6.4448  -20.5634  -52.3906 C.3       19 UNK         0.1400 
    106 CB        -7.0323  -19.8362  -51.1733 C.3       19 UNK        -0.1800 
    107 C         -7.1204  -20.0876  -53.6917 C.2       19 UNK         0.5000 
    108 O         -6.7271  -19.0568  -54.2371 O.2       19 UNK        -0.5000 
    109 N         -8.0930  -20.8622  -54.1911 N.am      20 UNK        -0.5000 
    110 CA        -8.7653  -20.6426  -55.4725 C.3       20 UNK         0.1400 
    111 CB        -9.9549  -21.6084  -55.5820 C.3       20 UNK        -0.1800 
    112 C         -7.8353  -20.7933  -56.6948 C.2       20 UNK         0.5000 
    113 O         -8.1006  -20.1795  -57.7292 O.2       20 UNK        -0.5000 
    114 N         -6.7585  -21.5834  -56.5624 N.am      21 UNK        -0.5000 
    115 CA        -5.7603  -21.7979  -57.6134 C.3       21 UNK         0.1400 
    116 CB        -4.9932  -23.0980  -57.3242 C.3       21 UNK        -0.1800 
    117 C         -4.7823  -20.6162  -57.7692 C.2       21 UNK         0.5000 
    118 O         -4.1035  -20.5302  -58.7935 O.2       21 UNK        -0.5000 
    119 N         -4.7210  -19.7332  -56.7642 N.am      22 UNK        -0.5000 
    120 CA        -3.8518  -18.5455  -56.7336 C.3       22 UNK         0.1400 
    121 C         -4.3516  -17.3614  -57.6140 C.2       22 UNK         0.5000 
    122 N         -5.5569  -17.4012  -58.1707 N.am      22 UNK        -0.7600 
    123 O         -3.6260  -16.3892  -57.8044 O.2       22 UNK        -0.5000 
    124 C124       -3.5792  -18.0725  -55.2830 C.3       23 UNK        -0.0398 
    125 S125       -2.9145  -19.3975  -54.2145 S.3       23 UNK        -0.2404 
    126 C126       -1.5452  -18.5452  -53.3559 C.3       23 UNK        -0.0205 
    127 H127        5.2650  -11.1344  -51.9514 H         1 UNK         0.0600 
    128 H128        5.5513  -11.1030  -50.2081 H         1 UNK         0.0600 
    129 H129        3.8998  -11.1511  -50.8316 H         1 UNK         0.0600 
    130 H130        2.9768  -13.1755  -50.6348 H         1 UNK         0.3000 
    131 H131        4.3102  -15.5726  -51.5031 H         1 UNK         0.0600 
    132 H132        2.0064  -15.4038  -52.0045 H         1 UNK         0.0800 
    133 H133        2.1599  -16.6985  -50.8668 H         1 UNK         0.0800 
    134 H134       -0.6907  -13.3303  -50.6798 H         1 UNK         0.0800 
    135 H135        0.2717  -13.9038  -52.0093 H         1 UNK         0.0800 
    136 H136        0.0235  -16.5013  -52.5893 H         1 UNK         0.1150 
    137 H137       -4.0076  -17.9148  -52.1840 H         1 UNK         0.1150 
    138 H138       -2.8278  -14.2574  -50.3110 H         1 UNK         0.1150 
    139 H139       -5.1550  -14.8372  -50.3949 H         1 UNK         0.0800 
    140 H140       -5.6825  -16.0523  -51.5300 H         1 UNK         0.0800 
    141 H141       -4.0645  -15.3390  -48.1778 H         1 UNK         0.0800 
    142 H142       -4.8991  -16.4090  -47.0982 H         1 UNK         0.0800 
    143 H143       -2.2577  -16.8673  -48.5286 H         1 UNK         0.0600 
    144 H144       -2.9736  -16.2795  -45.8526 H         1 UNK         0.3000 
    145 H145       -0.1925  -17.6374  -44.1383 H         1 UNK         0.0600 
    146 H146       -0.0103  -15.2669  -43.4052 H         1 UNK         0.0600 
    147 H147        0.6372  -15.4660  -45.0252 H         1 UNK         0.0600 
    148 H148       -0.9490  -14.7410  -44.8005 H         1 UNK         0.0600 
    149 H149       -2.2106  -16.1440  -43.0299 H         1 UNK         0.3000 
    150 H150       -4.4743  -16.8732  -42.5151 H         1 UNK         0.0600 
    151 H151       -5.5268  -18.9786  -43.3215 H         1 UNK         0.0600 
    152 H152       -5.7749  -18.7816  -41.5945 H         1 UNK         0.0600 
    153 H153       -4.5683  -19.9226  -42.1861 H         1 UNK         0.0600 
    154 H154       -3.2442  -18.6815  -40.5518 H         1 UNK         0.3000 
    155 H155       -0.9803  -16.3525  -39.2529 H         1 UNK         0.0600 
    156 H156       -2.0683  -16.7936  -37.0676 H         1 UNK         0.0600 
    157 H157       -3.5367  -17.3439  -37.8765 H         1 UNK         0.0600 
    158 H158       -3.0338  -15.6624  -38.0012 H         1 UNK         0.0600 
    159 H159       -1.6843  -18.9394  -38.3505 H         1 UNK         0.3000 
    160 H160       -0.0618  -20.5701  -38.6421 H         1 UNK         0.0600 
    161 H161       -1.2252  -21.2254  -41.4196 H         1 UNK         0.0600 
    162 H162       -2.1293  -21.2072  -39.9131 H         1 UNK         0.0600 
    163 H163       -0.8809  -22.4136  -40.1651 H         1 UNK         0.0600 
    164 H164        1.5321  -19.9408  -40.9341 H         1 UNK         0.3000 
    165 H165        4.0879  -22.2742  -39.9656 H         1 UNK         0.0600 
    166 H166        2.7774  -21.6579  -42.6615 H         1 UNK         0.0600 
    167 H167        4.4238  -22.2403  -42.4295 H         1 UNK         0.0600 
    168 H168        3.0588  -23.2544  -41.9856 H         1 UNK         0.0600 
    169 H169        3.8554  -19.7569  -41.4568 H         1 UNK         0.3000 
    170 H170        4.9562  -17.7222  -38.7995 H         1 UNK         0.0600 
    171 H171        7.1665  -18.7975  -39.2138 H         1 UNK         0.0600 
    172 H172        6.8578  -18.8103  -40.9459 H         1 UNK         0.0600 
    173 H173        7.0362  -17.2795  -40.0870 H         1 UNK         0.0600 
    174 H174        4.9392  -17.4869  -41.6985 H         1 UNK         0.3000 
    175 H175        1.5909  -16.6648  -42.0787 H         1 UNK         0.0600 
    176 H176        2.2458  -14.4544  -41.1394 H         1 UNK         0.0600 
    177 H177        3.7988  -14.5411  -41.9627 H         1 UNK         0.0600 
    178 H178        2.3063  -14.4215  -42.8942 H         1 UNK         0.0600 
    179 H179        3.7513  -16.2143  -43.8367 H         1 UNK         0.3000 
    180 H180        4.8452  -19.1261  -44.6976 H         1 UNK         0.0600 
    181 H181        2.2090  -18.8260  -46.2086 H         1 UNK         0.0600 
    182 H182        2.8839  -20.2957  -45.5226 H         1 UNK         0.0600 
    183 H183        3.6679  -19.5372  -46.8977 H         1 UNK         0.0600 
    184 H184        5.6195  -17.3456  -45.7120 H         1 UNK         0.3000 
    185 H185        4.7520  -14.3661  -46.4014 H         1 UNK         0.0600 
    186 H186        6.9423  -14.8198  -47.5270 H         1 UNK         0.0600 
    187 H187        6.7857  -15.7049  -46.0244 H         1 UNK         0.0600 
    188 H188        6.5791  -16.5399  -47.5645 H         1 UNK         0.0600 
    189 H189        4.0603  -13.9859  -48.4615 H         1 UNK         0.3000 
    190 H190       -4.2061  -18.7997  -46.1969 H         1 UNK         0.3000 
    191 H191       -4.5168  -21.0589  -47.9147 H         1 UNK         0.0600 
    192 H192       -5.3708  -22.1665  -45.8566 H         1 UNK         0.0600 
    193 H193       -6.0711  -20.5652  -46.0373 H         1 UNK         0.0600 
    194 H194       -4.7778  -20.8387  -44.8689 H         1 UNK         0.0600 
    195 H195       -2.1321  -20.2346  -45.3875 H         1 UNK         0.3000 
    196 H196       -0.7428  -22.7015  -45.3295 H         1 UNK         0.0600 
    197 H197        1.0443  -21.3955  -44.2346 H         1 UNK         0.0600 
    198 H198       -0.5195  -20.9008  -43.6072 H         1 UNK         0.0600 
    199 H199        0.3241  -19.8847  -44.7677 H         1 UNK         0.0600 
    200 H200       -0.1604  -19.7502  -47.3273 H         1 UNK         0.3000 
    201 H201        2.0877  -20.8091  -48.7445 H         1 UNK         0.0600 
    202 H202        1.6804  -18.3761  -48.5608 H         1 UNK         0.0600 
    203 H203        0.1633  -18.5268  -49.4450 H         1 UNK         0.0600 
    204 H204        1.6935  -18.8580  -50.2501 H         1 UNK         0.0600 
    205 H205       -1.4151  -20.6698  -49.5055 H         1 UNK         0.3000 
    206 H206       -1.1718  -21.7754  -52.1383 H         1 UNK         0.0600 
    207 H207       -3.0358  -20.2753  -51.3210 H         1 UNK         0.0600 
    208 H208       -3.6049  -21.7548  -52.0704 H         1 UNK         0.0600 
    209 H209       -3.6315  -21.5948  -50.3156 H         1 UNK         0.0600 
    210 H210       -1.2088  -23.2822  -49.0448 H         1 UNK         0.3000 
    211 H211       -1.4372  -25.3173  -48.2033 H         1 UNK         0.0600 
    212 H212       -1.1478  -26.4598  -51.0367 H         1 UNK         0.0600 
    213 H213       -0.9918  -27.3462  -49.5287 H         1 UNK         0.0600 
    214 H214        0.1851  -26.1076  -49.9383 H         1 UNK         0.0600 
    215 H215       -3.5270  -23.9026  -48.2820 H         1 UNK         0.3000 
    216 H216       -5.6777  -23.7262  -47.9970 H         1 UNK         0.0600 
    217 H217       -5.6230  -25.9986  -46.9770 H         1 UNK         0.0600 
    218 H218       -7.1578  -25.6805  -47.7698 H         1 UNK         0.0600 
    219 H219       -5.9776  -26.7234  -48.5457 H         1 UNK         0.0600 
    220 H220       -4.6641  -25.0382  -51.0481 H         1 UNK         0.3000 
    221 H221       -7.1638  -24.6855  -52.4624 H         1 UNK         0.0600 
    222 H222       -5.7912  -25.3558  -54.4184 H         1 UNK         0.0600 
    223 H223       -4.3177  -25.1930  -53.4689 H         1 UNK         0.0600 
    224 H224       -5.5021  -26.4343  -53.0631 H         1 UNK         0.0600 
    225 H225       -6.9249  -22.3199  -51.2855 H         1 UNK         0.3000 
    226 H226       -5.3935  -20.2853  -52.4713 H         1 UNK         0.0600 
    227 H227       -8.0696  -20.1220  -50.9956 H         1 UNK         0.0600 
    228 H228       -6.4613  -20.0555  -50.2705 H         1 UNK         0.0600 
    229 H229       -7.0084  -18.7549  -51.3154 H         1 UNK         0.0600 
    230 H230       -8.3516  -21.6914  -53.6773 H         1 UNK         0.3000 
    231 H231       -9.1512  -19.6211  -55.4785 H         1 UNK         0.0600 
    232 H232      -10.4988  -21.4543  -56.5149 H         1 UNK         0.0600 
    233 H233      -10.6626  -21.4576  -54.7666 H         1 UNK         0.0600 
    234 H234       -9.6309  -22.6497  -55.5590 H         1 UNK         0.0600 
    235 H235       -6.5639  -22.0187  -55.6663 H         1 UNK         0.3000 
    236 H236       -6.2811  -21.9208  -58.5654 H         1 UNK         0.0600 
    237 H237       -5.6727  -23.9403  -57.1941 H         1 UNK         0.0600 
    238 H238       -4.3225  -23.3449  -58.1480 H         1 UNK         0.0600 
    239 H239       -4.3838  -23.0147  -56.4238 H         1 UNK         0.0600 
    240 H240       -5.3162  -19.8655  -55.9578 H         1 UNK         0.3000 
    241 H241       -2.8896  -18.8389  -57.1577 H         1 UNK         0.0600 
    242 H242       -6.1630  -18.1943  -58.0264 H         1 UNK         0.3800 
    243 H243       -5.8659  -16.6308  -58.7427 H         1 UNK         0.3800 
    244 H244       -4.4943  -17.6932  -54.8260 H         1 UNK         0.0800 
    245 H245       -2.8763  -17.2376  -55.2872 H         1 UNK         0.0800 
    246 H246       -0.8162  -18.2343  -54.1057 H         1 UNK         0.0800 
    247 H247       -1.0382  -19.2671  -52.7148 H         1 UNK         0.0800 
@<TRIPOS>BOND
     1    1    2 1    
     2    1  127 1    
     3    1  128 1    
     4    1  129 1    
     5    2    3 2    
     6    2    4 am   BACKBONE|DICT|INTERRES
     7    4    5 1    
     8    4  130 1    
     9    5    6 1    
    10    5   65 1    
    11    5  131 1    
    12    6    7 1    
    13    6  132 1    
    14    6  133 1    
    15    7    8 1    
    16    8    9 1    
    17    8  134 1    
    18    8  135 1    
    19    9   10 ar   
    20    9   14 ar   
    21   10   11 ar   
    22   10  136 1    
    23   11   12 ar   
    24   11  126 1    
    25   12   13 ar   
    26   12  137 1    
    27   13   14 ar   
    28   13   15 1    
    29   14  138 1    
    30   15   16 1    
    31   15  139 1    
    32   15  140 1    
    33   16   17 1    
    34   17   18 1    
    35   17  141 1    
    36   17  142 1    
    37   18   19 1    
    38   18   67 1    
    39   18  143 1    
    40   19   20 am   BACKBONE|DICT|INTERRES
    41   19  144 1    
    42   20   21 2    
    43   20   22 1    
    44   22   23 1    
    45   22   24 1    
    46   22  145 1    
    47   23  146 1    
    48   23  147 1    
    49   23  148 1    
    50   24   25 am   BACKBONE|DICT|INTERRES
    51   24  149 1    
    52   25   26 2    
    53   25   27 1    
    54   27   28 1    
    55   27   29 1    
    56   27  150 1    
    57   28  151 1    
    58   28  152 1    
    59   28  153 1    
    60   29   30 am   BACKBONE|DICT|INTERRES
    61   29  154 1    
    62   30   31 2    
    63   30   32 1    
    64   32   33 1    
    65   32   34 1    
    66   32  155 1    
    67   33  156 1    
    68   33  157 1    
    69   33  158 1    
    70   34   35 am   BACKBONE|DICT|INTERRES
    71   34  159 1    
    72   35   36 2    
    73   35   37 1    
    74   37   38 1    
    75   37   39 1    
    76   37  160 1    
    77   38  161 1    
    78   38  162 1    
    79   38  163 1    
    80   39   40 am   BACKBONE|DICT|INTERRES
    81   39  164 1    
    82   40   41 2    
    83   40   42 1    
    84   42   43 1    
    85   42   44 1    
    86   42  165 1    
    87   43  166 1    
    88   43  167 1    
    89   43  168 1    
    90   44   45 am   BACKBONE|DICT|INTERRES
    91   44  169 1    
    92   45   46 2    
    93   45   47 1    
    94   47   48 1    
    95   47   49 1    
    96   47  170 1    
    97   48  171 1    
    98   48  172 1    
    99   48  173 1    
   100   49   50 am   BACKBONE|DICT|INTERRES
   101   49  174 1    
   102   50   51 2    
   103   50   52 1    
   104   52   53 1    
   105   52   54 1    
   106   52  175 1    
   107   53  176 1    
   108   53  177 1    
   109   53  178 1    
   110   54   55 am   BACKBONE|DICT|INTERRES
   111   54  179 1    
   112   55   56 2    
   113   55   57 1    
   114   57   58 1    
   115   57   59 1    
   116   57  180 1    
   117   58  181 1    
   118   58  182 1    
   119   58  183 1    
   120   59   60 am   BACKBONE|DICT|INTERRES
   121   59  184 1    
   122   60   61 2    
   123   60   62 1    
   124   62   63 1    
   125   62   64 1    
   126   62  185 1    
   127   63  186 1    
   128   63  187 1    
   129   63  188 1    
   130   64   65 am   BACKBONE|DICT|INTERRES
   131   64  189 1    
   132   65   66 2    
   133   67   68 2    
   134   67   69 am   BACKBONE|DICT|INTERRES
   135   69   70 1    
   136   69  190 1    
   137   70   71 1    
   138   70   72 1    
   139   70  191 1    
   140   71  192 1    
   141   71  193 1    
   142   71  194 1    
   143   72   73 2    
   144   72   74 am   BACKBONE|DICT|INTERRES
   145   74   75 1    
   146   74  195 1    
   147   75   76 1    
   148   75   77 1    
   149   75  196 1    
   150   76  197 1    
   151   76  198 1    
   152   76  199 1    
   153   77   78 2    
   154   77   79 am   BACKBONE|DICT|INTERRES
   155   79   80 1    
   156   79  200 1    
   157   80   81 1    
   158   80   82 1    
   159   80  201 1    
   160   81  202 1    
   161   81  203 1    
   162   81  204 1    
   163   82   83 2    
   164   82   84 am   BACKBONE|DICT|INTERRES
   165   84   85 1    
   166   84  205 1    
   167   85   86 1    
   168   85   87 1    
   169   85  206 1    
   170   86  207 1    
   171   86  208 1    
   172   86  209 1    
   173   87   88 2    
   174   87   89 am   BACKBONE|DICT|INTERRES
   175   89   90 1    
   176   89  210 1    
   177   90   91 1    
   178   90   92 1    
   179   90  211 1    
   180   91  212 1    
   181   91  213 1    
   182   91  214 1    
   183   92   93 2    
   184   92   94 am   BACKBONE|DICT|INTERRES
   185   94   95 1    
   186   94  215 1    
   187   95   96 1    
   188   95   97 1    
   189   95  216 1    
   190   96  217 1    
   191   96  218 1    
   192   96  219 1    
   193   97   98 2    
   194   97   99 am   BACKBONE|DICT|INTERRES
   195   99  100 1    
   196   99  220 1    
   197  100  101 1    
   198  100  102 1    
   199  100  221 1    
   200  101  222 1    
   201  101  223 1    
   202  101  224 1    
   203  102  103 2    
   204  102  104 am   BACKBONE|DICT|INTERRES
   205  104  105 1    
   206  104  225 1    
   207  105  106 1    
   208  105  107 1    
   209  105  226 1    
   210  106  227 1    
   211  106  228 1    
   212  106  229 1    
   213  107  108 2    
   214  107  109 am   BACKBONE|DICT|INTERRES
   215  109  110 1    
   216  109  230 1    
   217  110  111 1    
   218  110  112 1    
   219  110  231 1    
   220  111  232 1    
   221  111  233 1    
   222  111  234 1    
   223  112  113 2    
   224  112  114 am   BACKBONE|DICT|INTERRES
   225  114  115 1    
   226  114  235 1    
   227  115  116 1    
   228  115  117 1    
   229  115  236 1    
   230  116  237 1    
   231  116  238 1    
   232  116  239 1    
   233  117  118 2    
   234  117  119 am   BACKBONE|DICT|INTERRES
   235  119  120 1    
   236  119  240 1    
   237  120  121 1    
   238  120  124 1    
   239  120  241 1    
   240  121  122 am   BACKBONE|DICT|INTERRES
   241  121  123 2    
   242  122  242 1    
   243  122  243 1    
   244  124  125 1    
   245  124  244 1    
   246  124  245 1    
   247  125  126 1    
   248  126  246 1    
   249  126  247 1    
@<TRIPOS>SUBSTRUCTURE
     1 UNK         1 GROUP             0       ****    0 ROOT    
