@<TRIPOS>MOLECULE
3R540
247   249    1
SMALL
USER_CHARGES


@<TRIPOS>ATOM
      1 CA         -4.0254  -11.9325  -49.0529 C.3       0 UNK        -0.1800 
      2 C          -2.5971  -11.6317  -49.4862 C.2       0 UNK         0.5000 
      3 O          -2.3596  -10.6343  -50.1684 O.2       0 UNK        -0.5000 
      4 N          -1.6517  -12.4954  -49.1013 N.am      1 UNK        -0.5000 
      5 CA         -0.2179  -12.3496  -49.3647 C.3       1 UNK         0.1400 
      6 C6          0.4852  -13.7293  -49.4458 C.3       23 UNK        -0.0398 
      7 S7          0.3509  -14.7462  -47.9307 S.3       23 UNK        -0.2404 
      8 C8         -0.8735  -16.0036  -48.4107 C.3       23 UNK        -0.0205 
      9 C9         -0.3365  -16.9630  -49.4618 C.ar      23 UNK        -0.0193 
     10 C10        -0.7507  -16.8513  -50.7923 C.ar      23 UNK        -0.1150 
     11 C11        -0.2783  -17.7420  -51.7596 C.ar      23 UNK        -0.0193 
     12 C12         0.6221  -18.7434  -51.3903 C.ar      23 UNK        -0.1150 
     13 C13         1.0474  -18.8630  -50.0649 C.ar      23 UNK        -0.0193 
     14 C14         0.5624  -17.9721  -49.1025 C.ar      23 UNK        -0.1150 
     15 C15         2.0376  -19.9524  -49.6862 C.3       23 UNK        -0.0205 
     16 S16         1.1996  -21.5337  -49.3623 S.3       23 UNK        -0.2404 
     17 C17         0.5417  -21.2413  -47.6891 C.3       23 UNK        -0.0398 
     18 CA          0.2010  -22.5656  -46.9633 C.3       11 UNK         0.1400 
     19 N           0.4382  -22.4820  -45.5197 N.am      11 UNK        -0.5000 
     20 C           0.4319  -23.5322  -44.6870 C.2       10 UNK         0.5000 
     21 O           0.2635  -24.6935  -45.0558 O.2       10 UNK        -0.5000 
     22 CA          0.5836  -23.2326  -43.1850 C.3       10 UNK         0.1400 
     23 CB          2.0586  -23.0274  -42.8099 C.3       10 UNK        -0.1800 
     24 N          -0.2059  -22.0736  -42.7665 N.am      10 UNK        -0.5000 
     25 C          -1.5447  -22.0202  -42.8185 C.2       9 UNK         0.5000 
     26 O          -2.2503  -22.9685  -43.1622 O.2       9 UNK        -0.5000 
     27 CA         -2.2067  -20.6741  -42.4746 C.3       9 UNK         0.1400 
     28 CB         -2.3427  -20.5102  -40.9538 C.3       9 UNK        -0.1800 
     29 N          -1.4948  -19.5250  -43.0377 N.am      9 UNK        -0.5000 
     30 C          -1.3268  -19.3000  -44.3494 C.2       8 UNK         0.5000 
     31 O          -1.7786  -20.0293  -45.2306 O.2       8 UNK        -0.5000 
     32 CA         -0.4550  -18.0949  -44.7464 C.3       8 UNK         0.1400 
     33 CB         -1.2299  -16.7768  -44.6059 C.3       8 UNK        -0.1800 
     34 N           0.7821  -18.0253  -43.9705 N.am      8 UNK        -0.5000 
     35 C           1.7352  -18.9676  -43.9728 C.2       7 UNK         0.5000 
     36 O           1.7029  -19.9731  -44.6814 O.2       7 UNK        -0.5000 
     37 CA          2.8867  -18.7843  -42.9711 C.3       7 UNK         0.1400 
     38 CB          3.9411  -17.8049  -43.5093 C.3       7 UNK        -0.1800 
     39 N           2.4017  -18.3272  -41.6686 N.am      7 UNK        -0.5000 
     40 C           1.6835  -19.0810  -40.8238 C.2       6 UNK         0.5000 
     41 O           1.3856  -20.2552  -41.0406 O.2       6 UNK        -0.5000 
     42 CA          1.1843  -18.3964  -39.5380 C.3       6 UNK         0.1400 
     43 CB          2.2784  -18.4049  -38.4601 C.3       6 UNK        -0.1800 
     44 N           0.7405  -17.0208  -39.7678 N.am      6 UNK        -0.5000 
     45 C          -0.3350  -16.6844  -40.4938 C.2       5 UNK         0.5000 
     46 O          -1.0902  -17.5030  -41.0156 O.2       5 UNK        -0.5000 
     47 CA         -0.5780  -15.1801  -40.7186 C.3       5 UNK         0.1400 
     48 CB         -1.3969  -14.5872  -39.5626 C.3       5 UNK        -0.1800 
     49 N           0.6554  -14.4057  -40.8900 N.am      5 UNK        -0.5000 
     50 C           1.5580  -14.6154  -41.8572 C.2       4 UNK         0.5000 
     51 O           1.4703  -15.5238  -42.6868 O.2       4 UNK        -0.5000 
     52 CA          2.7925  -13.6942  -41.8511 C.3       4 UNK         0.1400 
     53 CB          3.8417  -14.2297  -40.8636 C.3       4 UNK        -0.1800 
     54 N           3.4132  -13.5780  -43.1715 N.am      4 UNK        -0.5000 
     55 C           2.8324  -13.0364  -44.2496 C.2       3 UNK         0.5000 
     56 O           1.7160  -12.5108  -44.2348 O.2       3 UNK        -0.5000 
     57 CA          3.6459  -13.1200  -45.5576 C.3       3 UNK         0.1400 
     58 CB          3.6827  -14.5655  -46.0827 C.3       3 UNK        -0.1800 
     59 N           3.1145  -12.2491  -46.6073 N.am      3 UNK        -0.5000 
     60 C           3.1915  -10.9104  -46.6088 C.2       2 UNK         0.5000 
     61 O           3.7814  -10.2653  -45.7401 O.2       2 UNK        -0.5000 
     62 CA          2.5296  -10.1558  -47.7830 C.3       2 UNK         0.1400 
     63 CB          3.5973   -9.4815  -48.6604 C.3       2 UNK        -0.1800 
     64 N           1.6951  -11.0049  -48.6387 N.am      2 UNK        -0.5000 
     65 C           0.4531  -11.4077  -48.3389 C.2       1 UNK         0.5000 
     66 O          -0.1373  -11.0799  -47.3063 O.2       1 UNK        -0.5000 
     67 C          -1.2303  -23.0476  -47.2840 C.2       11 UNK         0.5000 
     68 O          -1.4019  -23.9258  -48.1302 O.2       11 UNK        -0.5000 
     69 N          -2.2230  -22.5134  -46.5565 N.am      12 UNK        -0.5000 
     70 CA         -3.6293  -22.9087  -46.6391 C.3       12 UNK         0.1400 
     71 CB         -4.4865  -21.9773  -45.7698 C.3       12 UNK        -0.1800 
     72 C          -3.8675  -24.3811  -46.2613 C.2       12 UNK         0.5000 
     73 O          -4.6691  -25.0491  -46.9135 O.2       12 UNK        -0.5000 
     74 N          -3.1542  -24.8642  -45.2354 N.am      13 UNK        -0.5000 
     75 CA         -3.1594  -26.2642  -44.8151 C.3       13 UNK         0.1400 
     76 CB         -2.5069  -26.3845  -43.4294 C.3       13 UNK        -0.1800 
     77 C          -2.4642  -27.1897  -45.8320 C.2       13 UNK         0.5000 
     78 O          -2.9490  -28.2967  -46.0699 O.2       13 UNK        -0.5000 
     79 N          -1.3467  -26.7258  -46.4092 N.am      14 UNK        -0.5000 
     80 CA         -0.5555  -27.4568  -47.3989 C.3       14 UNK         0.1400 
     81 CB          0.8090  -26.7728  -47.5768 C.3       14 UNK        -0.1800 
     82 C          -1.2661  -27.6087  -48.7558 C.2       14 UNK         0.5000 
     83 O          -1.2205  -28.6935  -49.3386 O.2       14 UNK        -0.5000 
     84 N          -1.9034  -26.5339  -49.2352 N.am      15 UNK        -0.5000 
     85 CA         -2.6101  -26.4972  -50.5115 C.3       15 UNK         0.1400 
     86 CB         -1.6226  -26.2081  -51.6608 C.3       15 UNK        -0.1800 
     87 C          -3.7591  -25.4834  -50.4461 C.2       15 UNK         0.5000 
     88 O          -4.9145  -25.8820  -50.2946 O.2       15 UNK        -0.5000 
     89 N          -3.4222  -24.1969  -50.5692 N.am      16 UNK        -0.5000 
     90 CA         -4.3284  -23.0556  -50.5587 C.3       16 UNK         0.1400 
     91 CB         -5.1341  -22.9910  -51.8682 C.3       16 UNK        -0.1800 
     92 C          -3.4855  -21.7861  -50.3775 C.2       16 UNK         0.5000 
     93 O          -2.2860  -21.8065  -50.6631 O.2       16 UNK        -0.5000 
     94 N          -4.1286  -20.7105  -49.9160 N.am      17 UNK        -0.5000 
     95 CA         -3.5221  -19.3980  -49.7344 C.3       17 UNK         0.1400 
     96 CB         -3.2681  -19.1530  -48.2397 C.3       17 UNK        -0.1800 
     97 C          -4.4775  -18.3470  -50.3097 C.2       17 UNK         0.5000 
     98 O          -5.6599  -18.3456  -49.9609 O.2       17 UNK        -0.5000 
     99 N          -3.9398  -17.4874  -51.1833 N.am      18 UNK        -0.5000 
    100 CA        -4.5970  -16.3796  -51.8876 C.3       18 UNK         0.1400 
    101 CB        -5.0010  -15.2742  -50.8898 C.3       18 UNK        -0.1800 
    102 C         -5.7584  -16.8081  -52.8151 C.2       18 UNK         0.5000 
    103 O         -6.6212  -15.9867  -53.1306 O.2       18 UNK        -0.5000 
    104 N         -5.7569  -18.0731  -53.2521 N.am      19 UNK        -0.5000 
    105 CA        -6.7759  -18.7016  -54.0873 C.3       19 UNK         0.1400 
    106 CB        -8.0665  -18.9184  -53.2701 C.3       19 UNK        -0.1800 
    107 C         -6.2387  -20.0435  -54.6079 C.2       19 UNK         0.5000 
    108 O         -5.1969  -20.5067  -54.1350 O.2       19 UNK        -0.5000 
    109 N         -6.9801  -20.6466  -55.5494 N.am      20 UNK        -0.5000 
    110 CA        -6.8070  -21.9905  -56.1154 C.3       20 UNK         0.1400 
    111 CB        -7.2774  -23.0552  -55.1018 C.3       20 UNK        -0.1800 
    112 C         -5.3855  -22.2448  -56.6551 C.2       20 UNK         0.5000 
    113 O         -5.0848  -21.8328  -57.7769 O.2       20 UNK        -0.5000 
    114 N         -4.5319  -22.8809  -55.8391 N.am      21 UNK        -0.5000 
    115 CA        -3.1206  -23.1707  -56.1127 C.3       21 UNK         0.1400 
    116 CB        -2.5315  -23.9443  -54.9219 C.3       21 UNK        -0.1800 
    117 C         -2.2662  -21.9226  -56.4181 C.2       21 UNK         0.5000 
    118 O         -1.2555  -22.0399  -57.1123 O.2       21 UNK        -0.5000 
    119 N         -2.6994  -20.7551  -55.9258 N.am      22 UNK        -0.5000 
    120 CA        -2.1286  -19.4401  -56.2565 C.3       22 UNK         0.1400 
    121 C         -2.4237  -18.9532  -57.7077 C.2       22 UNK         0.5000 
    122 N         -3.3245  -19.5742  -58.4614 N.am      22 UNK        -0.7600 
    123 O         -1.8155  -17.9885  -58.1628 O.2       22 UNK        -0.5000 
    124 C124       -2.5526  -18.3589  -55.2325 C.3       23 UNK        -0.0398 
    125 S125       -2.1008  -18.7979  -53.5220 S.3       23 UNK        -0.2404 
    126 C126       -0.7448  -17.6329  -53.2008 C.3       23 UNK        -0.0205 
    127 H127       -4.4140  -11.1142  -48.4468 H         1 UNK         0.0600 
    128 H128       -4.0870  -12.8495  -48.4662 H         1 UNK         0.0600 
    129 H129       -4.6667  -12.0459  -49.9271 H         1 UNK         0.0600 
    130 H130       -1.8959  -13.2571  -48.4862 H         1 UNK         0.3000 
    131 H131       -0.1013  -11.8765  -50.3424 H         1 UNK         0.0600 
    132 H132        0.0795  -14.2798  -50.2931 H         1 UNK         0.0800 
    133 H133        1.5448  -13.6096  -49.6761 H         1 UNK         0.0800 
    134 H134       -1.7858  -15.5174  -48.7587 H         1 UNK         0.0800 
    135 H135       -1.1514  -16.5688  -47.5219 H         1 UNK         0.0800 
    136 H136       -1.4415  -16.0690  -51.0740 H         1 UNK         0.1150 
    137 H137        0.9852  -19.4380  -52.1349 H         1 UNK         0.1150 
    138 H138        0.8881  -18.0589  -48.0756 H         1 UNK         0.1150 
    139 H139        2.7487  -20.0952  -50.5012 H         1 UNK         0.0800 
    140 H140        2.6297  -19.6535  -48.8199 H         1 UNK         0.0800 
    141 H141       -0.3130  -20.5650  -47.7396 H         1 UNK         0.0800 
    142 H142        1.3123  -20.7044  -47.1365 H         1 UNK         0.0800 
    143 H143        0.8842  -23.3369  -47.3255 H         1 UNK         0.0600 
    144 H144        0.6265  -21.5590  -45.1397 H         1 UNK         0.3000 
    145 H145        0.2147  -24.1015  -42.6362 H         1 UNK         0.0600 
    146 H146        2.1758  -22.8921  -41.7346 H         1 UNK         0.0600 
    147 H147        2.6575  -23.8928  -43.0961 H         1 UNK         0.0600 
    148 H148        2.4851  -22.1550  -43.3046 H         1 UNK         0.0600 
    149 H149        0.3081  -21.2709  -42.4179 H         1 UNK         0.3000 
    150 H150       -3.2105  -20.6814  -42.9037 H         1 UNK         0.0600 
    151 H151       -2.8765  -21.3543  -40.5154 H         1 UNK         0.0600 
    152 H152       -2.9011  -19.6080  -40.7037 H         1 UNK         0.0600 
    153 H153       -1.3692  -20.4472  -40.4670 H         1 UNK         0.0600 
    154 H154       -1.1315  -18.8487  -42.3715 H         1 UNK         0.3000 
    155 H155       -0.1805  -18.2172  -45.7960 H         1 UNK         0.0600 
    156 H156       -1.5189  -16.5867  -43.5727 H         1 UNK         0.0600 
    157 H157       -2.1422  -16.7947  -45.2032 H         1 UNK         0.0600 
    158 H158       -0.6319  -15.9306  -44.9460 H         1 UNK         0.0600 
    159 H159        0.9162  -17.2012  -43.3900 H         1 UNK         0.3000 
    160 H160        3.3676  -19.7552  -42.8342 H         1 UNK         0.0600 
    161 H161        4.7827  -17.7149  -42.8225 H         1 UNK         0.0600 
    162 H162        3.5287  -16.8088  -43.6659 H         1 UNK         0.0600 
    163 H163        4.3370  -18.1478  -44.4661 H         1 UNK         0.0600 
    164 H164        2.5422  -17.3524  -41.4498 H         1 UNK         0.3000 
    165 H165        0.3333  -18.9700  -39.1646 H         1 UNK         0.0600 
    166 H166        1.9091  -17.9933  -37.5206 H         1 UNK         0.0600 
    167 H167        2.6174  -19.4217  -38.2571 H         1 UNK         0.0600 
    168 H168        3.1494  -17.8225  -38.7631 H         1 UNK         0.0600 
    169 H169        1.3064  -16.2837  -39.3746 H         1 UNK         0.3000 
    170 H170       -1.1608  -15.0762  -41.6359 H         1 UNK         0.0600 
    171 H171       -2.3310  -15.1339  -39.4255 H         1 UNK         0.0600 
    172 H172       -0.8513  -14.6276  -38.6190 H         1 UNK         0.0600 
    173 H173       -1.6574  -13.5465  -39.7564 H         1 UNK         0.0600 
    174 H174        0.8047  -13.6507  -40.2360 H         1 UNK         0.3000 
    175 H175        2.4814  -12.6968  -41.5337 H         1 UNK         0.0600 
    176 H176        4.1923  -15.2230  -41.1477 H         1 UNK         0.0600 
    177 H177        4.7085  -13.5703  -40.8130 H         1 UNK         0.0600 
    178 H178        3.4339  -14.3018  -39.8546 H         1 UNK         0.0600 
    179 H179        4.3191  -14.0102  -43.2746 H         1 UNK         0.3000 
    180 H180        4.6692  -12.8034  -45.3445 H         1 UNK         0.0600 
    181 H181        2.6816  -14.9860  -46.1779 H         1 UNK         0.0600 
    182 H182        4.2409  -15.2126  -45.4059 H         1 UNK         0.0600 
    183 H183        4.1687  -14.6256  -47.0566 H         1 UNK         0.0600 
    184 H184        2.5719  -12.6965  -47.3296 H         1 UNK         0.3000 
    185 H185        1.9037   -9.3721  -47.3506 H         1 UNK         0.0600 
    186 H186        4.2164   -8.8020  -48.0731 H         1 UNK         0.0600 
    187 H187        4.2611  -10.2143  -49.1210 H         1 UNK         0.0600 
    188 H188        3.1405   -8.8933  -49.4566 H         1 UNK         0.0600 
    189 H189        2.1152  -11.3029  -49.5076 H         1 UNK         0.3000 
    190 H190       -2.0031  -21.7591  -45.9099 H         1 UNK         0.3000 
    191 H191       -3.9412  -22.7806  -47.6738 H         1 UNK         0.0600 
    192 H192       -4.2396  -22.0710  -44.7128 H         1 UNK         0.0600 
    193 H193       -5.5464  -22.2093  -45.8797 H         1 UNK         0.0600 
    194 H194       -4.3511  -20.9340  -46.0510 H         1 UNK         0.0600 
    195 H195       -2.5709  -24.2267  -44.7025 H         1 UNK         0.3000 
    196 H196       -4.1987  -26.5877  -44.7269 H         1 UNK         0.0600 
    197 H197       -2.5228  -27.4171  -43.0786 H         1 UNK         0.0600 
    198 H198       -3.0362  -25.7812  -42.6916 H         1 UNK         0.0600 
    199 H199       -1.4669  -26.0578  -43.4425 H         1 UNK         0.0600 
    200 H200       -0.9787  -25.8287  -46.1084 H         1 UNK         0.3000 
    201 H201       -0.3760  -28.4600  -47.0065 H         1 UNK         0.0600 
    202 H202        1.3593  -26.7400  -46.6364 H         1 UNK         0.0600 
    203 H203        0.7029  -25.7499  -47.9386 H         1 UNK         0.0600 
    204 H204        1.4261  -27.3128  -48.2958 H         1 UNK         0.0600 
    205 H205       -1.8772  -25.6625  -48.7084 H         1 UNK         0.3000 
    206 H206       -3.0682  -27.4713  -50.6970 H         1 UNK         0.0600 
    207 H207       -2.1489  -26.0869  -52.6082 H         1 UNK         0.0600 
    208 H208       -1.0432  -25.3011  -51.4839 H         1 UNK         0.0600 
    209 H209       -0.9174  -27.0297  -51.7868 H         1 UNK         0.0600 
    210 H210       -2.4449  -23.9325  -50.6277 H         1 UNK         0.3000 
    211 H211       -5.0129  -23.1549  -49.7143 H         1 UNK         0.0600 
    212 H212       -4.4800  -22.8786  -52.7322 H         1 UNK         0.0600 
    213 H213       -5.8174  -22.1409  -51.8651 H         1 UNK         0.0600 
    214 H214       -5.7366  -23.8870  -52.0154 H         1 UNK         0.0600 
    215 H215       -5.1271  -20.7437  -49.7590 H         1 UNK         0.3000 
    216 H216       -2.5679  -19.3385  -50.2637 H         1 UNK         0.0600 
    217 H217       -2.8060  -18.1810  -48.0758 H         1 UNK         0.0600 
    218 H218       -2.5990  -19.9070  -47.8283 H         1 UNK         0.0600 
    219 H219       -4.1936  -19.1754  -47.6640 H         1 UNK         0.0600 
    220 H220       -2.9741  -17.6390  -51.4434 H         1 UNK         0.3000 
    221 H221       -3.8382  -15.9581  -52.5484 H         1 UNK         0.0600 
    222 H222       -5.8009  -15.6029  -50.2258 H         1 UNK         0.0600 
    223 H223       -4.1548  -14.9725  -50.2725 H         1 UNK         0.0600 
    224 H224       -5.3532  -14.3828  -51.4101 H         1 UNK         0.0600 
    225 H225       -4.9981  -18.6934  -52.9953 H         1 UNK         0.3000 
    226 H226       -6.9805  -18.0572  -54.9444 H         1 UNK         0.0600 
    227 H227       -8.8382  -19.4091  -53.8640 H         1 UNK         0.0600 
    228 H228       -7.8815  -19.5402  -52.3930 H         1 UNK         0.0600 
    229 H229       -8.4866  -17.9740  -52.9244 H         1 UNK         0.0600 
    230 H230       -7.7905  -20.1504  -55.8926 H         1 UNK         0.3000 
    231 H231       -7.4714  -22.0507  -56.9788 H         1 UNK         0.0600 
    232 H232       -8.3398  -22.9411  -54.8866 H         1 UNK         0.0600 
    233 H233       -6.7453  -22.9859  -54.1547 H         1 UNK         0.0600 
    234 H234       -7.1356  -24.0637  -55.4925 H         1 UNK         0.0600 
    235 H235       -4.8653  -23.1271  -54.9194 H         1 UNK         0.3000 
    236 H236       -3.0853  -23.8144  -56.9937 H         1 UNK         0.0600 
    237 H237       -3.1033  -24.8486  -54.7131 H         1 UNK         0.0600 
    238 H238       -1.5047  -24.2504  -55.1263 H         1 UNK         0.0600 
    239 H239       -2.5150  -23.3375  -54.0157 H         1 UNK         0.0600 
    240 H240       -3.5234  -20.7513  -55.3341 H         1 UNK         0.3000 
    241 H241       -1.0430  -19.5365  -56.1929 H         1 UNK         0.0600 
    242 H242       -3.8438  -20.3765  -58.1178 H         1 UNK         0.3800 
    243 H243       -3.4932  -19.2428  -59.3978 H         1 UNK         0.3800 
    244 H244       -2.1071  -17.3948  -55.4834 H         1 UNK         0.0800 
    245 H245       -3.6324  -18.2088  -55.2703 H         1 UNK         0.0800 
    246 H246        0.0840  -17.8425  -53.8790 H         1 UNK         0.0800 
    247 H247       -1.0737  -16.6146  -53.4145 H         1 UNK         0.0800 
@<TRIPOS>BOND
     1    1    2 1    
     2    1  127 1    
     3    1  128 1    
     4    1  129 1    
     5    2    3 2    
     6    2    4 am   BACKBONE|DICT|INTERRES
     7    4    5 1    
     8    4  130 1    
     9    5    6 1    
    10    5   65 1    
    11    5  131 1    
    12    6    7 1    
    13    6  132 1    
    14    6  133 1    
    15    7    8 1    
    16    8    9 1    
    17    8  134 1    
    18    8  135 1    
    19    9   10 ar   
    20    9   14 ar   
    21   10   11 ar   
    22   10  136 1    
    23   11   12 ar   
    24   11  126 1    
    25   12   13 ar   
    26   12  137 1    
    27   13   14 ar   
    28   13   15 1    
    29   14  138 1    
    30   15   16 1    
    31   15  139 1    
    32   15  140 1    
    33   16   17 1    
    34   17   18 1    
    35   17  141 1    
    36   17  142 1    
    37   18   19 1    
    38   18   67 1    
    39   18  143 1    
    40   19   20 am   BACKBONE|DICT|INTERRES
    41   19  144 1    
    42   20   21 2    
    43   20   22 1    
    44   22   23 1    
    45   22   24 1    
    46   22  145 1    
    47   23  146 1    
    48   23  147 1    
    49   23  148 1    
    50   24   25 am   BACKBONE|DICT|INTERRES
    51   24  149 1    
    52   25   26 2    
    53   25   27 1    
    54   27   28 1    
    55   27   29 1    
    56   27  150 1    
    57   28  151 1    
    58   28  152 1    
    59   28  153 1    
    60   29   30 am   BACKBONE|DICT|INTERRES
    61   29  154 1    
    62   30   31 2    
    63   30   32 1    
    64   32   33 1    
    65   32   34 1    
    66   32  155 1    
    67   33  156 1    
    68   33  157 1    
    69   33  158 1    
    70   34   35 am   BACKBONE|DICT|INTERRES
    71   34  159 1    
    72   35   36 2    
    73   35   37 1    
    74   37   38 1    
    75   37   39 1    
    76   37  160 1    
    77   38  161 1    
    78   38  162 1    
    79   38  163 1    
    80   39   40 am   BACKBONE|DICT|INTERRES
    81   39  164 1    
    82   40   41 2    
    83   40   42 1    
    84   42   43 1    
    85   42   44 1    
    86   42  165 1    
    87   43  166 1    
    88   43  167 1    
    89   43  168 1    
    90   44   45 am   BACKBONE|DICT|INTERRES
    91   44  169 1    
    92   45   46 2    
    93   45   47 1    
    94   47   48 1    
    95   47   49 1    
    96   47  170 1    
    97   48  171 1    
    98   48  172 1    
    99   48  173 1    
   100   49   50 am   BACKBONE|DICT|INTERRES
   101   49  174 1    
   102   50   51 2    
   103   50   52 1    
   104   52   53 1    
   105   52   54 1    
   106   52  175 1    
   107   53  176 1    
   108   53  177 1    
   109   53  178 1    
   110   54   55 am   BACKBONE|DICT|INTERRES
   111   54  179 1    
   112   55   56 2    
   113   55   57 1    
   114   57   58 1    
   115   57   59 1    
   116   57  180 1    
   117   58  181 1    
   118   58  182 1    
   119   58  183 1    
   120   59   60 am   BACKBONE|DICT|INTERRES
   121   59  184 1    
   122   60   61 2    
   123   60   62 1    
   124   62   63 1    
   125   62   64 1    
   126   62  185 1    
   127   63  186 1    
   128   63  187 1    
   129   63  188 1    
   130   64   65 am   BACKBONE|DICT|INTERRES
   131   64  189 1    
   132   65   66 2    
   133   67   68 2    
   134   67   69 am   BACKBONE|DICT|INTERRES
   135   69   70 1    
   136   69  190 1    
   137   70   71 1    
   138   70   72 1    
   139   70  191 1    
   140   71  192 1    
   141   71  193 1    
   142   71  194 1    
   143   72   73 2    
   144   72   74 am   BACKBONE|DICT|INTERRES
   145   74   75 1    
   146   74  195 1    
   147   75   76 1    
   148   75   77 1    
   149   75  196 1    
   150   76  197 1    
   151   76  198 1    
   152   76  199 1    
   153   77   78 2    
   154   77   79 am   BACKBONE|DICT|INTERRES
   155   79   80 1    
   156   79  200 1    
   157   80   81 1    
   158   80   82 1    
   159   80  201 1    
   160   81  202 1    
   161   81  203 1    
   162   81  204 1    
   163   82   83 2    
   164   82   84 am   BACKBONE|DICT|INTERRES
   165   84   85 1    
   166   84  205 1    
   167   85   86 1    
   168   85   87 1    
   169   85  206 1    
   170   86  207 1    
   171   86  208 1    
   172   86  209 1    
   173   87   88 2    
   174   87   89 am   BACKBONE|DICT|INTERRES
   175   89   90 1    
   176   89  210 1    
   177   90   91 1    
   178   90   92 1    
   179   90  211 1    
   180   91  212 1    
   181   91  213 1    
   182   91  214 1    
   183   92   93 2    
   184   92   94 am   BACKBONE|DICT|INTERRES
   185   94   95 1    
   186   94  215 1    
   187   95   96 1    
   188   95   97 1    
   189   95  216 1    
   190   96  217 1    
   191   96  218 1    
   192   96  219 1    
   193   97   98 2    
   194   97   99 am   BACKBONE|DICT|INTERRES
   195   99  100 1    
   196   99  220 1    
   197  100  101 1    
   198  100  102 1    
   199  100  221 1    
   200  101  222 1    
   201  101  223 1    
   202  101  224 1    
   203  102  103 2    
   204  102  104 am   BACKBONE|DICT|INTERRES
   205  104  105 1    
   206  104  225 1    
   207  105  106 1    
   208  105  107 1    
   209  105  226 1    
   210  106  227 1    
   211  106  228 1    
   212  106  229 1    
   213  107  108 2    
   214  107  109 am   BACKBONE|DICT|INTERRES
   215  109  110 1    
   216  109  230 1    
   217  110  111 1    
   218  110  112 1    
   219  110  231 1    
   220  111  232 1    
   221  111  233 1    
   222  111  234 1    
   223  112  113 2    
   224  112  114 am   BACKBONE|DICT|INTERRES
   225  114  115 1    
   226  114  235 1    
   227  115  116 1    
   228  115  117 1    
   229  115  236 1    
   230  116  237 1    
   231  116  238 1    
   232  116  239 1    
   233  117  118 2    
   234  117  119 am   BACKBONE|DICT|INTERRES
   235  119  120 1    
   236  119  240 1    
   237  120  121 1    
   238  120  124 1    
   239  120  241 1    
   240  121  122 am   BACKBONE|DICT|INTERRES
   241  121  123 2    
   242  122  242 1    
   243  122  243 1    
   244  124  125 1    
   245  124  244 1    
   246  124  245 1    
   247  125  126 1    
   248  126  246 1    
   249  126  247 1    
@<TRIPOS>SUBSTRUCTURE
     1 UNK         1 GROUP             0       ****    0 ROOT    
