@<TRIPOS>MOLECULE
3R540
247   249    1
SMALL
USER_CHARGES


@<TRIPOS>ATOM
      1 CA         -3.7534  -14.5851  -47.1675 C.3       0 UNK        -0.1800 
      2 C          -2.6729  -15.5969  -47.5476 C.2       0 UNK         0.5000 
      3 O          -2.9673  -16.7867  -47.5936 O.2       0 UNK        -0.5000 
      4 N          -1.4349  -15.1775  -47.8450 N.am      1 UNK        -0.5000 
      5 CA         -0.9410  -13.8004  -47.7643 C.3       1 UNK         0.1400 
      6 C6          0.2933  -13.5580  -48.6716 C.3       23 UNK        -0.0398 
      7 S7          1.7750  -14.5589  -48.2849 S.3       23 UNK        -0.2404 
      8 C8          2.0986  -15.4217  -49.8549 C.3       23 UNK        -0.0205 
      9 C9          1.3092  -16.7164  -49.9647 C.ar      23 UNK        -0.0193 
     10 C10         0.0210  -16.7164  -50.5054 C.ar      23 UNK        -0.1150 
     11 C11        -0.7039  -17.9062  -50.6138 C.ar      23 UNK        -0.0193 
     12 C12        -0.1254  -19.1052  -50.1866 C.ar      23 UNK        -0.1150 
     13 C13         1.1575  -19.1176  -49.6308 C.ar      23 UNK        -0.0193 
     14 C14         1.8724  -17.9202  -49.5303 C.ar      23 UNK        -0.1150 
     15 C15         1.7650  -20.4206  -49.1303 C.3       23 UNK        -0.0205 
     16 S16         1.8739  -20.4423  -47.3117 S.3       23 UNK        -0.2404 
     17 C17         1.9255  -22.2324  -46.9551 C.3       23 UNK        -0.0398 
     18 CA          0.6014  -22.8249  -46.4076 C.3       11 UNK         0.1400 
     19 N           0.2193  -22.2951  -45.0941 N.am      11 UNK        -0.5000 
     20 C          -0.7415  -22.8356  -44.3278 C.2       10 UNK         0.5000 
     21 O          -1.3601  -23.8557  -44.6328 O.2       10 UNK        -0.5000 
     22 CA         -1.1132  -22.0977  -43.0298 C.3       10 UNK         0.1400 
     23 CB         -0.1586  -22.4899  -41.8942 C.3       10 UNK        -0.1800 
     24 N          -1.1386  -20.6421  -43.1820 N.am      10 UNK        -0.5000 
     25 C          -1.9749  -19.9765  -43.9931 C.2       9 UNK         0.5000 
     26 O          -2.8126  -20.5329  -44.7031 O.2       9 UNK        -0.5000 
     27 CA         -1.8431  -18.4441  -44.0316 C.3       9 UNK         0.1400 
     28 CB         -2.6568  -17.7973  -42.9008 C.3       9 UNK        -0.1800 
     29 N          -0.4429  -18.0407  -43.9152 N.am      9 UNK        -0.5000 
     30 C           0.3738  -17.8586  -44.9623 C.2       8 UNK         0.5000 
     31 O          -0.0061  -17.8845  -46.1313 O.2       8 UNK        -0.5000 
     32 CA          1.8714  -17.6411  -44.6615 C.3       8 UNK         0.1400 
     33 CB          2.2283  -16.1503  -44.6917 C.3       8 UNK        -0.1800 
     34 N           2.2955  -18.1904  -43.3744 N.am      8 UNK        -0.5000 
     35 C           2.3922  -19.4960  -43.0860 C.2       7 UNK         0.5000 
     36 O           2.1324  -20.3984  -43.8808 O.2       7 UNK        -0.5000 
     37 CA          2.8015  -19.8524  -41.6431 C.3       7 UNK         0.1400 
     38 CB          4.3291  -19.9673  -41.5344 C.3       7 UNK        -0.1800 
     39 N           2.3227  -18.8958  -40.6431 N.am      7 UNK        -0.5000 
     40 C           1.0442  -18.5430  -40.4410 C.2       6 UNK         0.5000 
     41 O           0.0985  -19.0219  -41.0676 O.2       6 UNK        -0.5000 
     42 CA          0.7881  -17.4305  -39.4053 C.3       6 UNK         0.1400 
     43 CB          0.3929  -18.0392  -38.0521 C.3       6 UNK        -0.1800 
     44 N           1.9410  -16.5416  -39.2190 N.am      6 UNK        -0.5000 
     45 C           2.4187  -15.7120  -40.1566 C.2       5 UNK         0.5000 
     46 O           1.9189  -15.5853  -41.2763 O.2       5 UNK        -0.5000 
     47 CA          3.7190  -14.9696  -39.8096 C.3       5 UNK         0.1400 
     48 CB          4.9322  -15.7715  -40.3067 C.3       5 UNK        -0.1800 
     49 N           3.7580  -13.6409  -40.4122 N.am      5 UNK        -0.5000 
     50 C           3.0840  -12.5741  -39.9735 C.2       4 UNK         0.5000 
     51 O           2.3504  -12.5931  -38.9839 O.2       4 UNK        -0.5000 
     52 CA          3.2718  -11.2554  -40.7500 C.3       4 UNK         0.1400 
     53 CB          4.6527  -10.6346  -40.4640 C.3       4 UNK        -0.1800 
     54 N           3.0165  -11.3368  -42.1940 N.am      4 UNK        -0.5000 
     55 C           3.6632  -12.0212  -43.1476 C.2       3 UNK         0.5000 
     56 O           4.6184  -12.7688  -42.9282 O.2       3 UNK        -0.5000 
     57 CA          3.1455  -11.8235  -44.5902 C.3       3 UNK         0.1400 
     58 CB          3.8553  -12.7276  -45.6130 C.3       3 UNK        -0.1800 
     59 N           1.6977  -12.0206  -44.7082 N.am      3 UNK        -0.5000 
     60 C           0.7551  -11.1283  -44.3784 C.2       2 UNK         0.5000 
     61 O           1.0188  -10.0349  -43.8743 O.2       2 UNK        -0.5000 
     62 CA         -0.7117  -11.5197  -44.6608 C.3       2 UNK         0.1400 
     63 CB         -1.6796  -10.3309  -44.5181 C.3       2 UNK        -0.1800 
     64 N          -0.8796  -12.1011  -45.9955 N.am      2 UNK        -0.5000 
     65 C          -0.6855  -13.3896  -46.2983 C.2       1 UNK         0.5000 
     66 O          -0.3128  -14.2236  -45.4718 O.2       1 UNK        -0.5000 
     67 C          -0.5532  -22.7288  -47.4265 C.2       11 UNK         0.5000 
     68 O          -0.7563  -23.6676  -48.1934 O.2       11 UNK        -0.5000 
     69 N          -1.3177  -21.6274  -47.3862 N.am      12 UNK        -0.5000 
     70 CA         -2.4976  -21.4125  -48.2208 C.3       12 UNK         0.1400 
     71 CB         -2.9643  -19.9570  -48.1033 C.3       12 UNK        -0.1800 
     72 C          -3.6391  -22.3757  -47.8673 C.2       12 UNK         0.5000 
     73 O          -4.2843  -22.8988  -48.7740 O.2       12 UNK        -0.5000 
     74 N          -3.8462  -22.6246  -46.5678 N.am      13 UNK        -0.5000 
     75 CA         -4.8089  -23.6047  -46.0665 C.3       13 UNK         0.1400 
     76 CB         -4.9228  -23.4822  -44.5394 C.3       13 UNK        -0.1800 
     77 C          -4.4510  -25.0438  -46.4852 C.2       13 UNK         0.5000 
     78 O          -5.3328  -25.7873  -46.9165 O.2       13 UNK        -0.5000 
     79 N          -3.1622  -25.3963  -46.3814 N.am      14 UNK        -0.5000 
     80 CA         -2.6232  -26.7012  -46.7633 C.3       14 UNK         0.1400 
     81 CB         -1.1931  -26.8389  -46.2188 C.3       14 UNK        -0.1800 
     82 C          -2.6509  -26.9493  -48.2833 C.2       14 UNK         0.5000 
     83 O          -3.0444  -28.0341  -48.7132 O.2       14 UNK        -0.5000 
     84 N          -2.2331  -25.9471  -49.0679 N.am      15 UNK        -0.5000 
     85 CA         -2.0905  -26.0319  -50.5238 C.3       15 UNK         0.1400 
     86 CB         -0.9252  -25.1298  -50.9632 C.3       15 UNK        -0.1800 
     87 C          -3.3739  -25.6812  -51.3014 C.2       15 UNK         0.5000 
     88 O          -3.3200  -25.6295  -52.5301 O.2       15 UNK        -0.5000 
     89 N          -4.4871  -25.4220  -50.5994 N.am      16 UNK        -0.5000 
     90 CA         -5.8044  -25.0572  -51.1364 C.3       16 UNK         0.1400 
     91 CB         -6.4278  -26.2405  -51.9058 C.3       16 UNK        -0.1800 
     92 C          -5.7470  -23.7610  -51.9701 C.2       16 UNK         0.5000 
     93 O          -6.0276  -23.7685  -53.1708 O.2       16 UNK        -0.5000 
     94 N          -5.3202  -22.6777  -51.3074 N.am      17 UNK        -0.5000 
     95 CA         -5.0873  -21.3361  -51.8496 C.3       17 UNK         0.1400 
     96 CB         -6.4152  -20.6871  -52.2949 C.3       17 UNK        -0.1800 
     97 C          -3.9990  -21.3332  -52.9415 C.2       17 UNK         0.5000 
     98 O          -4.1408  -20.6428  -53.9507 O.2       17 UNK        -0.5000 
     99 N          -2.9462  -22.1355  -52.7142 N.am      18 UNK        -0.5000 
    100 CA        -1.8195  -22.3965  -53.6169 C.3       18 UNK         0.1400 
    101 CB        -0.9517  -21.1313  -53.7811 C.3       18 UNK        -0.1800 
    102 C         -2.2906  -22.9917  -54.9595 C.2       18 UNK         0.5000 
    103 O         -1.9746  -22.4549  -56.0205 O.2       18 UNK        -0.5000 
    104 N         -3.0901  -24.0661  -54.8802 N.am      19 UNK        -0.5000 
    105 CA        -3.8013  -24.7178  -55.9864 C.3       19 UNK         0.1400 
    106 CB        -2.8123  -25.4457  -56.9201 C.3       19 UNK        -0.1800 
    107 C         -4.7353  -23.7373  -56.7290 C.2       19 UNK         0.5000 
    108 O         -4.7440  -23.6895  -57.9602 O.2       19 UNK        -0.5000 
    109 N         -5.4735  -22.9451  -55.9394 N.am      20 UNK        -0.5000 
    110 CA        -6.3861  -21.8654  -56.3256 C.3       20 UNK         0.1400 
    111 CB        -7.5516  -22.4065  -57.1790 C.3       20 UNK        -0.1800 
    112 C         -5.7207  -20.6280  -56.9700 C.2       20 UNK         0.5000 
    113 O         -6.4448  -19.7159  -57.3744 O.2       20 UNK        -0.5000 
    114 N         -4.3808  -20.5657  -57.0314 N.am      21 UNK        -0.5000 
    115 CA        -3.6312  -19.4400  -57.6020 C.3       21 UNK         0.1400 
    116 CB        -2.1452  -19.8041  -57.7234 C.3       21 UNK        -0.1800 
    117 C         -3.7973  -18.1244  -56.8174 C.2       21 UNK         0.5000 
    118 O         -3.7400  -17.0531  -57.4233 O.2       21 UNK        -0.5000 
    119 N         -4.0304  -18.2233  -55.5027 N.am      22 UNK        -0.5000 
    120 CA        -4.3824  -17.0906  -54.6322 C.3       22 UNK         0.1400 
    121 C         -5.8804  -16.6658  -54.7253 C.2       22 UNK         0.5000 
    122 N         -6.7309  -17.3313  -55.4997 N.am      22 UNK        -0.7600 
    123 O         -6.2823  -15.6972  -54.0864 O.2       22 UNK        -0.5000 
    124 C124       -3.9654  -17.3361  -53.1592 C.3       23 UNK        -0.0398 
    125 S125       -2.1740  -17.5983  -52.9457 S.3       23 UNK        -0.2404 
    126 C126       -2.1263  -17.8808  -51.1505 C.3       23 UNK        -0.0205 
    127 H127       -3.4899  -14.0502  -46.2556 H         1 UNK         0.0600 
    128 H128       -4.7013  -15.0927  -46.9870 H         1 UNK         0.0600 
    129 H129       -3.9153  -13.8652  -47.9694 H         1 UNK         0.0600 
    130 H130       -0.7240  -15.8747  -48.0238 H         1 UNK         0.3000 
    131 H131       -1.7250  -13.1458  -48.1485 H         1 UNK         0.0600 
    132 H132        0.0059  -13.7250  -49.7096 H         1 UNK         0.0800 
    133 H133        0.5866  -12.5078  -48.6271 H         1 UNK         0.0800 
    134 H134        3.1659  -15.6403  -49.9131 H         1 UNK         0.0800 
    135 H135        1.8831  -14.7671  -50.7005 H         1 UNK         0.0800 
    136 H136       -0.4252  -15.7903  -50.8383 H         1 UNK         0.1150 
    137 H137       -0.6833  -20.0264  -50.2661 H         1 UNK         0.1150 
    138 H138        2.8633  -17.9257  -49.0984 H         1 UNK         0.1150 
    139 H139        1.1694  -21.2672  -49.4748 H         1 UNK         0.0800 
    140 H140        2.7617  -20.5496  -49.5541 H         1 UNK         0.0800 
    141 H141        2.2391  -22.7734  -47.8495 H         1 UNK         0.0800 
    142 H142        2.7190  -22.3971  -46.2251 H         1 UNK         0.0800 
    143 H143        0.7854  -23.8915  -46.2613 H         1 UNK         0.0600 
    144 H144        0.7256  -21.4777  -44.7642 H         1 UNK         0.3000 
    145 H145       -2.1202  -22.4102  -42.7459 H         1 UNK         0.0600 
    146 H146       -0.3661  -21.9283  -40.9831 H         1 UNK         0.0600 
    147 H147        0.8807  -22.3202  -42.1710 H         1 UNK         0.0600 
    148 H148       -0.2593  -23.5493  -41.6554 H         1 UNK         0.0600 
    149 H149       -0.5219  -20.1098  -42.5774 H         1 UNK         0.3000 
    150 H150       -2.2546  -18.0949  -44.9816 H         1 UNK         0.0600 
    151 H151       -3.7115  -18.0633  -42.9808 H         1 UNK         0.0600 
    152 H152       -2.5913  -16.7099  -42.9436 H         1 UNK         0.0600 
    153 H153       -2.3120  -18.1157  -41.9166 H         1 UNK         0.0600 
    154 H154       -0.0504  -18.0328  -42.9830 H         1 UNK         0.3000 
    155 H155        2.4422  -18.1409  -45.4463 H         1 UNK         0.0600 
    156 H156        2.0073  -15.7242  -45.6686 H         1 UNK         0.0600 
    157 H157        3.2889  -15.9920  -44.4969 H         1 UNK         0.0600 
    158 H158        1.6600  -15.5834  -43.9537 H         1 UNK         0.0600 
    159 H159        2.4830  -17.5170  -42.6440 H         1 UNK         0.3000 
    160 H160        2.3707  -20.8231  -41.3990 H         1 UNK         0.0600 
    161 H161        4.8199  -19.0130  -41.7304 H         1 UNK         0.0600 
    162 H162        4.7180  -20.6903  -42.2529 H         1 UNK         0.0600 
    163 H163        4.6308  -20.3034  -40.5423 H         1 UNK         0.0600 
    164 H164        3.0276  -18.4515  -40.0747 H         1 UNK         0.3000 
    165 H165       -0.0486  -16.8307  -39.7698 H         1 UNK         0.0600 
    166 H166        0.1347  -17.2636  -37.3308 H         1 UNK         0.0600 
    167 H167       -0.4783  -18.6876  -38.1555 H         1 UNK         0.0600 
    168 H168        1.1997  -18.6386  -37.6282 H         1 UNK         0.0600 
    169 H169        2.4087  -16.5949  -38.3252 H         1 UNK         0.3000 
    170 H170        3.7910  -14.8629  -38.7251 H         1 UNK         0.0600 
    171 H171        4.9110  -15.9026  -41.3897 H         1 UNK         0.0600 
    172 H172        5.8664  -15.2719  -40.0493 H         1 UNK         0.0600 
    173 H173        4.9610  -16.7639  -39.8552 H         1 UNK         0.0600 
    174 H174        4.2732  -13.5395  -41.2833 H         1 UNK         0.3000 
    175 H175        2.5226  -10.5620  -40.3644 H         1 UNK         0.0600 
    176 H176        5.4671  -11.2607  -40.8293 H         1 UNK         0.0600 
    177 H177        4.7480   -9.6548  -40.9321 H         1 UNK         0.0600 
    178 H178        4.8032  -10.4984  -39.3924 H         1 UNK         0.0600 
    179 H179        2.2405  -10.7677  -42.5192 H         1 UNK         0.3000 
    180 H180        3.3756  -10.7912  -44.8620 H         1 UNK         0.0600 
    181 H181        4.9341  -12.5685  -45.5971 H         1 UNK         0.0600 
    182 H182        3.5144  -12.5175  -46.6268 H         1 UNK         0.0600 
    183 H183        3.6756  -13.7827  -45.4118 H         1 UNK         0.0600 
    184 H184        1.3894  -12.9196  -45.0587 H         1 UNK         0.3000 
    185 H185       -0.9913  -12.2599  -43.9080 H         1 UNK         0.0600 
    186 H186       -1.4436   -9.5324  -45.2226 H         1 UNK         0.0600 
    187 H187       -2.7106  -10.6391  -44.6930 H         1 UNK         0.0600 
    188 H188       -1.6373   -9.9076  -43.5137 H         1 UNK         0.0600 
    189 H189       -1.1498  -11.4564  -46.7248 H         1 UNK         0.3000 
    190 H190       -1.0945  -20.9055  -46.7158 H         1 UNK         0.3000 
    191 H191       -2.2120  -21.5976  -49.2581 H         1 UNK         0.0600 
    192 H192       -2.1461  -19.2616  -48.2853 H         1 UNK         0.0600 
    193 H193       -3.3651  -19.7325  -47.1154 H         1 UNK         0.0600 
    194 H194       -3.7497  -19.7377  -48.8269 H         1 UNK         0.0600 
    195 H195       -3.3080  -22.1072  -45.8800 H         1 UNK         0.3000 
    196 H196       -5.7830  -23.3652  -46.4981 H         1 UNK         0.0600 
    197 H197       -5.2187  -22.4747  -44.2462 H         1 UNK         0.0600 
    198 H198       -3.9800  -23.7102  -44.0426 H         1 UNK         0.0600 
    199 H199       -5.6737  -24.1699  -44.1487 H         1 UNK         0.0600 
    200 H200       -2.5086  -24.7364  -45.9696 H         1 UNK         0.3000 
    201 H201       -3.2385  -27.4696  -46.2904 H         1 UNK         0.0600 
    202 H202       -1.1747  -26.7452  -45.1328 H         1 UNK         0.0600 
    203 H203       -0.5304  -26.0768  -46.6300 H         1 UNK         0.0600 
    204 H204       -0.7706  -27.8128  -46.4691 H         1 UNK         0.0600 
    205 H205       -1.8848  -25.0937  -48.6365 H         1 UNK         0.3000 
    206 H206       -1.8296  -27.0572  -50.7940 H         1 UNK         0.0600 
    207 H207       -0.0152  -25.3633  -50.4102 H         1 UNK         0.0600 
    208 H208       -1.1511  -24.0749  -50.8047 H         1 UNK         0.0600 
    209 H209       -0.7001  -25.2664  -52.0214 H         1 UNK         0.0600 
    210 H210       -4.4128  -25.4345  -49.5912 H         1 UNK         0.3000 
    211 H211       -6.4436  -24.8490  -50.2771 H         1 UNK         0.0600 
    212 H212       -5.8542  -26.4980  -52.7967 H         1 UNK         0.0600 
    213 H213       -7.4413  -26.0015  -52.2298 H         1 UNK         0.0600 
    214 H214       -6.4880  -27.1294  -51.2780 H         1 UNK         0.0600 
    215 H215       -5.0545  -22.8007  -50.3292 H         1 UNK         0.3000 
    216 H216       -4.6892  -20.7364  -51.0302 H         1 UNK         0.0600 
    217 H217       -6.2658  -19.6694  -52.6538 H         1 UNK         0.0600 
    218 H218       -7.1194  -20.6345  -51.4649 H         1 UNK         0.0600 
    219 H219       -6.8935  -21.2461  -53.0975 H         1 UNK         0.0600 
    220 H220       -2.9652  -22.6879  -51.8704 H         1 UNK         0.3000 
    221 H221       -1.2011  -23.1581  -53.1429 H         1 UNK         0.0600 
    222 H222       -1.4926  -20.3295  -54.2841 H         1 UNK         0.0600 
    223 H223       -0.6188  -20.7521  -52.8151 H         1 UNK         0.0600 
    224 H224       -0.0605  -21.3435  -54.3725 H         1 UNK         0.0600 
    225 H225       -3.2739  -24.4683  -53.9628 H         1 UNK         0.3000 
    226 H226       -4.4458  -25.4722  -55.5325 H         1 UNK         0.0600 
    227 H227       -2.1833  -26.1393  -56.3622 H         1 UNK         0.0600 
    228 H228       -3.3443  -26.0255  -57.6751 H         1 UNK         0.0600 
    229 H229       -2.1591  -24.7477  -57.4446 H         1 UNK         0.0600 
    230 H230       -5.4107  -23.1032  -54.9372 H         1 UNK         0.3000 
    231 H231       -6.8149  -21.5054  -55.3911 H         1 UNK         0.0600 
    232 H232       -8.3187  -21.6448  -57.3226 H         1 UNK         0.0600 
    233 H233       -8.0308  -23.2586  -56.6968 H         1 UNK         0.0600 
    234 H234       -7.2194  -22.7218  -58.1682 H         1 UNK         0.0600 
    235 H235       -3.8343  -21.3219  -56.6375 H         1 UNK         0.3000 
    236 H236       -4.0167  -19.2704  -58.6094 H         1 UNK         0.0600 
    237 H237       -1.6820  -19.9264  -56.7441 H         1 UNK         0.0600 
    238 H238       -2.0070  -20.7301  -58.2817 H         1 UNK         0.0600 
    239 H239       -1.5948  -19.0219  -58.2475 H         1 UNK         0.0600 
    240 H240       -4.0529  -19.1441  -55.0688 H         1 UNK         0.3000 
    241 H241       -3.8186  -16.2214  -54.9758 H         1 UNK         0.0600 
    242 H242       -7.6909  -17.0289  -55.5448 H         1 UNK         0.3800 
    243 H243       -6.4300  -18.1135  -56.0687 H         1 UNK         0.3800 
    244 H244       -4.4953  -18.1955  -52.7511 H         1 UNK         0.0800 
    245 H245       -4.2442  -16.4826  -52.5387 H         1 UNK         0.0800 
    246 H246       -2.6386  -18.8171  -50.9267 H         1 UNK         0.0800 
    247 H247       -2.6819  -17.0940  -50.6378 H         1 UNK         0.0800 
@<TRIPOS>BOND
     1    1    2 1    
     2    1  127 1    
     3    1  128 1    
     4    1  129 1    
     5    2    3 2    
     6    2    4 am   BACKBONE|DICT|INTERRES
     7    4    5 1    
     8    4  130 1    
     9    5    6 1    
    10    5   65 1    
    11    5  131 1    
    12    6    7 1    
    13    6  132 1    
    14    6  133 1    
    15    7    8 1    
    16    8    9 1    
    17    8  134 1    
    18    8  135 1    
    19    9   10 ar   
    20    9   14 ar   
    21   10   11 ar   
    22   10  136 1    
    23   11   12 ar   
    24   11  126 1    
    25   12   13 ar   
    26   12  137 1    
    27   13   14 ar   
    28   13   15 1    
    29   14  138 1    
    30   15   16 1    
    31   15  139 1    
    32   15  140 1    
    33   16   17 1    
    34   17   18 1    
    35   17  141 1    
    36   17  142 1    
    37   18   19 1    
    38   18   67 1    
    39   18  143 1    
    40   19   20 am   BACKBONE|DICT|INTERRES
    41   19  144 1    
    42   20   21 2    
    43   20   22 1    
    44   22   23 1    
    45   22   24 1    
    46   22  145 1    
    47   23  146 1    
    48   23  147 1    
    49   23  148 1    
    50   24   25 am   BACKBONE|DICT|INTERRES
    51   24  149 1    
    52   25   26 2    
    53   25   27 1    
    54   27   28 1    
    55   27   29 1    
    56   27  150 1    
    57   28  151 1    
    58   28  152 1    
    59   28  153 1    
    60   29   30 am   BACKBONE|DICT|INTERRES
    61   29  154 1    
    62   30   31 2    
    63   30   32 1    
    64   32   33 1    
    65   32   34 1    
    66   32  155 1    
    67   33  156 1    
    68   33  157 1    
    69   33  158 1    
    70   34   35 am   BACKBONE|DICT|INTERRES
    71   34  159 1    
    72   35   36 2    
    73   35   37 1    
    74   37   38 1    
    75   37   39 1    
    76   37  160 1    
    77   38  161 1    
    78   38  162 1    
    79   38  163 1    
    80   39   40 am   BACKBONE|DICT|INTERRES
    81   39  164 1    
    82   40   41 2    
    83   40   42 1    
    84   42   43 1    
    85   42   44 1    
    86   42  165 1    
    87   43  166 1    
    88   43  167 1    
    89   43  168 1    
    90   44   45 am   BACKBONE|DICT|INTERRES
    91   44  169 1    
    92   45   46 2    
    93   45   47 1    
    94   47   48 1    
    95   47   49 1    
    96   47  170 1    
    97   48  171 1    
    98   48  172 1    
    99   48  173 1    
   100   49   50 am   BACKBONE|DICT|INTERRES
   101   49  174 1    
   102   50   51 2    
   103   50   52 1    
   104   52   53 1    
   105   52   54 1    
   106   52  175 1    
   107   53  176 1    
   108   53  177 1    
   109   53  178 1    
   110   54   55 am   BACKBONE|DICT|INTERRES
   111   54  179 1    
   112   55   56 2    
   113   55   57 1    
   114   57   58 1    
   115   57   59 1    
   116   57  180 1    
   117   58  181 1    
   118   58  182 1    
   119   58  183 1    
   120   59   60 am   BACKBONE|DICT|INTERRES
   121   59  184 1    
   122   60   61 2    
   123   60   62 1    
   124   62   63 1    
   125   62   64 1    
   126   62  185 1    
   127   63  186 1    
   128   63  187 1    
   129   63  188 1    
   130   64   65 am   BACKBONE|DICT|INTERRES
   131   64  189 1    
   132   65   66 2    
   133   67   68 2    
   134   67   69 am   BACKBONE|DICT|INTERRES
   135   69   70 1    
   136   69  190 1    
   137   70   71 1    
   138   70   72 1    
   139   70  191 1    
   140   71  192 1    
   141   71  193 1    
   142   71  194 1    
   143   72   73 2    
   144   72   74 am   BACKBONE|DICT|INTERRES
   145   74   75 1    
   146   74  195 1    
   147   75   76 1    
   148   75   77 1    
   149   75  196 1    
   150   76  197 1    
   151   76  198 1    
   152   76  199 1    
   153   77   78 2    
   154   77   79 am   BACKBONE|DICT|INTERRES
   155   79   80 1    
   156   79  200 1    
   157   80   81 1    
   158   80   82 1    
   159   80  201 1    
   160   81  202 1    
   161   81  203 1    
   162   81  204 1    
   163   82   83 2    
   164   82   84 am   BACKBONE|DICT|INTERRES
   165   84   85 1    
   166   84  205 1    
   167   85   86 1    
   168   85   87 1    
   169   85  206 1    
   170   86  207 1    
   171   86  208 1    
   172   86  209 1    
   173   87   88 2    
   174   87   89 am   BACKBONE|DICT|INTERRES
   175   89   90 1    
   176   89  210 1    
   177   90   91 1    
   178   90   92 1    
   179   90  211 1    
   180   91  212 1    
   181   91  213 1    
   182   91  214 1    
   183   92   93 2    
   184   92   94 am   BACKBONE|DICT|INTERRES
   185   94   95 1    
   186   94  215 1    
   187   95   96 1    
   188   95   97 1    
   189   95  216 1    
   190   96  217 1    
   191   96  218 1    
   192   96  219 1    
   193   97   98 2    
   194   97   99 am   BACKBONE|DICT|INTERRES
   195   99  100 1    
   196   99  220 1    
   197  100  101 1    
   198  100  102 1    
   199  100  221 1    
   200  101  222 1    
   201  101  223 1    
   202  101  224 1    
   203  102  103 2    
   204  102  104 am   BACKBONE|DICT|INTERRES
   205  104  105 1    
   206  104  225 1    
   207  105  106 1    
   208  105  107 1    
   209  105  226 1    
   210  106  227 1    
   211  106  228 1    
   212  106  229 1    
   213  107  108 2    
   214  107  109 am   BACKBONE|DICT|INTERRES
   215  109  110 1    
   216  109  230 1    
   217  110  111 1    
   218  110  112 1    
   219  110  231 1    
   220  111  232 1    
   221  111  233 1    
   222  111  234 1    
   223  112  113 2    
   224  112  114 am   BACKBONE|DICT|INTERRES
   225  114  115 1    
   226  114  235 1    
   227  115  116 1    
   228  115  117 1    
   229  115  236 1    
   230  116  237 1    
   231  116  238 1    
   232  116  239 1    
   233  117  118 2    
   234  117  119 am   BACKBONE|DICT|INTERRES
   235  119  120 1    
   236  119  240 1    
   237  120  121 1    
   238  120  124 1    
   239  120  241 1    
   240  121  122 am   BACKBONE|DICT|INTERRES
   241  121  123 2    
   242  122  242 1    
   243  122  243 1    
   244  124  125 1    
   245  124  244 1    
   246  124  245 1    
   247  125  126 1    
   248  126  246 1    
   249  126  247 1    
@<TRIPOS>SUBSTRUCTURE
     1 UNK         1 GROUP             0       ****    0 ROOT    
