@<TRIPOS>MOLECULE
3R540
247   249    1
SMALL
USER_CHARGES


@<TRIPOS>ATOM
      1 CA          5.1115  -13.5290  -49.0627 C.3       0 UNK        -0.1800 
      2 C           3.8493  -14.3790  -49.0187 C.2       0 UNK         0.5000 
      3 O           3.9393  -15.6017  -48.9049 O.2       0 UNK        -0.5000 
      4 N           2.6791  -13.7370  -49.1187 N.am      1 UNK        -0.5000 
      5 CA          1.3641  -14.3767  -49.0189 C.3       1 UNK         0.1400 
      6 C6          0.2481  -13.5044  -49.6544 C.3       23 UNK        -0.0398 
      7 S7          0.3545  -13.3029  -51.4671 S.3       23 UNK        -0.2404 
      8 C8          0.4207  -15.0058  -52.1380 C.3       23 UNK        -0.0205 
      9 C9         -0.4391  -16.0275  -51.3984 C.ar      23 UNK        -0.0193 
     10 C10        -1.8066  -15.8150  -51.1937 C.ar      23 UNK        -0.1150 
     11 C11        -2.5730  -16.7573  -50.5007 C.ar      23 UNK        -0.0193 
     12 C12        -1.9634  -17.9158  -50.0125 C.ar      23 UNK        -0.1150 
     13 C13        -0.6044  -18.1500  -50.2248 C.ar      23 UNK        -0.0193 
     14 C14         0.1489  -17.2044  -50.9229 C.ar      23 UNK        -0.1150 
     15 C15         0.0542  -19.4229  -49.7153 C.3       23 UNK        -0.0205 
     16 S16         0.5197  -19.2875  -47.9616 S.3       23 UNK        -0.2404 
     17 C17        -0.8768  -20.1180  -47.1225 C.3       23 UNK        -0.0398 
     18 CA         -0.5416  -21.5857  -46.7727 C.3       11 UNK         0.1400 
     19 N           0.5437  -21.6898  -45.7942 N.am      11 UNK        -0.5000 
     20 C           1.2268  -22.8120  -45.5374 C.2       10 UNK         0.5000 
     21 O           1.0069  -23.8856  -46.0966 O.2       10 UNK        -0.5000 
     22 CA          2.3038  -22.7347  -44.4408 C.3       10 UNK         0.1400 
     23 CB          3.5604  -22.0155  -44.9529 C.3       10 UNK        -0.1800 
     24 N           1.8230  -22.0819  -43.2227 N.am      10 UNK        -0.5000 
     25 C           0.8243  -22.5455  -42.4581 C.2       9 UNK         0.5000 
     26 O           0.2056  -23.5828  -42.6937 O.2       9 UNK        -0.5000 
     27 CA          0.4235  -21.6898  -41.2457 C.3       9 UNK         0.1400 
     28 CB          1.3708  -21.9348  -40.0615 C.3       9 UNK        -0.1800 
     29 N           0.3908  -20.2634  -41.5617 N.am      9 UNK        -0.5000 
     30 C          -0.5105  -19.6866  -42.3687 C.2       8 UNK         0.5000 
     31 O          -1.4178  -20.2952  -42.9350 O.2       8 UNK        -0.5000 
     32 CA         -0.3352  -18.1774  -42.6137 C.3       8 UNK         0.1400 
     33 CB         -0.7807  -17.3878  -41.3715 C.3       8 UNK        -0.1800 
     34 N           1.0403  -17.8087  -42.9566 N.am      8 UNK        -0.5000 
     35 C           1.7555  -18.3416  -43.9590 C.2       7 UNK         0.5000 
     36 O           1.3136  -19.1739  -44.7470 O.2       7 UNK        -0.5000 
     37 CA          3.2343  -17.9317  -44.0560 C.3       7 UNK         0.1400 
     38 CB          3.3808  -16.6082  -44.8173 C.3       7 UNK        -0.1800 
     39 N           3.8707  -17.8207  -42.7437 N.am      7 UNK        -0.5000 
     40 C           3.9896  -18.8089  -41.8471 C.2       6 UNK         0.5000 
     41 O           3.6096  -19.9619  -42.0557 O.2       6 UNK        -0.5000 
     42 CA          4.5741  -18.4475  -40.4657 C.3       6 UNK         0.1400 
     43 CB          6.1125  -18.5238  -40.4700 C.3       6 UNK        -0.1800 
     44 N           4.0862  -17.1683  -39.9242 N.am      6 UNK        -0.5000 
     45 C           4.3191  -15.9266  -40.3714 C.2       5 UNK         0.5000 
     46 O           5.0784  -15.6584  -41.3058 O.2       5 UNK        -0.5000 
     47 CA          3.5380  -14.7951  -39.6779 C.3       5 UNK         0.1400 
     48 CB          4.3975  -14.1342  -38.5898 C.3       5 UNK        -0.1800 
     49 N           3.0993  -13.7727  -40.6304 N.am      5 UNK        -0.5000 
     50 C           2.2662  -13.9860  -41.6575 C.2       4 UNK         0.5000 
     51 O           1.7250  -15.0711  -41.8917 O.2       4 UNK        -0.5000 
     52 CA          2.0188  -12.7868  -42.5838 C.3       4 UNK         0.1400 
     53 CB          3.1699  -12.6244  -43.5948 C.3       4 UNK        -0.1800 
     54 N           0.7539  -12.9719  -43.2859 N.am      4 UNK        -0.5000 
     55 C           0.0406  -12.0170  -43.8918 C.2       3 UNK         0.5000 
     56 O           0.3883  -10.8346  -43.9214 O.2       3 UNK        -0.5000 
     57 CA         -1.2735  -12.4549  -44.5825 C.3       3 UNK         0.1400 
     58 CB         -1.9273  -11.3197  -45.3917 C.3       3 UNK        -0.1800 
     59 N          -1.0849  -13.6050  -45.4694 N.am      3 UNK        -0.5000 
     60 C          -0.9693  -14.8788  -45.0750 C.2       2 UNK         0.5000 
     61 O          -1.0713  -15.2227  -43.8998 O.2       2 UNK        -0.5000 
     62 CA         -0.6932  -15.9504  -46.1498 C.3       2 UNK         0.1400 
     63 CB         -2.0011  -16.6893  -46.4730 C.3       2 UNK        -0.1800 
     64 N          -0.1173  -15.4626  -47.4077 N.am      2 UNK        -0.5000 
     65 C           1.0036  -14.7410  -47.5614 C.2       1 UNK         0.5000 
     66 O           1.6973  -14.3418  -46.6242 O.2       1 UNK        -0.5000 
     67 C          -1.7965  -22.3693  -46.3324 C.2       11 UNK         0.5000 
     68 O          -2.4734  -22.9437  -47.1869 O.2       11 UNK        -0.5000 
     69 N          -2.0680  -22.4282  -45.0192 N.am      12 UNK        -0.5000 
     70 CA         -3.1245  -23.2633  -44.4439 C.3       12 UNK         0.1400 
     71 CB         -3.3466  -22.9021  -42.9680 C.3       12 UNK        -0.1800 
     72 C          -2.8305  -24.7657  -44.6054 C.2       12 UNK         0.5000 
     73 O          -3.7169  -25.5105  -45.0231 O.2       12 UNK        -0.5000 
     74 N          -1.5853  -25.1768  -44.3228 N.am      13 UNK        -0.5000 
     75 CA         -1.0981  -26.5483  -44.4991 C.3       13 UNK         0.1400 
     76 CB          0.2984  -26.6827  -43.8737 C.3       13 UNK        -0.1800 
     77 C          -1.0821  -26.9974  -45.9730 C.2       13 UNK         0.5000 
     78 O          -1.3939  -28.1536  -46.2602 O.2       13 UNK        -0.5000 
     79 N          -0.7592  -26.0664  -46.8810 N.am      14 UNK        -0.5000 
     80 CA         -0.8149  -26.2496  -48.3331 C.3       14 UNK         0.1400 
     81 CB         -0.0112  -25.1259  -49.0065 C.3       14 UNK        -0.1800 
     82 C          -2.2499  -26.2900  -48.9004 C.2       14 UNK         0.5000 
     83 O          -2.4185  -26.6767  -50.0575 O.2       14 UNK        -0.5000 
     84 N          -3.2433  -25.8865  -48.0927 N.am      15 UNK        -0.5000 
     85 CA         -4.6677  -25.7651  -48.4145 C.3       15 UNK         0.1400 
     86 CB         -5.2938  -27.1501  -48.6810 C.3       15 UNK        -0.1800 
     87 C          -4.9188  -24.7471  -49.5451 C.2       15 UNK         0.5000 
     88 O          -5.5790  -25.0638  -50.5372 O.2       15 UNK        -0.5000 
     89 N          -4.3514  -23.5450  -49.3753 N.am      16 UNK        -0.5000 
     90 CA         -4.4469  -22.4156  -50.2997 C.3       16 UNK         0.1400 
     91 CB         -3.6261  -21.2521  -49.7298 C.3       16 UNK        -0.1800 
     92 C          -5.8902  -21.9511  -50.5767 C.2       16 UNK         0.5000 
     93 O          -6.7462  -22.0139  -49.6904 O.2       16 UNK        -0.5000 
     94 N          -6.1100  -21.4559  -51.7972 N.am      17 UNK        -0.5000 
     95 CA         -7.3678  -20.9158  -52.2982 C.3       17 UNK         0.1400 
     96 CB         -8.3250  -22.0672  -52.6627 C.3       17 UNK        -0.1800 
     97 C          -7.0647  -20.0367  -53.5209 C.2       17 UNK         0.5000 
     98 O          -5.9249  -20.0244  -54.0022 O.2       17 UNK        -0.5000 
     99 N          -8.0887  -19.3272  -54.0135 N.am      18 UNK        -0.5000 
    100 CA        -8.0486  -18.5219  -55.2371 C.3       18 UNK         0.1400 
    101 CB        -9.4184  -17.8630  -55.4546 C.3       18 UNK        -0.1800 
    102 C         -7.6472  -19.3617  -56.4627 C.2       18 UNK         0.5000 
    103 O         -8.1408  -20.4802  -56.6211 O.2       18 UNK        -0.5000 
    104 N         -6.7206  -18.8253  -57.2673 N.am      19 UNK        -0.5000 
    105 CA        -6.0512  -19.4297  -58.4299 C.3       19 UNK         0.1400 
    106 CB        -7.0602  -19.8431  -59.5186 C.3       19 UNK        -0.1800 
    107 C         -5.0893  -20.5890  -58.0882 C.2       19 UNK         0.5000 
    108 O         -4.0674  -20.7320  -58.7601 O.2       19 UNK        -0.5000 
    109 N         -5.4036  -21.3761  -57.0511 N.am      20 UNK        -0.5000 
    110 CA        -4.5801  -22.4693  -56.5337 C.3       20 UNK         0.1400 
    111 CB        -5.4109  -23.3070  -55.5491 C.3       20 UNK        -0.1800 
    112 C         -3.2865  -21.9717  -55.8631 C.2       20 UNK         0.5000 
    113 O         -2.2382  -22.5964  -56.0308 O.2       20 UNK        -0.5000 
    114 N         -3.3832  -20.8543  -55.1327 N.am      21 UNK        -0.5000 
    115 CA        -2.2610  -20.1943  -54.4669 C.3       21 UNK         0.1400 
    116 CB        -2.0359  -20.8088  -53.0762 C.3       21 UNK        -0.1800 
    117 C         -2.4811  -18.6787  -54.3649 C.2       21 UNK         0.5000 
    118 O         -1.5375  -17.9189  -54.5830 O.2       21 UNK        -0.5000 
    119 N         -3.7174  -18.2625  -54.0596 N.am      22 UNK        -0.5000 
    120 CA        -4.0980  -16.8532  -53.8644 C.3       22 UNK         0.1400 
    121 C         -4.4062  -16.0817  -55.1826 C.2       22 UNK         0.5000 
    122 N         -4.2709  -16.6837  -56.3587 N.am      22 UNK        -0.7600 
    123 O         -4.7720  -14.9106  -55.1409 O.2       22 UNK        -0.5000 
    124 C124       -5.2493  -16.6810  -52.8348 C.3       23 UNK        -0.0398 
    125 S125       -5.0688  -17.6431  -51.2924 S.3       23 UNK        -0.2404 
    126 C126       -4.0575  -16.5348  -50.2614 C.3       23 UNK        -0.0205 
    127 H127        5.6807  -13.6564  -48.1419 H         1 UNK         0.0600 
    128 H128        4.8833  -12.4690  -49.1772 H         1 UNK         0.0600 
    129 H129        5.7406  -13.8336  -49.8991 H         1 UNK         0.0600 
    130 H130        2.6723  -12.7305  -49.1962 H         1 UNK         0.3000 
    131 H131        1.4274  -15.3225  -49.5518 H         1 UNK         0.0600 
    132 H132       -0.7453  -13.9034  -49.4471 H         1 UNK         0.0800 
    133 H133        0.2542  -12.5088  -49.2075 H         1 UNK         0.0800 
    134 H134        0.1093  -14.9819  -53.1831 H         1 UNK         0.0800 
    135 H135        1.4652  -15.3215  -52.1435 H         1 UNK         0.0800 
    136 H136       -2.2692  -14.9130  -51.5690 H         1 UNK         0.1150 
    137 H137       -2.5538  -18.6348  -49.4665 H         1 UNK         0.1150 
    138 H138        1.2026  -17.3825  -51.0865 H         1 UNK         0.1150 
    139 H139       -0.5994  -20.2799  -49.8750 H         1 UNK         0.0800 
    140 H140        0.9561  -19.6288  -50.2934 H         1 UNK         0.0800 
    141 H141       -1.7627  -20.0552  -47.7541 H         1 UNK         0.0800 
    142 H142       -1.1118  -19.5630  -46.2127 H         1 UNK         0.0800 
    143 H143       -0.1931  -22.0631  -47.6906 H         1 UNK         0.0600 
    144 H144        0.8069  -20.8267  -45.3204 H         1 UNK         0.3000 
    145 H145        2.5833  -23.7570  -44.1780 H         1 UNK         0.0600 
    146 H146        4.3387  -21.9873  -44.1900 H         1 UNK         0.0600 
    147 H147        3.9736  -22.5271  -45.8230 H         1 UNK         0.0600 
    148 H148        3.3449  -20.9892  -45.2494 H         1 UNK         0.0600 
    149 H149        2.2972  -21.2299  -42.9411 H         1 UNK         0.3000 
    150 H150       -0.5810  -21.9922  -40.9423 H         1 UNK         0.0600 
    151 H151        1.3869  -22.9909  -39.7893 H         1 UNK         0.0600 
    152 H152        1.0528  -21.3774  -39.1804 H         1 UNK         0.0600 
    153 H153        2.3951  -21.6412  -40.2929 H         1 UNK         0.0600 
    154 H154        1.1376  -19.6971  -41.1886 H         1 UNK         0.3000 
    155 H155       -0.9741  -17.8999  -43.4537 H         1 UNK         0.0600 
    156 H156       -0.1550  -17.6076  -40.5058 H         1 UNK         0.0600 
    157 H157       -0.7355  -16.3132  -41.5441 H         1 UNK         0.0600 
    158 H158       -1.8105  -17.6284  -41.1047 H         1 UNK         0.0600 
    159 H159        1.4571  -17.0646  -42.4071 H         1 UNK         0.3000 
    160 H160        3.7637  -18.7060  -44.6137 H         1 UNK         0.0600 
    161 H161        4.4249  -16.3056  -44.8966 H         1 UNK         0.0600 
    162 H162        2.8318  -15.8026  -44.3299 H         1 UNK         0.0600 
    163 H163        2.9909  -16.7009  -45.8319 H         1 UNK         0.0600 
    164 H164        4.2236  -16.9065  -42.4763 H         1 UNK         0.3000 
    165 H165        4.2167  -19.2110  -39.7727 H         1 UNK         0.0600 
    166 H166        6.5209  -18.3073  -39.4829 H         1 UNK         0.0600 
    167 H167        6.4482  -19.5234  -40.7488 H         1 UNK         0.0600 
    168 H168        6.5577  -17.8254  -41.1788 H         1 UNK         0.0600 
    169 H169        3.4349  -17.2666  -39.1575 H         1 UNK         0.3000 
    170 H170        2.6460  -15.2169  -39.2099 H         1 UNK         0.0600 
    171 H171        4.7205  -14.8662  -37.8484 H         1 UNK         0.0600 
    172 H172        5.2938  -13.6751  -39.0093 H         1 UNK         0.0600 
    173 H173        3.8399  -13.3615  -38.0603 H         1 UNK         0.0600 
    174 H174        3.5266  -12.8636  -40.5321 H         1 UNK         0.3000 
    175 H175        1.9494  -11.8898  -41.9649 H         1 UNK         0.0600 
    176 H176        3.0488  -11.7215  -44.1931 H         1 UNK         0.0600 
    177 H177        3.2235  -13.4699  -44.2808 H         1 UNK         0.0600 
    178 H178        4.1334  -12.5494  -43.0894 H         1 UNK         0.0600 
    179 H179        0.3931  -13.9226  -43.2696 H         1 UNK         0.3000 
    180 H180       -1.9694  -12.7351  -43.7890 H         1 UNK         0.0600 
    181 H181       -1.2799  -10.9774  -46.2000 H         1 UNK         0.0600 
    182 H182       -2.1456  -10.4599  -44.7569 H         1 UNK         0.0600 
    183 H183       -2.8714  -11.6419  -45.8313 H         1 UNK         0.0600 
    184 H184       -0.9530  -13.3991  -46.4473 H         1 UNK         0.3000 
    185 H185        0.0150  -16.6649  -45.7276 H         1 UNK         0.0600 
    186 H186       -2.7586  -16.0105  -46.8671 H         1 UNK         0.0600 
    187 H187       -1.8449  -17.4713  -47.2125 H         1 UNK         0.0600 
    188 H188       -2.4147  -17.1633  -45.5818 H         1 UNK         0.0600 
    189 H189       -0.6048  -15.7628  -48.2399 H         1 UNK         0.3000 
    190 H190       -1.5020  -21.8966  -44.3678 H         1 UNK         0.3000 
    191 H191       -4.0508  -23.0490  -44.9815 H         1 UNK         0.0600 
    192 H192       -3.6609  -21.8639  -42.8610 H         1 UNK         0.0600 
    193 H193       -4.1270  -23.5233  -42.5269 H         1 UNK         0.0600 
    194 H194       -2.4425  -23.0412  -42.3756 H         1 UNK         0.0600 
    195 H195       -0.9217  -24.5086  -43.9392 H         1 UNK         0.3000 
    196 H196       -1.7760  -27.2131  -43.9599 H         1 UNK         0.0600 
    197 H197        0.6774  -27.7001  -43.9767 H         1 UNK         0.0600 
    198 H198        0.2766  -26.4499  -42.8089 H         1 UNK         0.0600 
    199 H199        1.0178  -26.0137  -44.3466 H         1 UNK         0.0600 
    200 H200       -0.4252  -25.1655  -46.5512 H         1 UNK         0.3000 
    201 H201       -0.3395  -27.2020  -48.5760 H         1 UNK         0.0600 
    202 H202        1.0169  -25.1018  -48.6448 H         1 UNK         0.0600 
    203 H203       -0.4574  -24.1493  -48.8196 H         1 UNK         0.0600 
    204 H204        0.0285  -25.2656  -50.0874 H         1 UNK         0.0600 
    205 H205       -2.9899  -25.5799  -47.1623 H         1 UNK         0.3000 
    206 H206       -5.1475  -25.3565  -47.5240 H         1 UNK         0.0600 
    207 H207       -5.1140  -27.8290  -47.8473 H         1 UNK         0.0600 
    208 H208       -6.3740  -27.0700  -48.8074 H         1 UNK         0.0600 
    209 H209       -4.8936  -27.6132  -49.5832 H         1 UNK         0.0600 
    210 H210       -3.7941  -23.3874  -48.5400 H         1 UNK         0.3000 
    211 H211       -3.9990  -22.7308  -51.2443 H         1 UNK         0.0600 
    212 H212       -3.9654  -20.9746  -48.7311 H         1 UNK         0.0600 
    213 H213       -3.7130  -20.3667  -50.3584 H         1 UNK         0.0600 
    214 H214       -2.5710  -21.5151  -49.6688 H         1 UNK         0.0600 
    215 H215       -5.3475  -21.3677  -52.4560 H         1 UNK         0.3000 
    216 H216       -7.8184  -20.2848  -51.5295 H         1 UNK         0.0600 
    217 H217       -9.2800  -21.6895  -53.0289 H         1 UNK         0.0600 
    218 H218       -8.5404  -22.6943  -51.7975 H         1 UNK         0.0600 
    219 H219       -7.9053  -22.7064  -53.4402 H         1 UNK         0.0600 
    220 H220       -8.9923  -19.4135  -53.5724 H         1 UNK         0.3000 
    221 H221       -7.3079  -17.7337  -55.0993 H         1 UNK         0.0600 
    222 H222      -10.2075  -18.6065  -55.5749 H         1 UNK         0.0600 
    223 H223       -9.6858  -17.2210  -54.6151 H         1 UNK         0.0600 
    224 H224       -9.4146  -17.2405  -56.3503 H         1 UNK         0.0600 
    225 H225       -6.3709  -17.9090  -57.0216 H         1 UNK         0.3000 
    226 H226       -5.4325  -18.6353  -58.8502 H         1 UNK         0.0600 
    227 H227       -7.7129  -19.0127  -59.7878 H         1 UNK         0.0600 
    228 H228       -6.5426  -20.1568  -60.4259 H         1 UNK         0.0600 
    229 H229       -7.6881  -20.6761  -59.2020 H         1 UNK         0.0600 
    230 H230       -6.2902  -21.2062  -56.5886 H         1 UNK         0.3000 
    231 H231       -4.2985  -23.1081  -57.3734 H         1 UNK         0.0600 
    232 H232       -5.7257  -22.7207  -54.6860 H         1 UNK         0.0600 
    233 H233       -4.8352  -24.1551  -55.1761 H         1 UNK         0.0600 
    234 H234       -6.3057  -23.7061  -56.0271 H         1 UNK         0.0600 
    235 H235       -4.2969  -20.4262  -55.0263 H         1 UNK         0.3000 
    236 H236       -1.3564  -20.3418  -55.0609 H         1 UNK         0.0600 
    237 H237       -1.7670  -21.8628  -53.1447 H         1 UNK         0.0600 
    238 H238       -1.2311  -20.2984  -52.5453 H         1 UNK         0.0600 
    239 H239       -2.9350  -20.7297  -52.4688 H         1 UNK         0.0600 
    240 H240       -4.4580  -18.9387  -53.8991 H         1 UNK         0.3000 
    241 H241       -3.2321  -16.3407  -53.4467 H         1 UNK         0.0600 
    242 H242       -3.8798  -17.6098  -56.4078 H         1 UNK         0.3800 
    243 H243       -4.4283  -16.1522  -57.2006 H         1 UNK         0.3800 
    244 H244       -5.3715  -15.6279  -52.5767 H         1 UNK         0.0800 
    245 H245       -6.1965  -16.9830  -53.2786 H         1 UNK         0.0800 
    246 H246       -4.2797  -16.7363  -49.2125 H         1 UNK         0.0800 
    247 H247       -4.3345  -15.4942  -50.4350 H         1 UNK         0.0800 
@<TRIPOS>BOND
     1    1    2 1    
     2    1  127 1    
     3    1  128 1    
     4    1  129 1    
     5    2    3 2    
     6    2    4 am   BACKBONE|DICT|INTERRES
     7    4    5 1    
     8    4  130 1    
     9    5    6 1    
    10    5   65 1    
    11    5  131 1    
    12    6    7 1    
    13    6  132 1    
    14    6  133 1    
    15    7    8 1    
    16    8    9 1    
    17    8  134 1    
    18    8  135 1    
    19    9   10 ar   
    20    9   14 ar   
    21   10   11 ar   
    22   10  136 1    
    23   11   12 ar   
    24   11  126 1    
    25   12   13 ar   
    26   12  137 1    
    27   13   14 ar   
    28   13   15 1    
    29   14  138 1    
    30   15   16 1    
    31   15  139 1    
    32   15  140 1    
    33   16   17 1    
    34   17   18 1    
    35   17  141 1    
    36   17  142 1    
    37   18   19 1    
    38   18   67 1    
    39   18  143 1    
    40   19   20 am   BACKBONE|DICT|INTERRES
    41   19  144 1    
    42   20   21 2    
    43   20   22 1    
    44   22   23 1    
    45   22   24 1    
    46   22  145 1    
    47   23  146 1    
    48   23  147 1    
    49   23  148 1    
    50   24   25 am   BACKBONE|DICT|INTERRES
    51   24  149 1    
    52   25   26 2    
    53   25   27 1    
    54   27   28 1    
    55   27   29 1    
    56   27  150 1    
    57   28  151 1    
    58   28  152 1    
    59   28  153 1    
    60   29   30 am   BACKBONE|DICT|INTERRES
    61   29  154 1    
    62   30   31 2    
    63   30   32 1    
    64   32   33 1    
    65   32   34 1    
    66   32  155 1    
    67   33  156 1    
    68   33  157 1    
    69   33  158 1    
    70   34   35 am   BACKBONE|DICT|INTERRES
    71   34  159 1    
    72   35   36 2    
    73   35   37 1    
    74   37   38 1    
    75   37   39 1    
    76   37  160 1    
    77   38  161 1    
    78   38  162 1    
    79   38  163 1    
    80   39   40 am   BACKBONE|DICT|INTERRES
    81   39  164 1    
    82   40   41 2    
    83   40   42 1    
    84   42   43 1    
    85   42   44 1    
    86   42  165 1    
    87   43  166 1    
    88   43  167 1    
    89   43  168 1    
    90   44   45 am   BACKBONE|DICT|INTERRES
    91   44  169 1    
    92   45   46 2    
    93   45   47 1    
    94   47   48 1    
    95   47   49 1    
    96   47  170 1    
    97   48  171 1    
    98   48  172 1    
    99   48  173 1    
   100   49   50 am   BACKBONE|DICT|INTERRES
   101   49  174 1    
   102   50   51 2    
   103   50   52 1    
   104   52   53 1    
   105   52   54 1    
   106   52  175 1    
   107   53  176 1    
   108   53  177 1    
   109   53  178 1    
   110   54   55 am   BACKBONE|DICT|INTERRES
   111   54  179 1    
   112   55   56 2    
   113   55   57 1    
   114   57   58 1    
   115   57   59 1    
   116   57  180 1    
   117   58  181 1    
   118   58  182 1    
   119   58  183 1    
   120   59   60 am   BACKBONE|DICT|INTERRES
   121   59  184 1    
   122   60   61 2    
   123   60   62 1    
   124   62   63 1    
   125   62   64 1    
   126   62  185 1    
   127   63  186 1    
   128   63  187 1    
   129   63  188 1    
   130   64   65 am   BACKBONE|DICT|INTERRES
   131   64  189 1    
   132   65   66 2    
   133   67   68 2    
   134   67   69 am   BACKBONE|DICT|INTERRES
   135   69   70 1    
   136   69  190 1    
   137   70   71 1    
   138   70   72 1    
   139   70  191 1    
   140   71  192 1    
   141   71  193 1    
   142   71  194 1    
   143   72   73 2    
   144   72   74 am   BACKBONE|DICT|INTERRES
   145   74   75 1    
   146   74  195 1    
   147   75   76 1    
   148   75   77 1    
   149   75  196 1    
   150   76  197 1    
   151   76  198 1    
   152   76  199 1    
   153   77   78 2    
   154   77   79 am   BACKBONE|DICT|INTERRES
   155   79   80 1    
   156   79  200 1    
   157   80   81 1    
   158   80   82 1    
   159   80  201 1    
   160   81  202 1    
   161   81  203 1    
   162   81  204 1    
   163   82   83 2    
   164   82   84 am   BACKBONE|DICT|INTERRES
   165   84   85 1    
   166   84  205 1    
   167   85   86 1    
   168   85   87 1    
   169   85  206 1    
   170   86  207 1    
   171   86  208 1    
   172   86  209 1    
   173   87   88 2    
   174   87   89 am   BACKBONE|DICT|INTERRES
   175   89   90 1    
   176   89  210 1    
   177   90   91 1    
   178   90   92 1    
   179   90  211 1    
   180   91  212 1    
   181   91  213 1    
   182   91  214 1    
   183   92   93 2    
   184   92   94 am   BACKBONE|DICT|INTERRES
   185   94   95 1    
   186   94  215 1    
   187   95   96 1    
   188   95   97 1    
   189   95  216 1    
   190   96  217 1    
   191   96  218 1    
   192   96  219 1    
   193   97   98 2    
   194   97   99 am   BACKBONE|DICT|INTERRES
   195   99  100 1    
   196   99  220 1    
   197  100  101 1    
   198  100  102 1    
   199  100  221 1    
   200  101  222 1    
   201  101  223 1    
   202  101  224 1    
   203  102  103 2    
   204  102  104 am   BACKBONE|DICT|INTERRES
   205  104  105 1    
   206  104  225 1    
   207  105  106 1    
   208  105  107 1    
   209  105  226 1    
   210  106  227 1    
   211  106  228 1    
   212  106  229 1    
   213  107  108 2    
   214  107  109 am   BACKBONE|DICT|INTERRES
   215  109  110 1    
   216  109  230 1    
   217  110  111 1    
   218  110  112 1    
   219  110  231 1    
   220  111  232 1    
   221  111  233 1    
   222  111  234 1    
   223  112  113 2    
   224  112  114 am   BACKBONE|DICT|INTERRES
   225  114  115 1    
   226  114  235 1    
   227  115  116 1    
   228  115  117 1    
   229  115  236 1    
   230  116  237 1    
   231  116  238 1    
   232  116  239 1    
   233  117  118 2    
   234  117  119 am   BACKBONE|DICT|INTERRES
   235  119  120 1    
   236  119  240 1    
   237  120  121 1    
   238  120  124 1    
   239  120  241 1    
   240  121  122 am   BACKBONE|DICT|INTERRES
   241  121  123 2    
   242  122  242 1    
   243  122  243 1    
   244  124  125 1    
   245  124  244 1    
   246  124  245 1    
   247  125  126 1    
   248  126  246 1    
   249  126  247 1    
@<TRIPOS>SUBSTRUCTURE
     1 UNK         1 GROUP             0       ****    0 ROOT    
