@<TRIPOS>MOLECULE
3R540
247   249    1
SMALL
USER_CHARGES


@<TRIPOS>ATOM
      1 CA          7.4255  -15.3412  -46.5859 C.3       0 UNK        -0.1800 
      2 C           6.4730  -14.6169  -45.6463 C.2       0 UNK         0.5000 
      3 O           6.5287  -14.8227  -44.4333 O.2       0 UNK        -0.5000 
      4 N           5.5943  -13.7705  -46.1972 N.am      1 UNK        -0.5000 
      5 CA          4.5987  -12.9788  -45.4659 C.3       1 UNK         0.1400 
      6 C6          3.3893  -12.5916  -46.3562 C.3       23 UNK        -0.0398 
      7 S7          2.4486  -14.0457  -46.9353 S.3       23 UNK        -0.2404 
      8 C8          2.9859  -14.1464  -48.6735 C.3       23 UNK        -0.0205 
      9 C9          2.4050  -15.3571  -49.3937 C.ar      23 UNK        -0.0193 
     10 C10         1.3084  -15.2171  -50.2515 C.ar      23 UNK        -0.1150 
     11 C11         0.8193  -16.3203  -50.9580 C.ar      23 UNK        -0.0193 
     12 C12         1.4359  -17.5626  -50.8011 C.ar      23 UNK        -0.1150 
     13 C13         2.4899  -17.7397  -49.8994 C.ar      23 UNK        -0.0193 
     14 C14         2.9848  -16.6190  -49.2248 C.ar      23 UNK        -0.1150 
     15 C15         3.1155  -19.1083  -49.6073 C.3       23 UNK        -0.0205 
     16 S16         2.2877  -20.5773  -50.3267 S.3       23 UNK        -0.2404 
     17 C17         0.5676  -20.4764  -49.7128 C.3       23 UNK        -0.0398 
     18 CA          0.1440  -21.7191  -48.8911 C.3       11 UNK         0.1400 
     19 N           0.3989  -21.5549  -47.4568 N.am      11 UNK        -0.5000 
     20 C           0.2542  -22.5232  -46.5414 C.2       10 UNK         0.5000 
     21 O          -0.0252  -23.6900  -46.8184 O.2       10 UNK        -0.5000 
     22 CA          0.3811  -22.1040  -45.0666 C.3       10 UNK         0.1400 
     23 CB          1.8531  -22.0261  -44.6333 C.3       10 UNK        -0.1800 
     24 N          -0.2872  -20.8272  -44.8057 N.am      10 UNK        -0.5000 
     25 C          -1.6185  -20.6685  -44.7777 C.2       9 UNK         0.5000 
     26 O          -2.4150  -21.5945  -44.9314 O.2       9 UNK        -0.5000 
     27 CA         -2.1516  -19.2343  -44.5817 C.3       9 UNK         0.1400 
     28 CB         -2.1820  -18.8668  -43.0911 C.3       9 UNK        -0.1800 
     29 N          -1.3769  -18.2272  -45.3065 N.am      9 UNK        -0.5000 
     30 C          -1.2422  -18.1791  -46.6395 C.2       8 UNK         0.5000 
     31 O          -1.8192  -18.9381  -47.4122 O.2       8 UNK        -0.5000 
     32 CA         -0.2400  -17.1594  -47.2026 C.3       8 UNK         0.1400 
     33 CB         -0.9267  -15.8096  -47.4451 C.3       8 UNK        -0.1800 
     34 N           0.9339  -16.9969  -46.3412 N.am      8 UNK        -0.5000 
     35 C           1.7919  -17.9824  -46.0356 C.2       7 UNK         0.5000 
     36 O           1.6769  -19.1321  -46.4582 O.2       7 UNK        -0.5000 
     37 CA          2.9418  -17.6549  -45.0687 C.3       7 UNK         0.1400 
     38 CB          4.2406  -17.3571  -45.8260 C.3       7 UNK        -0.1800 
     39 N           2.6178  -16.5309  -44.1908 N.am      7 UNK        -0.5000 
     40 C           1.9557  -16.6643  -43.0351 C.2       6 UNK         0.5000 
     41 O           1.6051  -17.7473  -42.5649 O.2       6 UNK        -0.5000 
     42 CA          1.5931  -15.3616  -42.3011 C.3       6 UNK         0.1400 
     43 CB          2.8334  -14.7448  -41.6386 C.3       6 UNK        -0.1800 
     44 N           0.9400  -14.3627  -43.1539 N.am      6 UNK        -0.5000 
     45 C          -0.2203  -14.5551  -43.8024 C.2       5 UNK         0.5000 
     46 O          -0.7989  -15.6427  -43.8412 O.2       5 UNK        -0.5000 
     47 CA         -0.8348  -13.3509  -44.5521 C.3       5 UNK         0.1400 
     48 CB         -2.3788  -13.3905  -44.5628 C.3       5 UNK        -0.1800 
     49 N          -0.3611  -12.0379  -44.1018 N.am      5 UNK        -0.5000 
     50 C          -0.5178  -11.4801  -42.8927 C.2       4 UNK         0.5000 
     51 O          -1.0738  -12.0227  -41.9359 O.2       4 UNK        -0.5000 
     52 CA          0.0790  -10.0685  -42.7322 C.3       4 UNK         0.1400 
     53 CB         -0.9641   -9.0870  -42.1729 C.3       4 UNK        -0.1800 
     54 N           1.2726  -10.0311  -41.8842 N.am      4 UNK        -0.5000 
     55 C           2.3657  -10.7926  -42.0187 C.2       3 UNK         0.5000 
     56 O           2.4794  -11.7090  -42.8420 O.2       3 UNK        -0.5000 
     57 CA          3.5394  -10.4558  -41.0840 C.3       3 UNK         0.1400 
     58 CB          3.3471  -11.0713  -39.6893 C.3       3 UNK        -0.1800 
     59 N           4.7477  -10.9975  -41.6888 N.am      3 UNK        -0.5000 
     60 C           5.8374  -10.3044  -42.0328 C.2       2 UNK         0.5000 
     61 O           6.0698   -9.1523  -41.6645 O.2       2 UNK        -0.5000 
     62 CA          6.8150  -11.0164  -42.9898 C.3       2 UNK         0.1400 
     63 CB          7.9445  -11.6976  -42.2028 C.3       2 UNK        -0.1800 
     64 N           6.1506  -12.0162  -43.8327 N.am      2 UNK        -0.5000 
     65 C           5.2650  -11.7518  -44.8038 C.2       1 UNK         0.5000 
     66 O           4.9854  -10.6111  -45.1767 O.2       1 UNK        -0.5000 
     67 C          -1.3277  -22.1004  -49.1674 C.2       11 UNK         0.5000 
     68 O          -1.5692  -23.0095  -49.9584 O.2       11 UNK        -0.5000 
     69 N          -2.2810  -21.4464  -48.4878 N.am      12 UNK        -0.5000 
     70 CA         -3.7109  -21.7517  -48.5538 C.3       12 UNK         0.1400 
     71 CB         -4.5169  -20.6972  -47.7827 C.3       12 UNK        -0.1800 
     72 C          -4.0419  -23.1644  -48.0454 C.2       12 UNK         0.5000 
     73 O          -4.8406  -23.8559  -48.6765 O.2       12 UNK        -0.5000 
     74 N          -3.4028  -23.5866  -46.9452 N.am      13 UNK        -0.5000 
     75 CA         -3.5113  -24.9407  -46.3997 C.3       13 UNK         0.1400 
     76 CB         -2.8040  -25.0175  -45.0388 C.3       13 UNK        -0.1800 
     77 C          -2.9727  -26.0082  -47.3706 C.2       13 UNK         0.5000 
     78 O          -3.6465  -27.0146  -47.5949 O.2       13 UNK        -0.5000 
     79 N          -1.8063  -25.7418  -47.9780 N.am      14 UNK        -0.5000 
     80 CA         -1.2006  -26.5704  -49.0265 C.3       14 UNK         0.1400 
     81 CB          0.2119  -26.0525  -49.3360 C.3       14 UNK        -0.1800 
     82 C          -2.0545  -26.6418  -50.3100 C.2       14 UNK         0.5000 
     83 O          -2.0924  -27.6856  -50.9611 O.2       14 UNK        -0.5000 
     84 N          -2.7707  -25.5517  -50.6124 N.am      15 UNK        -0.5000 
     85 CA         -3.7606  -25.4219  -51.6833 C.3       15 UNK         0.1400 
     86 CB         -3.8767  -23.9352  -52.0608 C.3       15 UNK        -0.1800 
     87 C          -5.1410  -26.0263  -51.3346 C.2       15 UNK         0.5000 
     88 O          -6.1171  -25.7232  -52.0243 O.2       15 UNK        -0.5000 
     89 N          -5.2051  -26.8574  -50.2824 N.am      16 UNK        -0.5000 
     90 CA         -6.3676  -27.5974  -49.7841 C.3       16 UNK         0.1400 
     91 CB         -6.8409  -28.6404  -50.8175 C.3       16 UNK        -0.1800 
     92 C          -7.4890  -26.6652  -49.2897 C.2       16 UNK         0.5000 
     93 O          -8.6388  -26.7929  -49.7123 O.2       16 UNK        -0.5000 
     94 N          -7.1077  -25.7312  -48.4070 N.am      17 UNK        -0.5000 
     95 CA         -7.9283  -24.6568  -47.8365 C.3       17 UNK         0.1400 
     96 CB         -9.0874  -25.2196  -46.9871 C.3       17 UNK        -0.1800 
     97 C          -8.3814  -23.6548  -48.9171 C.2       17 UNK         0.5000 
     98 O          -9.5494  -23.2642  -48.9608 O.2       17 UNK        -0.5000 
     99 N          -7.4219  -23.2735  -49.7726 N.am      18 UNK        -0.5000 
    100 CA        -7.5493  -22.3709  -50.9189 C.3       18 UNK         0.1400 
    101 CB        -7.7982  -20.9236  -50.4469 C.3       18 UNK        -0.1800 
    102 C         -8.5743  -22.8551  -51.9670 C.2       18 UNK         0.5000 
    103 O         -9.3266  -22.0483  -52.5182 O.2       18 UNK        -0.5000 
    104 N         -8.5776  -24.1685  -52.2358 N.am      19 UNK        -0.5000 
    105 CA        -9.2952  -24.7684  -53.3607 C.3       19 UNK         0.1400 
    106 CB        -9.4598  -26.2770  -53.1277 C.3       19 UNK        -0.1800 
    107 C         -8.5494  -24.4910  -54.6780 C.2       19 UNK         0.5000 
    108 O         -9.1799  -24.1473  -55.6790 O.2       19 UNK        -0.5000 
    109 N         -7.2151  -24.5987  -54.6300 N.am      20 UNK        -0.5000 
    110 CA        -6.3021  -24.0846  -55.6478 C.3       20 UNK         0.1400 
    111 CB        -5.0670  -24.9992  -55.7123 C.3       20 UNK        -0.1800 
    112 C         -5.9140  -22.6269  -55.3240 C.2       20 UNK         0.5000 
    113 O         -6.1974  -22.1336  -54.2288 O.2       20 UNK        -0.5000 
    114 N         -5.2701  -21.9563  -56.2861 N.am      21 UNK        -0.5000 
    115 CA        -4.7746  -20.5846  -56.1505 C.3       21 UNK         0.1400 
    116 CB        -4.3387  -20.0818  -57.5361 C.3       21 UNK        -0.1800 
    117 C         -3.6108  -20.4650  -55.1442 C.2       21 UNK         0.5000 
    118 O         -2.8887  -21.4387  -54.9157 O.2       21 UNK        -0.5000 
    119 N         -3.4340  -19.2562  -54.5936 N.am      22 UNK        -0.5000 
    120 CA        -2.3343  -18.8991  -53.6787 C.3       22 UNK         0.1400 
    121 C         -0.9210  -18.9568  -54.3347 C.2       22 UNK         0.5000 
    122 N         -0.7903  -18.7055  -55.6323 N.am      22 UNK        -0.7600 
    123 O          0.0643  -19.2519  -53.6666 O.2       22 UNK        -0.5000 
    124 C124       -2.5992  -17.5200  -53.0111 C.3       23 UNK        -0.0398 
    125 S125       -1.7375  -17.2932  -51.4167 S.3       23 UNK        -0.2404 
    126 C126       -0.3645  -16.1926  -51.9057 C.3       23 UNK        -0.0205 
    127 H127        7.2423  -15.0811  -47.6287 H         1 UNK         0.0600 
    128 H128        8.4570  -15.0839  -46.3458 H         1 UNK         0.0600 
    129 H129        7.3078  -16.4196  -46.4796 H         1 UNK         0.0600 
    130 H130        5.6235  -13.6155  -47.1939 H         1 UNK         0.3000 
    131 H131        4.2063  -13.5896  -44.6502 H         1 UNK         0.0600 
    132 H132        2.6940  -11.9679  -45.7912 H         1 UNK         0.0800 
    133 H133        3.7091  -11.9903  -47.2089 H         1 UNK         0.0800 
    134 H134        2.6995  -13.2289  -49.1900 H         1 UNK         0.0800 
    135 H135        4.0744  -14.1949  -48.7155 H         1 UNK         0.0800 
    136 H136        0.8462  -14.2484  -50.3785 H         1 UNK         0.1150 
    137 H137        1.0562  -18.3944  -51.3733 H         1 UNK         0.1150 
    138 H138        3.8273  -16.7307  -48.5602 H         1 UNK         0.1150 
    139 H139        4.1439  -19.0945  -49.9700 H         1 UNK         0.0800 
    140 H140        3.1795  -19.2521  -48.5297 H         1 UNK         0.0800 
    141 H141       -0.0573  -20.3542  -50.6005 H         1 UNK         0.0800 
    142 H142        0.4238  -19.5692  -49.1285 H         1 UNK         0.0800 
    143 H143        0.7393  -22.5723  -49.2236 H         1 UNK         0.0600 
    144 H144        0.6853  -20.6319  -47.1424 H         1 UNK         0.3000 
    145 H145       -0.1040  -22.8717  -44.4599 H         1 UNK         0.0600 
    146 H146        1.9407  -21.7501  -43.5824 H         1 UNK         0.0600 
    147 H147        2.3435  -22.9923  -44.7576 H         1 UNK         0.0600 
    148 H148        2.4158  -21.2995  -45.2187 H         1 UNK         0.0600 
    149 H149        0.3027  -20.0106  -44.7342 H         1 UNK         0.3000 
    150 H150       -3.1745  -19.2048  -44.9619 H         1 UNK         0.0600 
    151 H151       -2.7662  -19.5902  -42.5209 H         1 UNK         0.0600 
    152 H152       -2.6352  -17.8873  -42.9368 H         1 UNK         0.0600 
    153 H153       -1.1789  -18.8404  -42.6630 H         1 UNK         0.0600 
    154 H154       -0.9119  -17.5190  -44.7480 H         1 UNK         0.3000 
    155 H155        0.1117  -17.5274  -48.1662 H         1 UNK         0.0600 
    156 H156       -0.2237  -15.0543  -47.7925 H         1 UNK         0.0600 
    157 H157       -1.4093  -15.4395  -46.5438 H         1 UNK         0.0600 
    158 H158       -1.6988  -15.9061  -48.2095 H         1 UNK         0.0600 
    159 H159        1.1001  -16.0760  -45.9663 H         1 UNK         0.3000 
    160 H160        3.1162  -18.5498  -44.4671 H         1 UNK         0.0600 
    161 H161        4.1829  -16.4136  -46.3656 H         1 UNK         0.0600 
    162 H162        4.4683  -18.1433  -46.5469 H         1 UNK         0.0600 
    163 H163        5.0833  -17.2968  -45.1375 H         1 UNK         0.0600 
    164 H164        2.8630  -15.6069  -44.5133 H         1 UNK         0.3000 
    165 H165        0.8866  -15.6217  -41.5101 H         1 UNK         0.0600 
    166 H166        2.5515  -13.9061  -41.0046 H         1 UNK         0.0600 
    167 H167        3.3441  -15.4717  -41.0056 H         1 UNK         0.0600 
    168 H168        3.5529  -14.3847  -42.3743 H         1 UNK         0.0600 
    169 H169        1.3524  -13.4358  -43.1627 H         1 UNK         0.3000 
    170 H170       -0.4963  -13.4437  -45.5844 H         1 UNK         0.0600 
    171 H171       -2.7543  -14.3083  -45.0153 H         1 UNK         0.0600 
    172 H172       -2.7913  -13.3391  -43.5550 H         1 UNK         0.0600 
    173 H173       -2.7897  -12.5594  -45.1358 H         1 UNK         0.0600 
    174 H174        0.1520  -11.5117  -44.7950 H         1 UNK         0.3000 
    175 H175        0.3763   -9.7050  -43.7180 H         1 UNK         0.0600 
    176 H176       -0.5813   -8.0663  -42.1620 H         1 UNK         0.0600 
    177 H177       -1.8676   -9.0872  -42.7841 H         1 UNK         0.0600 
    178 H178       -1.2567   -9.3468  -41.1547 H         1 UNK         0.0600 
    179 H179        1.2681   -9.3280  -41.1598 H         1 UNK         0.3000 
    180 H180        3.6057   -9.3695  -40.9939 H         1 UNK         0.0600 
    181 H181        3.3022  -12.1590  -39.7258 H         1 UNK         0.0600 
    182 H182        2.4253  -10.7179  -39.2259 H         1 UNK         0.0600 
    183 H183        4.1685  -10.7971  -39.0272 H         1 UNK         0.0600 
    184 H184        4.6221  -11.9061  -42.1128 H         1 UNK         0.3000 
    185 H185        7.2553  -10.2584  -43.6409 H         1 UNK         0.0600 
    186 H186        8.6745  -12.1512  -42.8737 H         1 UNK         0.0600 
    187 H187        8.4779  -10.9767  -41.5818 H         1 UNK         0.0600 
    188 H188        7.5619  -12.4792  -41.5451 H         1 UNK         0.0600 
    189 H189        6.3708  -12.9913  -43.6531 H         1 UNK         0.3000 
    190 H190       -2.0190  -20.6462  -47.9148 H         1 UNK         0.3000 
    191 H191       -4.0117  -21.6955  -49.6009 H         1 UNK         0.0600 
    192 H192       -4.3838  -19.7060  -48.2164 H         1 UNK         0.0600 
    193 H193       -5.5834  -20.9233  -47.8077 H         1 UNK         0.0600 
    194 H194       -4.2189  -20.6475  -46.7359 H         1 UNK         0.0600 
    195 H195       -2.8032  -22.9382  -46.4463 H         1 UNK         0.3000 
    196 H196       -4.5712  -25.1466  -46.2370 H         1 UNK         0.0600 
    197 H197       -2.9098  -26.0106  -44.6005 H         1 UNK         0.0600 
    198 H198       -3.2298  -24.3036  -44.3335 H         1 UNK         0.0600 
    199 H199       -1.7379  -24.8083  -45.1218 H         1 UNK         0.0600 
    200 H200       -1.2969  -24.9048  -47.7083 H         1 UNK         0.3000 
    201 H201       -1.1111  -27.5856  -48.6347 H         1 UNK         0.0600 
    202 H202        0.8370  -26.0545  -48.4429 H         1 UNK         0.0600 
    203 H203        0.1922  -25.0353  -49.7269 H         1 UNK         0.0600 
    204 H204        0.7035  -26.6804  -50.0799 H         1 UNK         0.0600 
    205 H205       -2.6111  -24.7155  -50.0598 H         1 UNK         0.3000 
    206 H206       -3.3959  -25.9620  -52.5588 H         1 UNK         0.0600 
    207 H207       -2.9196  -23.5358  -52.3967 H         1 UNK         0.0600 
    208 H208       -4.5894  -23.7774  -52.8670 H         1 UNK         0.0600 
    209 H209       -4.2127  -23.3339  -51.2191 H         1 UNK         0.0600 
    210 H210       -4.3575  -26.9901  -49.7459 H         1 UNK         0.3000 
    211 H211       -6.0240  -28.1468  -48.9063 H         1 UNK         0.0600 
    212 H212       -7.2074  -28.1739  -51.7308 H         1 UNK         0.0600 
    213 H213       -7.6505  -29.2498  -50.4145 H         1 UNK         0.0600 
    214 H214       -6.0312  -29.3169  -51.0907 H         1 UNK         0.0600 
    215 H215       -6.1180  -25.6621  -48.2066 H         1 UNK         0.3000 
    216 H216       -7.2744  -24.1004  -47.1634 H         1 UNK         0.0600 
    217 H217       -8.7220  -25.9216  -46.2377 H         1 UNK         0.0600 
    218 H218       -9.8295  -25.7351  -47.5971 H         1 UNK         0.0600 
    219 H219       -9.6037  -24.4186  -46.4570 H         1 UNK         0.0600 
    220 H220       -6.4903  -23.6447  -49.6060 H         1 UNK         0.3000 
    221 H221       -6.5819  -22.3860  -51.4226 H         1 UNK         0.0600 
    222 H222       -8.7674  -20.8174  -49.9590 H         1 UNK         0.0600 
    223 H223       -7.0306  -20.6001  -49.7449 H         1 UNK         0.0600 
    224 H224       -7.7766  -20.2299  -51.2882 H         1 UNK         0.0600 
    225 H225       -7.9012  -24.7624  -51.7683 H         1 UNK         0.3000 
    226 H226      -10.2902  -24.3233  -53.4266 H         1 UNK         0.0600 
    227 H227       -9.9857  -26.4772  -52.1941 H         1 UNK         0.0600 
    228 H228      -10.0361  -26.7343  -53.9327 H         1 UNK         0.0600 
    229 H229       -8.4964  -26.7842  -53.0852 H         1 UNK         0.0600 
    230 H230       -6.7943  -24.8668  -53.7464 H         1 UNK         0.3000 
    231 H231       -6.7902  -24.0971  -56.6245 H         1 UNK         0.0600 
    232 H232       -5.3511  -26.0204  -55.9669 H         1 UNK         0.0600 
    233 H233       -4.5309  -25.0328  -54.7653 H         1 UNK         0.0600 
    234 H234       -4.3635  -24.6615  -56.4740 H         1 UNK         0.0600 
    235 H235       -5.0407  -22.4317  -57.1463 H         1 UNK         0.3000 
    236 H236       -5.5995  -19.9616  -55.7980 H         1 UNK         0.0600 
    237 H237       -5.1622  -20.1250  -58.2492 H         1 UNK         0.0600 
    238 H238       -4.0056  -19.0442  -57.4920 H         1 UNK         0.0600 
    239 H239       -3.5150  -20.6738  -57.9374 H         1 UNK         0.0600 
    240 H240       -4.0632  -18.5083  -54.8465 H         1 UNK         0.3000 
    241 H241       -2.3400  -19.6552  -52.8906 H         1 UNK         0.0600 
    242 H242       -1.5895  -18.4740  -56.1997 H         1 UNK         0.3800 
    243 H243        0.1239  -18.7563  -56.0536 H         1 UNK         0.3800 
    244 H244       -2.3653  -16.6989  -53.6911 H         1 UNK         0.0800 
    245 H245       -3.6626  -17.4201  -52.7895 H         1 UNK         0.0800 
    246 H246       -0.7276  -15.1646  -51.9450 H         1 UNK         0.0800 
    247 H247       -0.0240  -16.4432  -52.9110 H         1 UNK         0.0800 
@<TRIPOS>BOND
     1    1    2 1    
     2    1  127 1    
     3    1  128 1    
     4    1  129 1    
     5    2    3 2    
     6    2    4 am   BACKBONE|DICT|INTERRES
     7    4    5 1    
     8    4  130 1    
     9    5    6 1    
    10    5   65 1    
    11    5  131 1    
    12    6    7 1    
    13    6  132 1    
    14    6  133 1    
    15    7    8 1    
    16    8    9 1    
    17    8  134 1    
    18    8  135 1    
    19    9   10 ar   
    20    9   14 ar   
    21   10   11 ar   
    22   10  136 1    
    23   11   12 ar   
    24   11  126 1    
    25   12   13 ar   
    26   12  137 1    
    27   13   14 ar   
    28   13   15 1    
    29   14  138 1    
    30   15   16 1    
    31   15  139 1    
    32   15  140 1    
    33   16   17 1    
    34   17   18 1    
    35   17  141 1    
    36   17  142 1    
    37   18   19 1    
    38   18   67 1    
    39   18  143 1    
    40   19   20 am   BACKBONE|DICT|INTERRES
    41   19  144 1    
    42   20   21 2    
    43   20   22 1    
    44   22   23 1    
    45   22   24 1    
    46   22  145 1    
    47   23  146 1    
    48   23  147 1    
    49   23  148 1    
    50   24   25 am   BACKBONE|DICT|INTERRES
    51   24  149 1    
    52   25   26 2    
    53   25   27 1    
    54   27   28 1    
    55   27   29 1    
    56   27  150 1    
    57   28  151 1    
    58   28  152 1    
    59   28  153 1    
    60   29   30 am   BACKBONE|DICT|INTERRES
    61   29  154 1    
    62   30   31 2    
    63   30   32 1    
    64   32   33 1    
    65   32   34 1    
    66   32  155 1    
    67   33  156 1    
    68   33  157 1    
    69   33  158 1    
    70   34   35 am   BACKBONE|DICT|INTERRES
    71   34  159 1    
    72   35   36 2    
    73   35   37 1    
    74   37   38 1    
    75   37   39 1    
    76   37  160 1    
    77   38  161 1    
    78   38  162 1    
    79   38  163 1    
    80   39   40 am   BACKBONE|DICT|INTERRES
    81   39  164 1    
    82   40   41 2    
    83   40   42 1    
    84   42   43 1    
    85   42   44 1    
    86   42  165 1    
    87   43  166 1    
    88   43  167 1    
    89   43  168 1    
    90   44   45 am   BACKBONE|DICT|INTERRES
    91   44  169 1    
    92   45   46 2    
    93   45   47 1    
    94   47   48 1    
    95   47   49 1    
    96   47  170 1    
    97   48  171 1    
    98   48  172 1    
    99   48  173 1    
   100   49   50 am   BACKBONE|DICT|INTERRES
   101   49  174 1    
   102   50   51 2    
   103   50   52 1    
   104   52   53 1    
   105   52   54 1    
   106   52  175 1    
   107   53  176 1    
   108   53  177 1    
   109   53  178 1    
   110   54   55 am   BACKBONE|DICT|INTERRES
   111   54  179 1    
   112   55   56 2    
   113   55   57 1    
   114   57   58 1    
   115   57   59 1    
   116   57  180 1    
   117   58  181 1    
   118   58  182 1    
   119   58  183 1    
   120   59   60 am   BACKBONE|DICT|INTERRES
   121   59  184 1    
   122   60   61 2    
   123   60   62 1    
   124   62   63 1    
   125   62   64 1    
   126   62  185 1    
   127   63  186 1    
   128   63  187 1    
   129   63  188 1    
   130   64   65 am   BACKBONE|DICT|INTERRES
   131   64  189 1    
   132   65   66 2    
   133   67   68 2    
   134   67   69 am   BACKBONE|DICT|INTERRES
   135   69   70 1    
   136   69  190 1    
   137   70   71 1    
   138   70   72 1    
   139   70  191 1    
   140   71  192 1    
   141   71  193 1    
   142   71  194 1    
   143   72   73 2    
   144   72   74 am   BACKBONE|DICT|INTERRES
   145   74   75 1    
   146   74  195 1    
   147   75   76 1    
   148   75   77 1    
   149   75  196 1    
   150   76  197 1    
   151   76  198 1    
   152   76  199 1    
   153   77   78 2    
   154   77   79 am   BACKBONE|DICT|INTERRES
   155   79   80 1    
   156   79  200 1    
   157   80   81 1    
   158   80   82 1    
   159   80  201 1    
   160   81  202 1    
   161   81  203 1    
   162   81  204 1    
   163   82   83 2    
   164   82   84 am   BACKBONE|DICT|INTERRES
   165   84   85 1    
   166   84  205 1    
   167   85   86 1    
   168   85   87 1    
   169   85  206 1    
   170   86  207 1    
   171   86  208 1    
   172   86  209 1    
   173   87   88 2    
   174   87   89 am   BACKBONE|DICT|INTERRES
   175   89   90 1    
   176   89  210 1    
   177   90   91 1    
   178   90   92 1    
   179   90  211 1    
   180   91  212 1    
   181   91  213 1    
   182   91  214 1    
   183   92   93 2    
   184   92   94 am   BACKBONE|DICT|INTERRES
   185   94   95 1    
   186   94  215 1    
   187   95   96 1    
   188   95   97 1    
   189   95  216 1    
   190   96  217 1    
   191   96  218 1    
   192   96  219 1    
   193   97   98 2    
   194   97   99 am   BACKBONE|DICT|INTERRES
   195   99  100 1    
   196   99  220 1    
   197  100  101 1    
   198  100  102 1    
   199  100  221 1    
   200  101  222 1    
   201  101  223 1    
   202  101  224 1    
   203  102  103 2    
   204  102  104 am   BACKBONE|DICT|INTERRES
   205  104  105 1    
   206  104  225 1    
   207  105  106 1    
   208  105  107 1    
   209  105  226 1    
   210  106  227 1    
   211  106  228 1    
   212  106  229 1    
   213  107  108 2    
   214  107  109 am   BACKBONE|DICT|INTERRES
   215  109  110 1    
   216  109  230 1    
   217  110  111 1    
   218  110  112 1    
   219  110  231 1    
   220  111  232 1    
   221  111  233 1    
   222  111  234 1    
   223  112  113 2    
   224  112  114 am   BACKBONE|DICT|INTERRES
   225  114  115 1    
   226  114  235 1    
   227  115  116 1    
   228  115  117 1    
   229  115  236 1    
   230  116  237 1    
   231  116  238 1    
   232  116  239 1    
   233  117  118 2    
   234  117  119 am   BACKBONE|DICT|INTERRES
   235  119  120 1    
   236  119  240 1    
   237  120  121 1    
   238  120  124 1    
   239  120  241 1    
   240  121  122 am   BACKBONE|DICT|INTERRES
   241  121  123 2    
   242  122  242 1    
   243  122  243 1    
   244  124  125 1    
   245  124  244 1    
   246  124  245 1    
   247  125  126 1    
   248  126  246 1    
   249  126  247 1    
@<TRIPOS>SUBSTRUCTURE
     1 UNK         1 GROUP             0       ****    0 ROOT    
