@<TRIPOS>MOLECULE
3R540
247   249    1
SMALL
USER_CHARGES


@<TRIPOS>ATOM
      1 CA         -6.1098  -13.6004  -48.3498 C.3       0 UNK        -0.1800 
      2 C          -4.6497  -13.8726  -48.0216 C.2       0 UNK         0.5000 
      3 O          -4.1001  -13.2556  -47.1119 O.2       0 UNK        -0.5000 
      4 N          -4.0239  -14.8031  -48.7511 N.am      1 UNK        -0.5000 
      5 CA         -2.6201  -15.2134  -48.6195 C.3       1 UNK         0.1400 
      6 C6         -2.2903  -16.2863  -49.6799 C.3       23 UNK        -0.0398 
      7 S7         -0.5088  -16.5530  -49.9678 S.3       23 UNK        -0.2404 
      8 C8         -0.3050  -18.1852  -49.1996 C.3       23 UNK        -0.0205 
      9 C9          0.7474  -19.0211  -49.9052 C.ar      23 UNK        -0.0193 
     10 C10         0.3992  -19.7496  -51.0450 C.ar      23 UNK        -0.1150 
     11 C11         1.3419  -20.5530  -51.6902 C.ar      23 UNK        -0.0193 
     12 C12         2.6438  -20.6242  -51.1876 C.ar      23 UNK        -0.1150 
     13 C13         3.0066  -19.8955  -50.0505 C.ar      23 UNK        -0.0193 
     14 C14         2.0533  -19.0938  -49.4128 C.ar      23 UNK        -0.1150 
     15 C15         4.4372  -19.9573  -49.5347 C.3       23 UNK        -0.0205 
     16 S16         4.7937  -21.5113  -48.6537 S.3       23 UNK        -0.2404 
     17 C17         3.8726  -21.2646  -47.0993 C.3       23 UNK        -0.0398 
     18 CA          3.0566  -22.4985  -46.6453 C.3       11 UNK         0.1400 
     19 N           2.5965  -22.3347  -45.2648 N.am      11 UNK        -0.5000 
     20 C           2.0850  -23.3054  -44.4961 C.2       10 UNK         0.5000 
     21 O           2.0158  -24.4865  -44.8358 O.2       10 UNK        -0.5000 
     22 CA          1.5342  -22.8774  -43.1222 C.3       10 UNK         0.1400 
     23 CB          2.6573  -22.8317  -42.0755 C.3       10 UNK        -0.1800 
     24 N           0.8515  -21.5824  -43.1614 N.am      10 UNK        -0.5000 
     25 C          -0.2768  -21.3387  -43.8429 C.2       9 UNK         0.5000 
     26 O          -0.8915  -22.1979  -44.4749 O.2       9 UNK        -0.5000 
     27 CA         -0.7779  -19.8824  -43.8594 C.3       9 UNK         0.1400 
     28 CB         -1.5272  -19.5526  -42.5604 C.3       9 UNK        -0.1800 
     29 N           0.2986  -18.9113  -44.0714 N.am      9 UNK        -0.5000 
     30 C           1.0667  -18.8614  -45.1698 C.2       8 UNK         0.5000 
     31 O           0.9200  -19.6019  -46.1381 O.2       8 UNK        -0.5000 
     32 CA          2.2440  -17.8744  -45.1607 C.3       8 UNK         0.1400 
     33 CB          1.7888  -16.4563  -45.5377 C.3       8 UNK        -0.1800 
     34 N           2.9271  -17.8702  -43.8672 N.am      8 UNK        -0.5000 
     35 C           3.6561  -18.8969  -43.4033 C.2       7 UNK         0.5000 
     36 O           3.8671  -19.9263  -44.0434 O.2       7 UNK        -0.5000 
     37 CA          4.2013  -18.7740  -41.9685 C.3       7 UNK         0.1400 
     38 CB          5.5266  -17.9980  -41.9587 C.3       7 UNK        -0.1800 
     39 N           3.2530  -18.1241  -41.0642 N.am      7 UNK        -0.5000 
     40 C           2.0649  -18.6351  -40.7092 C.2       6 UNK         0.5000 
     41 O           1.6760  -19.7528  -41.0455 O.2       6 UNK        -0.5000 
     42 CA          1.1343  -17.7144  -39.8945 C.3       6 UNK         0.1400 
     43 CB          1.3752  -17.8966  -38.3890 C.3       6 UNK        -0.1800 
     44 N           1.2924  -16.2991  -40.2475 N.am      6 UNK        -0.5000 
     45 C           1.0144  -15.7928  -41.4558 C.2       5 UNK         0.5000 
     46 O           0.5360  -16.4557  -42.3794 O.2       5 UNK        -0.5000 
     47 CA          1.4327  -14.3383  -41.7003 C.3       5 UNK         0.1400 
     48 CB          2.9408  -14.2846  -42.0262 C.3       5 UNK        -0.1800 
     49 N           0.6471  -13.8013  -42.8071 N.am      5 UNK        -0.5000 
     50 C           0.6322  -12.5272  -43.2181 C.2       4 UNK         0.5000 
     51 O           1.2875  -11.6267  -42.6918 O.2       4 UNK        -0.5000 
     52 CA         -0.2825  -12.1941  -44.4111 C.3       4 UNK         0.1400 
     53 CB          0.4302  -12.4973  -45.7378 C.3       4 UNK        -0.1800 
     54 N          -1.5604  -12.9064  -44.3678 N.am      4 UNK        -0.5000 
     55 C          -2.5239  -12.6784  -43.4607 C.2       3 UNK         0.5000 
     56 O          -2.4314  -11.8294  -42.5730 O.2       3 UNK        -0.5000 
     57 CA         -3.8105  -13.5232  -43.5488 C.3       3 UNK         0.1400 
     58 CB         -5.0076  -12.6603  -43.9800 C.3       3 UNK        -0.1800 
     59 N          -3.6758  -14.6655  -44.4557 N.am      3 UNK        -0.5000 
     60 C          -3.1005  -15.8240  -44.1031 C.2       2 UNK         0.5000 
     61 O          -2.6764  -16.0400  -42.9689 O.2       2 UNK        -0.5000 
     62 CA         -2.9689  -16.9289  -45.1719 C.3       2 UNK         0.1400 
     63 CB         -3.9824  -18.0535  -44.9054 C.3       2 UNK        -0.1800 
     64 N          -3.1171  -16.4654  -46.5545 N.am      2 UNK        -0.5000 
     65 C          -2.2476  -15.6645  -47.1865 C.2       1 UNK         0.5000 
     66 O          -1.2269  -15.2291  -46.6549 O.2       1 UNK        -0.5000 
     67 C           1.8855  -22.8295  -47.5995 C.2       11 UNK         0.5000 
     68 O           2.0194  -23.7274  -48.4323 O.2       11 UNK        -0.5000 
     69 N           0.7530  -22.1310  -47.4308 N.am      12 UNK        -0.5000 
     70 CA         -0.4849  -22.3380  -48.1822 C.3       12 UNK         0.1400 
     71 CB         -1.4988  -21.2438  -47.8061 C.3       12 UNK        -0.1800 
     72 C          -1.1071  -23.7183  -47.9199 C.2       12 UNK         0.5000 
     73 O          -1.5080  -24.3994  -48.8647 O.2       12 UNK        -0.5000 
     74 N          -1.2035  -24.0830  -46.6322 N.am      13 UNK        -0.5000 
     75 CA         -1.8566  -25.2791  -46.1023 C.3       13 UNK         0.1400 
     76 CB         -1.0238  -26.5383  -46.4304 C.3       13 UNK        -0.1800 
     77 C          -3.3271  -25.3455  -46.5652 C.2       13 UNK         0.5000 
     78 O          -4.1285  -24.5105  -46.1429 O.2       13 UNK        -0.5000 
     79 N          -3.6454  -26.2947  -47.4544 N.am      14 UNK        -0.5000 
     80 CA         -4.9648  -26.4786  -48.0598 C.3       14 UNK         0.1400 
     81 CB         -4.9809  -27.8195  -48.8099 C.3       14 UNK        -0.1800 
     82 C          -5.4007  -25.3321  -48.9965 C.2       14 UNK         0.5000 
     83 O          -6.6017  -25.1761  -49.2207 O.2       14 UNK        -0.5000 
     84 N          -4.4444  -24.5541  -49.5289 N.am      15 UNK        -0.5000 
     85 CA         -4.7178  -23.4055  -50.3989 C.3       15 UNK         0.1400 
     86 CB         -3.4243  -22.9722  -51.0995 C.3       15 UNK        -0.1800 
     87 C          -5.3284  -22.2134  -49.6412 C.2       15 UNK         0.5000 
     88 O          -6.1241  -21.4723  -50.2203 O.2       15 UNK        -0.5000 
     89 N          -4.9496  -22.0645  -48.3619 N.am      16 UNK        -0.5000 
     90 CA         -5.3703  -21.0240  -47.4229 C.3       16 UNK         0.1400 
     91 CB         -6.7927  -21.3309  -46.9071 C.3       16 UNK        -0.1800 
     92 C          -5.2090  -19.6022  -48.0039 C.2       16 UNK         0.5000 
     93 O          -4.0859  -19.1094  -48.1051 O.2       16 UNK        -0.5000 
     94 N          -6.3267  -18.9644  -48.3701 N.am      17 UNK        -0.5000 
     95 CA         -6.3740  -17.6172  -48.9301 C.3       17 UNK         0.1400 
     96 CB         -7.8224  -17.1093  -48.8762 C.3       17 UNK        -0.1800 
     97 C          -5.8183  -17.5031  -50.3636 C.2       17 UNK         0.5000 
     98 O          -5.4331  -16.3997  -50.7541 O.2       17 UNK        -0.5000 
     99 N          -5.7993  -18.6070  -51.1237 N.am      18 UNK        -0.5000 
    100 CA        -5.3986  -18.6299  -52.5294 C.3       18 UNK         0.1400 
    101 CB        -5.9616  -19.8925  -53.2039 C.3       18 UNK        -0.1800 
    102 C         -3.8713  -18.5474  -52.6989 C.2       18 UNK         0.5000 
    103 O         -3.1758  -19.5363  -52.4649 O.2       18 UNK        -0.5000 
    104 N         -3.3814  -17.3782  -53.1304 N.am      19 UNK        -0.5000 
    105 CA        -1.9960  -17.1882  -53.5646 C.3       19 UNK         0.1400 
    106 CB        -1.6355  -15.6926  -53.5256 C.3       19 UNK        -0.1800 
    107 C         -1.7791  -17.7370  -54.9858 C.2       19 UNK         0.5000 
    108 O         -0.8003  -18.4445  -55.2261 O.2       19 UNK        -0.5000 
    109 N         -2.7011  -17.3813  -55.8950 N.am      20 UNK        -0.5000 
    110 CA        -2.6699  -17.6455  -57.3351 C.3       20 UNK         0.1400 
    111 CB        -3.9255  -17.0351  -57.9792 C.3       20 UNK        -0.1800 
    112 C         -2.5477  -19.1432  -57.6625 C.2       20 UNK         0.5000 
    113 O         -3.5238  -19.8830  -57.5169 O.2       20 UNK        -0.5000 
    114 N         -1.3279  -19.5615  -58.0331 N.am      21 UNK        -0.5000 
    115 CA        -0.9019  -20.9371  -58.3288 C.3       21 UNK         0.1400 
    116 CB        -1.5443  -21.4187  -59.6462 C.3       21 UNK        -0.1800 
    117 C         -1.1328  -21.9343  -57.1692 C.2       21 UNK         0.5000 
    118 O         -1.1713  -23.1435  -57.4036 O.2       21 UNK        -0.5000 
    119 N         -1.3021  -21.4133  -55.9451 N.am      22 UNK        -0.5000 
    120 CA        -1.7756  -22.1446  -54.7603 C.3       22 UNK         0.1400 
    121 C         -3.2185  -22.7295  -54.9099 C.2       22 UNK         0.5000 
    122 N         -4.0761  -22.1548  -55.7473 N.am      22 UNK        -0.7600 
    123 O         -3.5799  -23.7082  -54.2641 O.2       22 UNK        -0.5000 
    124 C124       -0.7084  -23.1543  -54.2280 C.3       23 UNK        -0.0398 
    125 S125       -0.1344  -22.7275  -52.5516 S.3       23 UNK        -0.2404 
    126 C126        0.9501  -21.3193  -52.9418 C.3       23 UNK        -0.0205 
    127 H127       -6.4079  -14.0742  -49.2853 H         1 UNK         0.0600 
    128 H128       -6.2795  -12.5280  -48.4458 H         1 UNK         0.0600 
    129 H129       -6.7501  -13.9787  -47.5530 H         1 UNK         0.0600 
    130 H130       -4.5359  -15.2534  -49.5052 H         1 UNK         0.3000 
    131 H131       -2.0216  -14.3269  -48.8398 H         1 UNK         0.0600 
    132 H132       -2.7078  -15.9780  -50.6372 H         1 UNK         0.0800 
    133 H133       -2.7981  -17.2226  -49.4499 H         1 UNK         0.0800 
    134 H134       -1.2482  -18.7294  -49.2389 H         1 UNK         0.0800 
    135 H135       -0.0618  -18.0582  -48.1440 H         1 UNK         0.0800 
    136 H136       -0.6109  -19.6978  -51.4283 H         1 UNK         0.1150 
    137 H137        3.3794  -21.2425  -51.6826 H         1 UNK         0.1150 
    138 H138        2.3225  -18.5287  -48.5318 H         1 UNK         0.1150 
    139 H139        5.1237  -19.8687  -50.3779 H         1 UNK         0.0800 
    140 H140        4.6515  -19.1101  -48.8811 H         1 UNK         0.0800 
    141 H141        3.2283  -20.3899  -47.1759 H         1 UNK         0.0800 
    142 H142        4.6146  -21.0187  -46.3391 H         1 UNK         0.0800 
    143 H143        3.7298  -23.3586  -46.6516 H         1 UNK         0.0600 
    144 H144        2.6709  -21.4016  -44.8754 H         1 UNK         0.3000 
    145 H145        0.8067  -23.6289  -42.8083 H         1 UNK         0.0600 
    146 H146        2.2642  -22.5984  -41.0858 H         1 UNK         0.0600 
    147 H147        3.4075  -22.0802  -42.3224 H         1 UNK         0.0600 
    148 H148        3.1659  -23.7940  -42.0056 H         1 UNK         0.0600 
    149 H149        1.2598  -20.8341  -42.6085 H         1 UNK         0.3000 
    150 H150       -1.4759  -19.7841  -44.6928 H         1 UNK         0.0600 
    151 H151       -2.4149  -20.1774  -42.4560 H         1 UNK         0.0600 
    152 H152       -1.8541  -18.5142  -42.5420 H         1 UNK         0.0600 
    153 H153       -0.9071  -19.7179  -41.6801 H         1 UNK         0.0600 
    154 H154        0.4622  -18.2331  -43.3341 H         1 UNK         0.3000 
    155 H155        2.9609  -18.2026  -45.9164 H         1 UNK         0.0600 
    156 H156        1.3829  -16.4395  -46.5501 H         1 UNK         0.0600 
    157 H157        2.6191  -15.7508  -45.5098 H         1 UNK         0.0600 
    158 H158        1.0081  -16.0834  -44.8762 H         1 UNK         0.0600 
    159 H159        2.7438  -17.0865  -43.2598 H         1 UNK         0.3000 
    160 H160        4.3909  -19.7827  -41.5953 H         1 UNK         0.0600 
    161 H161        5.3960  -16.9700  -42.2993 H         1 UNK         0.0600 
    162 H162        6.2596  -18.4706  -42.6139 H         1 UNK         0.0600 
    163 H163        5.9585  -17.9682  -40.9582 H         1 UNK         0.0600 
    164 H164        3.4995  -17.2053  -40.7289 H         1 UNK         0.3000 
    165 H165        0.1049  -18.0045  -40.1151 H         1 UNK         0.0600 
    166 H166        0.6719  -17.3049  -37.8027 H         1 UNK         0.0600 
    167 H167        1.2432  -18.9394  -38.0969 H         1 UNK         0.0600 
    168 H168        2.3851  -17.6006  -38.1026 H         1 UNK         0.0600 
    169 H169        1.6884  -15.6983  -39.5386 H         1 UNK         0.3000 
    170 H170        1.2224  -13.7551  -40.8016 H         1 UNK         0.0600 
    171 H171        3.1683  -14.8018  -42.9590 H         1 UNK         0.0600 
    172 H172        3.2968  -13.2593  -42.1213 H         1 UNK         0.0600 
    173 H173        3.5344  -14.7496  -41.2384 H         1 UNK         0.0600 
    174 H174        0.0583  -14.4853  -43.2667 H         1 UNK         0.3000 
    175 H175       -0.4949  -11.1233  -44.3802 H         1 UNK         0.0600 
    176 H176        0.7038  -13.5499  -45.8174 H         1 UNK         0.0600 
    177 H177       -0.2002  -12.2498  -46.5922 H         1 UNK         0.0600 
    178 H178        1.3475  -11.9144  -45.8288 H         1 UNK         0.0600 
    179 H179       -1.7068  -13.6207  -45.0699 H         1 UNK         0.3000 
    180 H180       -4.0233  -13.8946  -42.5440 H         1 UNK         0.0600 
    181 H181       -5.9091  -13.2612  -44.1003 H         1 UNK         0.0600 
    182 H182       -4.8191  -12.1409  -44.9190 H         1 UNK         0.0600 
    183 H183       -5.2233  -11.8983  -43.2302 H         1 UNK         0.0600 
    184 H184       -3.9537  -14.5116  -45.4179 H         1 UNK         0.3000 
    185 H185       -1.9648  -17.3437  -45.0660 H         1 UNK         0.0600 
    186 H186       -4.9975  -17.7544  -45.1690 H         1 UNK         0.0600 
    187 H187       -3.7301  -18.9464  -45.4749 H         1 UNK         0.0600 
    188 H188       -3.9908  -18.3434  -43.8541 H         1 UNK         0.0600 
    189 H189       -3.9183  -16.8103  -47.0614 H         1 UNK         0.3000 
    190 H190        0.7521  -21.3611  -46.7668 H         1 UNK         0.3000 
    191 H191       -0.2465  -22.2495  -49.2443 H         1 UNK         0.0600 
    192 H192       -1.0186  -20.2804  -47.6724 H         1 UNK         0.0600 
    193 H193       -2.0230  -21.4589  -46.8745 H         1 UNK         0.0600 
    194 H194       -2.2504  -21.1272  -48.5856 H         1 UNK         0.0600 
    195 H195       -0.9098  -23.4097  -45.9281 H         1 UNK         0.3000 
    196 H196       -1.8778  -25.1669  -45.0174 H         1 UNK         0.0600 
    197 H197       -0.0239  -26.4585  -46.0030 H         1 UNK         0.0600 
    198 H198       -0.9067  -26.6938  -47.5033 H         1 UNK         0.0600 
    199 H199       -1.4817  -27.4341  -46.0092 H         1 UNK         0.0600 
    200 H200       -2.9124  -26.9094  -47.7772 H         1 UNK         0.3000 
    201 H201       -5.6975  -26.5316  -47.2518 H         1 UNK         0.0600 
    202 H202       -4.7595  -28.6503  -48.1395 H         1 UNK         0.0600 
    203 H203       -4.2502  -27.8355  -49.6195 H         1 UNK         0.0600 
    204 H204       -5.9611  -28.0110  -49.2487 H         1 UNK         0.0600 
    205 H205       -3.4708  -24.7336  -49.3024 H         1 UNK         0.3000 
    206 H206       -5.4292  -23.7178  -51.1664 H         1 UNK         0.0600 
    207 H207       -2.6948  -22.5650  -50.4015 H         1 UNK         0.0600 
    208 H208       -2.9566  -23.8082  -51.6191 H         1 UNK         0.0600 
    209 H209       -3.6251  -22.1977  -51.8399 H         1 UNK         0.0600 
    210 H210       -4.3171  -22.7553  -47.9834 H         1 UNK         0.3000 
    211 H211       -4.6912  -21.0841  -46.5712 H         1 UNK         0.0600 
    212 H212       -7.5252  -21.3746  -47.7139 H         1 UNK         0.0600 
    213 H213       -7.1245  -20.5782  -46.1906 H         1 UNK         0.0600 
    214 H214       -6.8161  -22.2927  -46.3942 H         1 UNK         0.0600 
    215 H215       -7.2062  -19.4536  -48.2888 H         1 UNK         0.3000 
    216 H216       -5.7699  -16.9703  -48.2926 H         1 UNK         0.0600 
    217 H217       -7.9001  -16.0957  -49.2710 H         1 UNK         0.0600 
    218 H218       -8.1945  -17.0859  -47.8518 H         1 UNK         0.0600 
    219 H219       -8.4911  -17.7405  -49.4629 H         1 UNK         0.0600 
    220 H220       -6.0581  -19.4991  -50.7135 H         1 UNK         0.3000 
    221 H221       -5.8518  -17.7704  -53.0283 H         1 UNK         0.0600 
    222 H222       -5.5564  -20.8043  -52.7642 H         1 UNK         0.0600 
    223 H223       -7.0475  -19.9351  -53.1204 H         1 UNK         0.0600 
    224 H224       -5.7144  -19.9082  -54.2662 H         1 UNK         0.0600 
    225 H225       -4.0098  -16.5955  -53.2419 H         1 UNK         0.3000 
    226 H226       -1.3266  -17.7195  -52.8842 H         1 UNK         0.0600 
    227 H227       -1.7060  -15.2835  -52.5201 H         1 UNK         0.0600 
    228 H228       -0.6096  -15.5335  -53.8606 H         1 UNK         0.0600 
    229 H229       -2.2851  -15.0989  -54.1697 H         1 UNK         0.0600 
    230 H230       -3.4809  -16.8276  -55.5756 H         1 UNK         0.3000 
    231 H231       -1.8007  -17.1278  -57.7458 H         1 UNK         0.0600 
    232 H232       -4.8402  -17.4600  -57.5634 H         1 UNK         0.0600 
    233 H233       -3.9394  -17.2159  -59.0548 H         1 UNK         0.0600 
    234 H234       -3.9602  -15.9555  -57.8321 H         1 UNK         0.0600 
    235 H235       -0.5863  -18.8750  -58.0561 H         1 UNK         0.3000 
    236 H236        0.1776  -20.8974  -58.4802 H         1 UNK         0.0600 
    237 H237       -2.6230  -21.5436  -59.5467 H         1 UNK         0.0600 
    238 H238       -1.3617  -20.7119  -60.4556 H         1 UNK         0.0600 
    239 H239       -1.1313  -22.3787  -59.9582 H         1 UNK         0.0600 
    240 H240       -1.2219  -20.4081  -55.8383 H         1 UNK         0.3000 
    241 H241       -1.9121  -21.3643  -54.0116 H         1 UNK         0.0600 
    242 H242       -5.0016  -22.5405  -55.8393 H         1 UNK         0.3800 
    243 H243       -3.8087  -21.3567  -56.3170 H         1 UNK         0.3800 
    244 H244        0.1659  -23.1926  -54.8790 H         1 UNK         0.0800 
    245 H245       -1.0831  -24.1783  -54.2075 H         1 UNK         0.0800 
    246 H246        0.4417  -20.6361  -53.6237 H         1 UNK         0.0800 
    247 H247        1.8341  -21.6810  -53.4691 H         1 UNK         0.0800 
@<TRIPOS>BOND
     1    1    2 1    
     2    1  127 1    
     3    1  128 1    
     4    1  129 1    
     5    2    3 2    
     6    2    4 am   BACKBONE|DICT|INTERRES
     7    4    5 1    
     8    4  130 1    
     9    5    6 1    
    10    5   65 1    
    11    5  131 1    
    12    6    7 1    
    13    6  132 1    
    14    6  133 1    
    15    7    8 1    
    16    8    9 1    
    17    8  134 1    
    18    8  135 1    
    19    9   10 ar   
    20    9   14 ar   
    21   10   11 ar   
    22   10  136 1    
    23   11   12 ar   
    24   11  126 1    
    25   12   13 ar   
    26   12  137 1    
    27   13   14 ar   
    28   13   15 1    
    29   14  138 1    
    30   15   16 1    
    31   15  139 1    
    32   15  140 1    
    33   16   17 1    
    34   17   18 1    
    35   17  141 1    
    36   17  142 1    
    37   18   19 1    
    38   18   67 1    
    39   18  143 1    
    40   19   20 am   BACKBONE|DICT|INTERRES
    41   19  144 1    
    42   20   21 2    
    43   20   22 1    
    44   22   23 1    
    45   22   24 1    
    46   22  145 1    
    47   23  146 1    
    48   23  147 1    
    49   23  148 1    
    50   24   25 am   BACKBONE|DICT|INTERRES
    51   24  149 1    
    52   25   26 2    
    53   25   27 1    
    54   27   28 1    
    55   27   29 1    
    56   27  150 1    
    57   28  151 1    
    58   28  152 1    
    59   28  153 1    
    60   29   30 am   BACKBONE|DICT|INTERRES
    61   29  154 1    
    62   30   31 2    
    63   30   32 1    
    64   32   33 1    
    65   32   34 1    
    66   32  155 1    
    67   33  156 1    
    68   33  157 1    
    69   33  158 1    
    70   34   35 am   BACKBONE|DICT|INTERRES
    71   34  159 1    
    72   35   36 2    
    73   35   37 1    
    74   37   38 1    
    75   37   39 1    
    76   37  160 1    
    77   38  161 1    
    78   38  162 1    
    79   38  163 1    
    80   39   40 am   BACKBONE|DICT|INTERRES
    81   39  164 1    
    82   40   41 2    
    83   40   42 1    
    84   42   43 1    
    85   42   44 1    
    86   42  165 1    
    87   43  166 1    
    88   43  167 1    
    89   43  168 1    
    90   44   45 am   BACKBONE|DICT|INTERRES
    91   44  169 1    
    92   45   46 2    
    93   45   47 1    
    94   47   48 1    
    95   47   49 1    
    96   47  170 1    
    97   48  171 1    
    98   48  172 1    
    99   48  173 1    
   100   49   50 am   BACKBONE|DICT|INTERRES
   101   49  174 1    
   102   50   51 2    
   103   50   52 1    
   104   52   53 1    
   105   52   54 1    
   106   52  175 1    
   107   53  176 1    
   108   53  177 1    
   109   53  178 1    
   110   54   55 am   BACKBONE|DICT|INTERRES
   111   54  179 1    
   112   55   56 2    
   113   55   57 1    
   114   57   58 1    
   115   57   59 1    
   116   57  180 1    
   117   58  181 1    
   118   58  182 1    
   119   58  183 1    
   120   59   60 am   BACKBONE|DICT|INTERRES
   121   59  184 1    
   122   60   61 2    
   123   60   62 1    
   124   62   63 1    
   125   62   64 1    
   126   62  185 1    
   127   63  186 1    
   128   63  187 1    
   129   63  188 1    
   130   64   65 am   BACKBONE|DICT|INTERRES
   131   64  189 1    
   132   65   66 2    
   133   67   68 2    
   134   67   69 am   BACKBONE|DICT|INTERRES
   135   69   70 1    
   136   69  190 1    
   137   70   71 1    
   138   70   72 1    
   139   70  191 1    
   140   71  192 1    
   141   71  193 1    
   142   71  194 1    
   143   72   73 2    
   144   72   74 am   BACKBONE|DICT|INTERRES
   145   74   75 1    
   146   74  195 1    
   147   75   76 1    
   148   75   77 1    
   149   75  196 1    
   150   76  197 1    
   151   76  198 1    
   152   76  199 1    
   153   77   78 2    
   154   77   79 am   BACKBONE|DICT|INTERRES
   155   79   80 1    
   156   79  200 1    
   157   80   81 1    
   158   80   82 1    
   159   80  201 1    
   160   81  202 1    
   161   81  203 1    
   162   81  204 1    
   163   82   83 2    
   164   82   84 am   BACKBONE|DICT|INTERRES
   165   84   85 1    
   166   84  205 1    
   167   85   86 1    
   168   85   87 1    
   169   85  206 1    
   170   86  207 1    
   171   86  208 1    
   172   86  209 1    
   173   87   88 2    
   174   87   89 am   BACKBONE|DICT|INTERRES
   175   89   90 1    
   176   89  210 1    
   177   90   91 1    
   178   90   92 1    
   179   90  211 1    
   180   91  212 1    
   181   91  213 1    
   182   91  214 1    
   183   92   93 2    
   184   92   94 am   BACKBONE|DICT|INTERRES
   185   94   95 1    
   186   94  215 1    
   187   95   96 1    
   188   95   97 1    
   189   95  216 1    
   190   96  217 1    
   191   96  218 1    
   192   96  219 1    
   193   97   98 2    
   194   97   99 am   BACKBONE|DICT|INTERRES
   195   99  100 1    
   196   99  220 1    
   197  100  101 1    
   198  100  102 1    
   199  100  221 1    
   200  101  222 1    
   201  101  223 1    
   202  101  224 1    
   203  102  103 2    
   204  102  104 am   BACKBONE|DICT|INTERRES
   205  104  105 1    
   206  104  225 1    
   207  105  106 1    
   208  105  107 1    
   209  105  226 1    
   210  106  227 1    
   211  106  228 1    
   212  106  229 1    
   213  107  108 2    
   214  107  109 am   BACKBONE|DICT|INTERRES
   215  109  110 1    
   216  109  230 1    
   217  110  111 1    
   218  110  112 1    
   219  110  231 1    
   220  111  232 1    
   221  111  233 1    
   222  111  234 1    
   223  112  113 2    
   224  112  114 am   BACKBONE|DICT|INTERRES
   225  114  115 1    
   226  114  235 1    
   227  115  116 1    
   228  115  117 1    
   229  115  236 1    
   230  116  237 1    
   231  116  238 1    
   232  116  239 1    
   233  117  118 2    
   234  117  119 am   BACKBONE|DICT|INTERRES
   235  119  120 1    
   236  119  240 1    
   237  120  121 1    
   238  120  124 1    
   239  120  241 1    
   240  121  122 am   BACKBONE|DICT|INTERRES
   241  121  123 2    
   242  122  242 1    
   243  122  243 1    
   244  124  125 1    
   245  124  244 1    
   246  124  245 1    
   247  125  126 1    
   248  126  246 1    
   249  126  247 1    
@<TRIPOS>SUBSTRUCTURE
     1 UNK         1 GROUP             0       ****    0 ROOT    
