@<TRIPOS>MOLECULE
3R540
247   249    1
SMALL
USER_CHARGES


@<TRIPOS>ATOM
      1 CA          3.4484  -13.2698  -46.0097 C.3       0 UNK        -0.1800 
      2 C           2.0497  -13.0913  -46.5831 C.2       0 UNK         0.5000 
      3 O           1.8898  -12.4082  -47.5941 O.2       0 UNK        -0.5000 
      4 N           1.0464  -13.7059  -45.9408 N.am      1 UNK        -0.5000 
      5 CA         -0.3807  -13.6583  -46.2957 C.3       1 UNK         0.1400 
      6 C6         -0.7088  -14.2904  -47.6788 C.3       23 UNK        -0.0398 
      7 S7         -0.1902  -16.0348  -47.8465 S.3       23 UNK        -0.2404 
      8 C8          1.1804  -15.8939  -49.0371 C.3       23 UNK        -0.0205 
      9 C9          1.4187  -17.1929  -49.7951 C.ar      23 UNK        -0.0193 
     10 C10         0.6957  -17.4493  -50.9637 C.ar      23 UNK        -0.1150 
     11 C11         0.9572  -18.5902  -51.7259 C.ar      23 UNK        -0.0193 
     12 C12         1.9389  -19.4891  -51.3042 C.ar      23 UNK        -0.1150 
     13 C13         2.6599  -19.2564  -50.1300 C.ar      23 UNK        -0.0193 
     14 C14         2.3935  -18.1063  -49.3761 C.ar      23 UNK        -0.1150 
     15 C15         3.7644  -20.2227  -49.7192 C.3       23 UNK        -0.0205 
     16 S16         3.1319  -21.8791  -49.2952 S.3       23 UNK        -0.2404 
     17 C17         2.3757  -21.5387  -47.6762 C.3       23 UNK        -0.0398 
     18 CA          1.2196  -22.4974  -47.3057 C.3       11 UNK         0.1400 
     19 N           0.9398  -22.4435  -45.8680 N.am      11 UNK        -0.5000 
     20 C           0.0696  -23.2178  -45.2058 C.2       10 UNK         0.5000 
     21 O          -0.5646  -24.1349  -45.7243 O.2       10 UNK        -0.5000 
     22 CA         -0.1754  -22.8682  -43.7251 C.3       10 UNK         0.1400 
     23 CB          0.8969  -23.4931  -42.8203 C.3       10 UNK        -0.1800 
     24 N          -0.2324  -21.4220  -43.5034 N.am      10 UNK        -0.5000 
     25 C          -1.1879  -20.6219  -44.0004 C.2       9 UNK         0.5000 
     26 O          -2.1627  -21.0295  -44.6292 O.2       9 UNK        -0.5000 
     27 CA         -0.9855  -19.1086  -43.8234 C.3       9 UNK         0.1400 
     28 CB         -1.4998  -18.6415  -42.4537 C.3       9 UNK        -0.1800 
     29 N           0.4182  -18.7316  -44.0038 N.am      9 UNK        -0.5000 
     30 C           1.0383  -18.7624  -45.1943 C.2       8 UNK         0.5000 
     31 O           0.4707  -19.0690  -46.2408 O.2       8 UNK        -0.5000 
     32 CA          2.5500  -18.4649  -45.2209 C.3       8 UNK         0.1400 
     33 CB          2.8104  -16.9773  -45.4869 C.3       8 UNK        -0.1800 
     34 N           3.2291  -18.8779  -43.9920 N.am      8 UNK        -0.5000 
     35 C           3.3921  -20.1587  -43.6278 C.2       7 UNK         0.5000 
     36 O           3.0176  -21.1059  -44.3183 O.2       7 UNK        -0.5000 
     37 CA          4.0300  -20.4377  -42.2519 C.3       7 UNK         0.1400 
     38 CB          5.5415  -20.6644  -42.3984 C.3       7 UNK        -0.1800 
     39 N           3.7961  -19.3792  -41.2670 N.am      7 UNK        -0.5000 
     40 C           2.5923  -18.9842  -40.8311 C.2       6 UNK         0.5000 
     41 O           1.5372  -19.5057  -41.1938 O.2       6 UNK        -0.5000 
     42 CA          2.5431  -17.7582  -39.8936 C.3       6 UNK         0.1400 
     43 CB          3.8897  -17.4384  -39.2064 C.3       6 UNK        -0.1800 
     44 N           2.0289  -16.5726  -40.5923 N.am      6 UNK        -0.5000 
     45 C           2.5142  -16.0404  -41.7249 C.2       5 UNK         0.5000 
     46 O           3.5122  -16.4571  -42.3133 O.2       5 UNK        -0.5000 
     47 CA          1.7591  -14.8388  -42.2990 C.3       5 UNK         0.1400 
     48 CB          0.3058  -15.1837  -42.6783 C.3       5 UNK        -0.1800 
     49 N           1.8005  -13.7188  -41.3674 N.am      5 UNK        -0.5000 
     50 C           1.6561  -12.4446  -41.7417 C.2       4 UNK         0.5000 
     51 O           1.4589  -12.0933  -42.9116 O.2       4 UNK        -0.5000 
     52 CA          1.7599  -11.3880  -40.6314 C.3       4 UNK         0.1400 
     53 CB          3.2246  -10.9866  -40.3988 C.3       4 UNK        -0.1800 
     54 N           1.0099  -10.2197  -41.0694 N.am      4 UNK        -0.5000 
     55 C          -0.0424   -9.6783  -40.4475 C.2       3 UNK         0.5000 
     56 O          -0.3845   -9.9575  -39.2977 O.2       3 UNK        -0.5000 
     57 CA         -0.8760   -8.6754  -41.2731 C.3       3 UNK         0.1400 
     58 CB         -0.4553   -7.2325  -40.9549 C.3       3 UNK        -0.1800 
     59 N          -0.7683   -8.8982  -42.7204 N.am      3 UNK        -0.5000 
     60 C          -1.2316   -9.9780  -43.3678 C.2       2 UNK         0.5000 
     61 O          -1.8903  -10.8646  -42.8196 O.2       2 UNK        -0.5000 
     62 CA         -0.8971  -10.1034  -44.8652 C.3       2 UNK         0.1400 
     63 CB          0.2170   -9.1514  -45.3479 C.3       2 UNK        -0.1800 
     64 N          -0.4939  -11.4792  -45.1479 N.am      2 UNK        -0.5000 
     65 C          -0.9681  -12.2313  -46.1498 C.2       1 UNK         0.5000 
     66 O          -1.8247  -11.8346  -46.9431 O.2       1 UNK        -0.5000 
     67 C          -0.0489  -22.2366  -48.1493 C.2       11 UNK         0.5000 
     68 O          -0.3590  -23.0260  -49.0423 O.2       11 UNK        -0.5000 
     69 N          -0.7905  -21.1709  -47.8130 N.am      12 UNK        -0.5000 
     70 CA         -2.0681  -20.8307  -48.4376 C.3       12 UNK         0.1400 
     71 CB         -2.5161  -19.4368  -47.9782 C.3       12 UNK        -0.1800 
     72 C          -3.1618  -21.8791  -48.1632 C.2       12 UNK         0.5000 
     73 O          -3.8990  -22.2326  -49.0835 O.2       12 UNK        -0.5000 
     74 N          -3.2365  -22.3865  -46.9239 N.am      13 UNK        -0.5000 
     75 CA         -4.1641  -23.4429  -46.5091 C.3       13 UNK         0.1400 
     76 CB         -4.1000  -23.6349  -44.9876 C.3       13 UNK        -0.1800 
     77 C          -3.9214  -24.7773  -47.2370 C.2       13 UNK         0.5000 
     78 O          -4.8862  -25.4265  -47.6403 O.2       13 UNK        -0.5000 
     79 N          -2.6468  -25.1345  -47.4513 N.am      14 UNK        -0.5000 
     80 CA         -2.2239  -26.2892  -48.2508 C.3       14 UNK         0.1400 
     81 CB         -0.7110  -26.4986  -48.0886 C.3       14 UNK        -0.1800 
     82 C          -2.6034  -26.1661  -49.7412 C.2       14 UNK         0.5000 
     83 O          -2.8243  -27.1837  -50.3976 O.2       14 UNK        -0.5000 
     84 N          -2.7283  -24.9253  -50.2292 N.am      15 UNK        -0.5000 
     85 CA         -3.2520  -24.5689  -51.5474 C.3       15 UNK         0.1400 
     86 CB         -2.5045  -23.3232  -52.0526 C.3       15 UNK        -0.1800 
     87 C          -4.7847  -24.3617  -51.5392 C.2       15 UNK         0.5000 
     88 O          -5.3104  -23.7105  -52.4426 O.2       15 UNK        -0.5000 
     89 N          -5.4773  -24.8996  -50.5225 N.am      16 UNK        -0.5000 
     90 CA         -6.9292  -24.8744  -50.3149 C.3       16 UNK         0.1400 
     91 CB         -7.6480  -25.7004  -51.4022 C.3       16 UNK        -0.1800 
     92 C          -7.4874  -23.4456  -50.1560 C.2       16 UNK         0.5000 
     93 O          -8.5173  -23.1136  -50.7425 O.2       16 UNK        -0.5000 
     94 N          -6.7733  -22.6286  -49.3682 N.am      17 UNK        -0.5000 
     95 CA         -6.9778  -21.1913  -49.1537 C.3       17 UNK         0.1400 
     96 CB         -8.3642  -20.8888  -48.5464 C.3       17 UNK        -0.1800 
     97 C          -6.6651  -20.3848  -50.4302 C.2       17 UNK         0.5000 
     98 O          -7.4164  -19.4805  -50.7990 O.2       17 UNK        -0.5000 
     99 N          -5.5464  -20.7511  -51.0743 N.am      18 UNK        -0.5000 
    100 CA        -5.0014  -20.1969  -52.3177 C.3       18 UNK         0.1400 
    101 CB        -4.4890  -18.7605  -52.0839 C.3       18 UNK        -0.1800 
    102 C         -5.9645  -20.3080  -53.5217 C.2       18 UNK         0.5000 
    103 O         -6.0095  -19.4116  -54.3668 O.2       18 UNK        -0.5000 
    104 N         -6.7188  -21.4114  -53.5877 N.am      19 UNK        -0.5000 
    105 CA        -7.7192  -21.6859  -54.6152 C.3       19 UNK         0.1400 
    106 CB        -8.8224  -22.5730  -54.0161 C.3       19 UNK        -0.1800 
    107 C         -7.0565  -22.3278  -55.8448 C.2       19 UNK         0.5000 
    108 O         -7.0773  -23.5511  -55.9918 O.2       19 UNK        -0.5000 
    109 N         -6.4367  -21.4852  -56.6830 N.am      20 UNK        -0.5000 
    110 CA        -5.7473  -21.7760  -57.9517 C.3       20 UNK         0.1400 
    111 CB        -6.6945  -22.4387  -58.9698 C.3       20 UNK        -0.1800 
    112 C         -4.4351  -22.5753  -57.8149 C.2       20 UNK         0.5000 
    113 O         -3.4863  -22.3036  -58.5522 O.2       20 UNK        -0.5000 
    114 N         -4.3701  -23.5000  -56.8483 N.am      21 UNK        -0.5000 
    115 CA        -3.2041  -24.3201  -56.5007 C.3       21 UNK         0.1400 
    116 CB        -3.6215  -25.3363  -55.4275 C.3       21 UNK        -0.1800 
    117 C         -1.9771  -23.5076  -56.0348 C.2       21 UNK         0.5000 
    118 O         -0.8586  -24.0209  -56.0745 O.2       21 UNK        -0.5000 
    119 N         -2.2081  -22.2517  -55.6322 N.am      22 UNK        -0.5000 
    120 CA        -1.1779  -21.2382  -55.3650 C.3       22 UNK         0.1400 
    121 C         -0.4293  -20.7325  -56.6370 C.2       22 UNK         0.5000 
    122 N         -0.9075  -20.9896  -57.8500 N.am      22 UNK        -0.7600 
    123 O          0.6116  -20.0925  -56.5186 O.2       22 UNK        -0.5000 
    124 C124       -1.7629  -20.0501  -54.5455 C.3       23 UNK        -0.0398 
    125 S125       -1.1435  -20.0113  -52.8318 S.3       23 UNK        -0.2404 
    126 C126        0.2186  -18.8267  -53.0313 C.3       23 UNK        -0.0205 
    127 H127        3.8273  -12.3148  -45.6459 H         1 UNK         0.0600 
    128 H128        4.1257  -13.6365  -46.7810 H         1 UNK         0.0600 
    129 H129        3.4651  -13.9788  -45.1829 H         1 UNK         0.0600 
    130 H130        1.2580  -14.2330  -45.1091 H         1 UNK         0.3000 
    131 H131       -0.8937  -14.2580  -45.5428 H         1 UNK         0.0600 
    132 H132       -1.7870  -14.2781  -47.8465 H         1 UNK         0.0800 
    133 H133       -0.2825  -13.6911  -48.4838 H         1 UNK         0.0800 
    134 H134        0.9644  -15.1045  -49.7582 H         1 UNK         0.0800 
    135 H135        2.0860  -15.5823  -48.5161 H         1 UNK         0.0800 
    136 H136       -0.0541  -16.7440  -51.2938 H         1 UNK         0.1150 
    137 H137        2.1500  -20.3681  -51.8973 H         1 UNK         0.1150 
    138 H138        2.9624  -17.9077  -48.4796 H         1 UNK         0.1150 
    139 H139        4.4685  -20.3203  -50.5467 H         1 UNK         0.0800 
    140 H140        4.3371  -19.8280  -48.8784 H         1 UNK         0.0800 
    141 H141        2.0372  -20.5044  -47.6508 H         1 UNK         0.0800 
    142 H142        3.1749  -21.6147  -46.9380 H         1 UNK         0.0800 
    143 H143        1.5460  -23.5182  -47.5161 H         1 UNK         0.0600 
    144 H144        1.4706  -21.7633  -45.3336 H         1 UNK         0.3000 
    145 H145       -1.1411  -23.2883  -43.4382 H         1 UNK         0.0600 
    146 H146        0.7007  -23.2780  -41.7698 H         1 UNK         0.0600 
    147 H147        0.9135  -24.5779  -42.9324 H         1 UNK         0.0600 
    148 H148        1.8954  -23.1264  -43.0563 H         1 UNK         0.0600 
    149 H149        0.5336  -21.0025  -42.9950 H         1 UNK         0.3000 
    150 H150       -1.5751  -18.6017  -44.5906 H         1 UNK         0.0600 
    151 H151       -2.5595  -18.8740  -42.3414 H         1 UNK         0.0600 
    152 H152       -1.3939  -17.5645  -42.3352 H         1 UNK         0.0600 
    153 H153       -0.9751  -19.1257  -41.6309 H         1 UNK         0.0600 
    154 H154        0.9582  -18.5669  -43.1650 H         1 UNK         0.3000 
    155 H155        2.9878  -19.0281  -46.0467 H         1 UNK         0.0600 
    156 H156        2.3221  -16.3463  -44.7489 H         1 UNK         0.0600 
    157 H157        3.8764  -16.7495  -45.4777 H         1 UNK         0.0600 
    158 H158        2.4238  -16.6865  -46.4616 H         1 UNK         0.0600 
    159 H159        3.5391  -18.1394  -43.3671 H         1 UNK         0.3000 
    160 H160        3.5815  -21.3552  -41.8655 H         1 UNK         0.0600 
    161 H161        6.0496  -19.7681  -42.7566 H         1 UNK         0.0600 
    162 H162        5.7492  -21.4660  -43.1086 H         1 UNK         0.0600 
    163 H163        5.9921  -20.9498  -41.4476 H         1 UNK         0.0600 
    164 H164        4.6076  -18.8659  -40.9548 H         1 UNK         0.3000 
    165 H165        1.8224  -18.0018  -39.1115 H         1 UNK         0.0600 
    166 H166        3.7696  -16.6371  -38.4773 H         1 UNK         0.0600 
    167 H167        4.2716  -18.3061  -38.6669 H         1 UNK         0.0600 
    168 H168        4.6559  -17.1219  -39.9147 H         1 UNK         0.0600 
    169 H169        1.1798  -16.1837  -40.2072 H         1 UNK         0.3000 
    170 H170        2.2900  -14.5451  -43.2054 H         1 UNK         0.0600 
    171 H171       -0.2847  -15.4613  -41.8051 H         1 UNK         0.0600 
    172 H172       -0.1937  -14.3376  -43.1494 H         1 UNK         0.0600 
    173 H173        0.2676  -16.0126  -43.3842 H         1 UNK         0.0600 
    174 H174        2.0117  -13.9405  -40.4039 H         1 UNK         0.3000 
    175 H175        1.3415  -11.7992  -39.7104 H         1 UNK         0.0600 
    176 H176        3.3028  -10.2164  -39.6312 H         1 UNK         0.0600 
    177 H177        3.6864  -10.6000  -41.3084 H         1 UNK         0.0600 
    178 H178        3.8168  -11.8395  -40.0654 H         1 UNK         0.0600 
    179 H179        1.1578   -9.9748  -42.0386 H         1 UNK         0.3000 
    180 H180       -1.9221   -8.8002  -40.9860 H         1 UNK         0.0600 
    181 H181        0.5816   -7.0438  -41.2360 H         1 UNK         0.0600 
    182 H182       -0.5490   -7.0251  -39.8880 H         1 UNK         0.0600 
    183 H183       -1.0833   -6.5130  -41.4806 H         1 UNK         0.0600 
    184 H184       -0.2486   -8.2085  -43.2439 H         1 UNK         0.3000 
    185 H185       -1.8154   -9.8549  -45.4005 H         1 UNK         0.0600 
    186 H186       -0.0710   -8.1057  -45.2343 H         1 UNK         0.0600 
    187 H187        1.1486   -9.3100  -44.8028 H         1 UNK         0.0600 
    188 H188        0.4272   -9.3073  -46.4064 H         1 UNK         0.0600 
    189 H189        0.1826  -11.8750  -44.5015 H         1 UNK         0.3000 
    190 H190       -0.4461  -20.5319  -47.1014 H         1 UNK         0.3000 
    191 H191       -1.9105  -20.7928  -49.5178 H         1 UNK         0.0600 
    192 H192       -1.7781  -18.6814  -48.2490 H         1 UNK         0.0600 
    193 H193       -3.4591  -19.1542  -48.4482 H         1 UNK         0.0600 
    194 H194       -2.6570  -19.3933  -46.8978 H         1 UNK         0.0600 
    195 H195       -2.6383  -22.0000  -46.1983 H         1 UNK         0.3000 
    196 H196       -5.1731  -23.1101  -46.7602 H         1 UNK         0.0600 
    197 H197       -4.8092  -24.3961  -44.6600 H         1 UNK         0.0600 
    198 H198       -4.3489  -22.7127  -44.4624 H         1 UNK         0.0600 
    199 H199       -3.1087  -23.9498  -44.6633 H         1 UNK         0.0600 
    200 H200       -1.9059  -24.5792  -47.0308 H         1 UNK         0.3000 
    201 H201       -2.7325  -27.1710  -47.8560 H         1 UNK         0.0600 
    202 H202       -0.4465  -26.6661  -47.0444 H         1 UNK         0.0600 
    203 H203       -0.1446  -25.6371  -48.4424 H         1 UNK         0.0600 
    204 H204       -0.3735  -27.3685  -48.6532 H         1 UNK         0.0600 
    205 H205       -2.5179  -24.1488  -49.6148 H         1 UNK         0.3000 
    206 H206       -3.0497  -25.3818  -52.2471 H         1 UNK         0.0600 
    207 H207       -1.4326  -23.5086  -52.1237 H         1 UNK         0.0600 
    208 H208       -2.8461  -23.0304  -53.0444 H         1 UNK         0.0600 
    209 H209       -2.6477  -22.4686  -51.3926 H         1 UNK         0.0600 
    210 H210       -4.9549  -25.3587  -49.7866 H         1 UNK         0.3000 
    211 H211       -7.1096  -25.3709  -49.3606 H         1 UNK         0.0600 
    212 H212       -7.5080  -25.2758  -52.3958 H         1 UNK         0.0600 
    213 H213       -8.7210  -25.7496  -51.2141 H         1 UNK         0.0600 
    214 H214       -7.2768  -26.7249  -51.4240 H         1 UNK         0.0600 
    215 H215       -5.8953  -22.9850  -49.0109 H         1 UNK         0.3000 
    216 H216       -6.2343  -20.8871  -48.4158 H         1 UNK         0.0600 
    217 H217       -8.4339  -19.8428  -48.2459 H         1 UNK         0.0600 
    218 H218       -8.5466  -21.4943  -47.6587 H         1 UNK         0.0600 
    219 H219       -9.1725  -21.0753  -49.2535 H         1 UNK         0.0600 
    220 H220       -5.0027  -21.4974  -50.6546 H         1 UNK         0.3000 
    221 H221       -4.1417  -20.8182  -52.5670 H         1 UNK         0.0600 
    222 H222       -5.3030  -18.0722  -51.8554 H         1 UNK         0.0600 
    223 H223       -3.7780  -18.7271  -51.2581 H         1 UNK         0.0600 
    224 H224       -3.9749  -18.3765  -52.9655 H         1 UNK         0.0600 
    225 H225       -6.5357  -22.1592  -52.9258 H         1 UNK         0.3000 
    226 H226       -8.1878  -20.7511  -54.9306 H         1 UNK         0.0600 
    227 H227       -9.3270  -22.0674  -53.1927 H         1 UNK         0.0600 
    228 H228       -9.5795  -22.8153  -54.7627 H         1 UNK         0.0600 
    229 H229       -8.4225  -23.5123  -53.6348 H         1 UNK         0.0600 
    230 H230       -6.4173  -20.5109  -56.4064 H         1 UNK         0.3000 
    231 H231       -5.4684  -20.8021  -58.3574 H         1 UNK         0.0600 
    232 H232       -6.9998  -23.4372  -58.6558 H         1 UNK         0.0600 
    233 H233       -6.2096  -22.5397  -59.9417 H         1 UNK         0.0600 
    234 H234       -7.5950  -21.8425  -59.1171 H         1 UNK         0.0600 
    235 H235       -5.2243  -23.6743  -56.3252 H         1 UNK         0.3000 
    236 H236       -2.9052  -24.8682  -57.3963 H         1 UNK         0.0600 
    237 H237       -4.4013  -26.0020  -55.7980 H         1 UNK         0.0600 
    238 H238       -2.7797  -25.9592  -55.1221 H         1 UNK         0.0600 
    239 H239       -4.0051  -24.8381  -54.5381 H         1 UNK         0.0600 
    240 H240       -3.1629  -21.9292  -55.6486 H         1 UNK         0.3000 
    241 H241       -0.4073  -21.7323  -54.7697 H         1 UNK         0.0600 
    242 H242       -1.7706  -21.5062  -57.9851 H         1 UNK         0.3800 
    243 H243       -0.4035  -20.6546  -58.6558 H         1 UNK         0.3800 
    244 H244       -1.5606  -19.0825  -55.0094 H         1 UNK         0.0800 
    245 H245       -2.8508  -20.1019  -54.5046 H         1 UNK         0.0800 
    246 H246        0.9158  -19.2004  -53.7830 H         1 UNK         0.0800 
    247 H247       -0.1736  -17.8842  -53.4166 H         1 UNK         0.0800 
@<TRIPOS>BOND
     1    1    2 1    
     2    1  127 1    
     3    1  128 1    
     4    1  129 1    
     5    2    3 2    
     6    2    4 am   BACKBONE|DICT|INTERRES
     7    4    5 1    
     8    4  130 1    
     9    5    6 1    
    10    5   65 1    
    11    5  131 1    
    12    6    7 1    
    13    6  132 1    
    14    6  133 1    
    15    7    8 1    
    16    8    9 1    
    17    8  134 1    
    18    8  135 1    
    19    9   10 ar   
    20    9   14 ar   
    21   10   11 ar   
    22   10  136 1    
    23   11   12 ar   
    24   11  126 1    
    25   12   13 ar   
    26   12  137 1    
    27   13   14 ar   
    28   13   15 1    
    29   14  138 1    
    30   15   16 1    
    31   15  139 1    
    32   15  140 1    
    33   16   17 1    
    34   17   18 1    
    35   17  141 1    
    36   17  142 1    
    37   18   19 1    
    38   18   67 1    
    39   18  143 1    
    40   19   20 am   BACKBONE|DICT|INTERRES
    41   19  144 1    
    42   20   21 2    
    43   20   22 1    
    44   22   23 1    
    45   22   24 1    
    46   22  145 1    
    47   23  146 1    
    48   23  147 1    
    49   23  148 1    
    50   24   25 am   BACKBONE|DICT|INTERRES
    51   24  149 1    
    52   25   26 2    
    53   25   27 1    
    54   27   28 1    
    55   27   29 1    
    56   27  150 1    
    57   28  151 1    
    58   28  152 1    
    59   28  153 1    
    60   29   30 am   BACKBONE|DICT|INTERRES
    61   29  154 1    
    62   30   31 2    
    63   30   32 1    
    64   32   33 1    
    65   32   34 1    
    66   32  155 1    
    67   33  156 1    
    68   33  157 1    
    69   33  158 1    
    70   34   35 am   BACKBONE|DICT|INTERRES
    71   34  159 1    
    72   35   36 2    
    73   35   37 1    
    74   37   38 1    
    75   37   39 1    
    76   37  160 1    
    77   38  161 1    
    78   38  162 1    
    79   38  163 1    
    80   39   40 am   BACKBONE|DICT|INTERRES
    81   39  164 1    
    82   40   41 2    
    83   40   42 1    
    84   42   43 1    
    85   42   44 1    
    86   42  165 1    
    87   43  166 1    
    88   43  167 1    
    89   43  168 1    
    90   44   45 am   BACKBONE|DICT|INTERRES
    91   44  169 1    
    92   45   46 2    
    93   45   47 1    
    94   47   48 1    
    95   47   49 1    
    96   47  170 1    
    97   48  171 1    
    98   48  172 1    
    99   48  173 1    
   100   49   50 am   BACKBONE|DICT|INTERRES
   101   49  174 1    
   102   50   51 2    
   103   50   52 1    
   104   52   53 1    
   105   52   54 1    
   106   52  175 1    
   107   53  176 1    
   108   53  177 1    
   109   53  178 1    
   110   54   55 am   BACKBONE|DICT|INTERRES
   111   54  179 1    
   112   55   56 2    
   113   55   57 1    
   114   57   58 1    
   115   57   59 1    
   116   57  180 1    
   117   58  181 1    
   118   58  182 1    
   119   58  183 1    
   120   59   60 am   BACKBONE|DICT|INTERRES
   121   59  184 1    
   122   60   61 2    
   123   60   62 1    
   124   62   63 1    
   125   62   64 1    
   126   62  185 1    
   127   63  186 1    
   128   63  187 1    
   129   63  188 1    
   130   64   65 am   BACKBONE|DICT|INTERRES
   131   64  189 1    
   132   65   66 2    
   133   67   68 2    
   134   67   69 am   BACKBONE|DICT|INTERRES
   135   69   70 1    
   136   69  190 1    
   137   70   71 1    
   138   70   72 1    
   139   70  191 1    
   140   71  192 1    
   141   71  193 1    
   142   71  194 1    
   143   72   73 2    
   144   72   74 am   BACKBONE|DICT|INTERRES
   145   74   75 1    
   146   74  195 1    
   147   75   76 1    
   148   75   77 1    
   149   75  196 1    
   150   76  197 1    
   151   76  198 1    
   152   76  199 1    
   153   77   78 2    
   154   77   79 am   BACKBONE|DICT|INTERRES
   155   79   80 1    
   156   79  200 1    
   157   80   81 1    
   158   80   82 1    
   159   80  201 1    
   160   81  202 1    
   161   81  203 1    
   162   81  204 1    
   163   82   83 2    
   164   82   84 am   BACKBONE|DICT|INTERRES
   165   84   85 1    
   166   84  205 1    
   167   85   86 1    
   168   85   87 1    
   169   85  206 1    
   170   86  207 1    
   171   86  208 1    
   172   86  209 1    
   173   87   88 2    
   174   87   89 am   BACKBONE|DICT|INTERRES
   175   89   90 1    
   176   89  210 1    
   177   90   91 1    
   178   90   92 1    
   179   90  211 1    
   180   91  212 1    
   181   91  213 1    
   182   91  214 1    
   183   92   93 2    
   184   92   94 am   BACKBONE|DICT|INTERRES
   185   94   95 1    
   186   94  215 1    
   187   95   96 1    
   188   95   97 1    
   189   95  216 1    
   190   96  217 1    
   191   96  218 1    
   192   96  219 1    
   193   97   98 2    
   194   97   99 am   BACKBONE|DICT|INTERRES
   195   99  100 1    
   196   99  220 1    
   197  100  101 1    
   198  100  102 1    
   199  100  221 1    
   200  101  222 1    
   201  101  223 1    
   202  101  224 1    
   203  102  103 2    
   204  102  104 am   BACKBONE|DICT|INTERRES
   205  104  105 1    
   206  104  225 1    
   207  105  106 1    
   208  105  107 1    
   209  105  226 1    
   210  106  227 1    
   211  106  228 1    
   212  106  229 1    
   213  107  108 2    
   214  107  109 am   BACKBONE|DICT|INTERRES
   215  109  110 1    
   216  109  230 1    
   217  110  111 1    
   218  110  112 1    
   219  110  231 1    
   220  111  232 1    
   221  111  233 1    
   222  111  234 1    
   223  112  113 2    
   224  112  114 am   BACKBONE|DICT|INTERRES
   225  114  115 1    
   226  114  235 1    
   227  115  116 1    
   228  115  117 1    
   229  115  236 1    
   230  116  237 1    
   231  116  238 1    
   232  116  239 1    
   233  117  118 2    
   234  117  119 am   BACKBONE|DICT|INTERRES
   235  119  120 1    
   236  119  240 1    
   237  120  121 1    
   238  120  124 1    
   239  120  241 1    
   240  121  122 am   BACKBONE|DICT|INTERRES
   241  121  123 2    
   242  122  242 1    
   243  122  243 1    
   244  124  125 1    
   245  124  244 1    
   246  124  245 1    
   247  125  126 1    
   248  126  246 1    
   249  126  247 1    
@<TRIPOS>SUBSTRUCTURE
     1 UNK         1 GROUP             0       ****    0 ROOT    
