@<TRIPOS>MOLECULE
3R540
247   249    1
SMALL
USER_CHARGES


@<TRIPOS>ATOM
      1 CA         -6.9514  -14.7544  -49.3730 C.3       0 UNK        -0.1800 
      2 C          -5.4706  -14.4875  -49.1480 C.2       0 UNK         0.5000 
      3 O          -5.1123  -13.4621  -48.5678 O.2       0 UNK        -0.5000 
      4 N          -4.6048  -15.4101  -49.5893 N.am      1 UNK        -0.5000 
      5 CA         -3.1416  -15.3111  -49.4639 C.3       1 UNK         0.1400 
      6 C6         -2.3938  -16.2775  -50.4179 C.3       23 UNK        -0.0398 
      7 S7         -2.8534  -18.0337  -50.2336 S.3       23 UNK        -0.2404 
      8 C8         -1.6119  -18.6037  -49.0367 C.3       23 UNK        -0.0205 
      9 C9         -0.3948  -19.2137  -49.7058 C.ar      23 UNK        -0.0193 
     10 C10         0.7328  -18.4394  -49.9944 C.ar      23 UNK        -0.1150 
     11 C11         1.8645  -19.0232  -50.5741 C.ar      23 UNK        -0.0193 
     12 C12         1.8521  -20.3895  -50.8778 C.ar      23 UNK        -0.1150 
     13 C13         0.7354  -21.1747  -50.5749 C.ar      23 UNK        -0.0193 
     14 C14        -0.3824  -20.5790  -49.9896 C.ar      23 UNK        -0.1150 
     15 C15         0.7338  -22.6740  -50.8386 C.3       23 UNK        -0.0205 
     16 S16         1.9997  -23.5841  -49.8883 S.3       23 UNK        -0.2404 
     17 C17         1.8745  -22.8902  -48.2025 C.3       23 UNK        -0.0398 
     18 CA          0.9712  -23.7048  -47.2446 C.3       11 UNK         0.1400 
     19 N           1.4218  -23.5501  -45.8619 N.am      11 UNK        -0.5000 
     20 C           1.2113  -24.4236  -44.8719 C.2       10 UNK         0.5000 
     21 O           0.6528  -25.5102  -45.0232 O.2       10 UNK        -0.5000 
     22 CA          1.6958  -23.9976  -43.4711 C.3       10 UNK         0.1400 
     23 CB          3.1456  -24.4507  -43.2428 C.3       10 UNK        -0.1800 
     24 N           1.6009  -22.5526  -43.2333 N.am      10 UNK        -0.5000 
     25 C           0.4432  -21.8855  -43.1371 C.2       9 UNK         0.5000 
     26 O          -0.6594  -22.4181  -43.2642 O.2       9 UNK        -0.5000 
     27 CA          0.5213  -20.3668  -42.8828 C.3       9 UNK         0.1400 
     28 CB          0.8533  -20.0903  -41.4082 C.3       9 UNK        -0.1800 
     29 N           1.4301  -19.5867  -43.7354 N.am      9 UNK        -0.5000 
     30 C           1.6453  -19.7230  -45.0527 C.2       8 UNK         0.5000 
     31 O           1.2497  -20.6768  -45.7184 O.2       8 UNK        -0.5000 
     32 CA          2.3997  -18.6004  -45.7814 C.3       8 UNK         0.1400 
     33 CB          1.3922  -17.6951  -46.5034 C.3       8 UNK        -0.1800 
     34 N           3.2163  -17.7768  -44.8890 N.am      8 UNK        -0.5000 
     35 C           4.5496  -17.6599  -44.9678 C.2       7 UNK         0.5000 
     36 O           5.2434  -18.2674  -45.7842 O.2       7 UNK        -0.5000 
     37 CA          5.2381  -16.6959  -43.9793 C.3       7 UNK         0.1400 
     38 CB          5.4829  -15.3335  -44.6458 C.3       7 UNK        -0.1800 
     39 N           4.4812  -16.4910  -42.7448 N.am      7 UNK        -0.5000 
     40 C           4.3095  -17.4214  -41.7958 C.2       6 UNK         0.5000 
     41 O           4.8425  -18.5309  -41.8259 O.2       6 UNK        -0.5000 
     42 CA          3.3647  -17.0738  -40.6274 C.3       6 UNK         0.1400 
     43 CB          4.1763  -16.6692  -39.3874 C.3       6 UNK        -0.1800 
     44 N           2.3774  -16.0243  -40.9068 N.am      6 UNK        -0.5000 
     45 C           1.4729  -16.0209  -41.8961 C.2       5 UNK         0.5000 
     46 O           1.4162  -16.8924  -42.7661 O.2       5 UNK        -0.5000 
     47 CA          0.4601  -14.8591  -41.9293 C.3       5 UNK         0.1400 
     48 CB          0.7120  -13.7579  -40.8743 C.3       5 UNK        -0.1800 
     49 N           0.3396  -14.2700  -43.2635 N.am      5 UNK        -0.5000 
     50 C           1.3016  -13.6715  -43.9837 C.2       4 UNK         0.5000 
     51 O           2.4737  -13.5859  -43.6138 O.2       4 UNK        -0.5000 
     52 CA          0.8972  -13.0499  -45.3413 C.3       4 UNK         0.1400 
     53 CB          1.5036  -13.8460  -46.5061 C.3       4 UNK        -0.1800 
     54 N          -0.5514  -12.9544  -45.5443 N.am      4 UNK        -0.5000 
     55 C          -1.3712  -12.1182  -44.8874 C.2       3 UNK         0.5000 
     56 O          -0.9720  -11.2349  -44.1282 O.2       3 UNK        -0.5000 
     57 CA         -2.8927  -12.3243  -45.0700 C.3       3 UNK         0.1400 
     58 CB         -3.4602  -11.2913  -46.0549 C.3       3 UNK        -0.1800 
     59 N          -3.2638  -13.6654  -45.5314 N.am      3 UNK        -0.5000 
     60 C          -2.9818  -14.8187  -44.9064 C.2       2 UNK         0.5000 
     61 O          -2.4737  -14.8731  -43.7868 O.2       2 UNK        -0.5000 
     62 CA         -3.2468  -16.1313  -45.6734 C.3       2 UNK         0.1400 
     63 CB         -4.4225  -16.8939  -45.0471 C.3       2 UNK        -0.1800 
     64 N          -3.4945  -15.9629  -47.1093 N.am      2 UNK        -0.5000 
     65 C          -2.6432  -15.4381  -48.0054 C.2       1 UNK         0.5000 
     66 O          -1.5150  -15.0405  -47.7111 O.2       1 UNK        -0.5000 
     67 C          -0.5104  -23.2933  -47.3615 C.2       11 UNK         0.5000 
     68 O          -1.2947  -23.9850  -48.0114 O.2       11 UNK        -0.5000 
     69 N          -0.8761  -22.1938  -46.6856 N.am      12 UNK        -0.5000 
     70 CA         -2.2252  -21.6362  -46.6173 C.3       12 UNK         0.1400 
     71 CB         -2.2018  -20.3194  -45.8255 C.3       12 UNK        -0.1800 
     72 C          -3.2522  -22.6021  -46.0118 C.2       12 UNK         0.5000 
     73 O          -4.3789  -22.6531  -46.5007 O.2       12 UNK        -0.5000 
     74 N          -2.8399  -23.3701  -44.9948 N.am      13 UNK        -0.5000 
     75 CA         -3.6445  -24.4141  -44.3603 C.3       13 UNK         0.1400 
     76 CB         -2.8913  -24.9578  -43.1368 C.3       13 UNK        -0.1800 
     77 C          -4.0161  -25.5615  -45.3194 C.2       13 UNK         0.5000 
     78 O          -5.1273  -26.0848  -45.2340 O.2       13 UNK        -0.5000 
     79 N          -3.0933  -25.9170  -46.2237 N.am      14 UNK        -0.5000 
     80 CA         -3.2993  -26.9355  -47.2529 C.3       14 UNK         0.1400 
     81 CB         -1.9361  -27.4630  -47.7274 C.3       14 UNK        -0.1800 
     82 C          -4.1215  -26.3963  -48.4370 C.2       14 UNK         0.5000 
     83 O          -4.9958  -27.0999  -48.9433 O.2       14 UNK        -0.5000 
     84 N          -3.8325  -25.1550  -48.8488 N.am      15 UNK        -0.5000 
     85 CA         -4.4689  -24.4761  -49.9796 C.3       15 UNK         0.1400 
     86 CB         -3.5139  -23.3878  -50.4875 C.3       15 UNK        -0.1800 
     87 C          -5.8459  -23.8605  -49.6606 C.2       15 UNK         0.5000 
     88 O          -6.4881  -23.3366  -50.5716 O.2       15 UNK        -0.5000 
     89 N          -6.2504  -23.8745  -48.3820 N.am      16 UNK        -0.5000 
     90 CA         -7.4503  -23.2390  -47.8211 C.3       16 UNK         0.1400 
     91 CB         -8.7258  -23.9529  -48.3143 C.3       16 UNK        -0.1800 
     92 C          -7.4771  -21.7125  -48.0628 C.2       16 UNK         0.5000 
     93 O          -8.5329  -21.1450  -48.3472 O.2       16 UNK        -0.5000 
     94 N          -6.2893  -21.0930  -47.9752 N.am      17 UNK        -0.5000 
     95 CA         -5.9771  -19.6820  -48.2373 C.3       17 UNK         0.1400 
     96 CB         -6.6798  -18.7741  -47.2074 C.3       17 UNK        -0.1800 
     97 C          -6.2460  -19.2181  -49.6880 C.2       17 UNK         0.5000 
     98 O          -6.2873  -18.0108  -49.9313 O.2       17 UNK        -0.5000 
     99 N          -6.4085  -20.1612  -50.6252 N.am      18 UNK        -0.5000 
    100 CA        -6.8050  -19.9107  -52.0092 C.3       18 UNK         0.1400 
    101 CB        -8.2624  -20.3728  -52.1944 C.3       18 UNK        -0.1800 
    102 C         -5.8310  -20.5889  -52.9878 C.2       18 UNK         0.5000 
    103 O         -6.2626  -21.2361  -53.9445 O.2       18 UNK        -0.5000 
    104 N         -4.5252  -20.4320  -52.7350 N.am      19 UNK        -0.5000 
    105 CA        -3.4600  -20.8952  -53.6250 C.3       19 UNK         0.1400 
    106 CB        -2.1200  -20.8534  -52.8755 C.3       19 UNK        -0.1800 
    107 C         -3.3684  -20.0482  -54.9076 C.2       19 UNK         0.5000 
    108 O         -3.7019  -18.8603  -54.8919 O.2       19 UNK        -0.5000 
    109 N         -2.8603  -20.6669  -55.9790 N.am      20 UNK        -0.5000 
    110 CA        -2.4459  -19.9903  -57.2082 C.3       20 UNK         0.1400 
    111 CB        -2.3891  -21.0267  -58.3420 C.3       20 UNK        -0.1800 
    112 C         -1.0725  -19.3157  -57.0215 C.2       20 UNK         0.5000 
    113 O         -0.3496  -19.6548  -56.0794 O.2       20 UNK        -0.5000 
    114 N         -0.7347  -18.3889  -57.9304 N.am      21 UNK        -0.5000 
    115 CA         0.5049  -17.6017  -57.9902 C.3       21 UNK         0.1400 
    116 CB         1.7178  -18.5009  -58.3160 C.3       21 UNK        -0.1800 
    117 C          0.7100  -16.7382  -56.7289 C.2       21 UNK         0.5000 
    118 O          0.2786  -15.5846  -56.7096 O.2       21 UNK        -0.5000 
    119 N          1.3325  -17.3216  -55.6976 N.am      22 UNK        -0.5000 
    120 CA         1.3964  -16.7796  -54.3326 C.3       22 UNK         0.1400 
    121 C          0.0014  -16.7057  -53.6423 C.2       22 UNK         0.5000 
    122 N         -0.9046  -17.6335  -53.9230 N.am      22 UNK        -0.7600 
    123 O         -0.2707  -15.7796  -52.8844 O.2       22 UNK        -0.5000 
    124 C124        2.4173  -17.5825  -53.4870 C.3       23 UNK        -0.0398 
    125 S125        2.8663  -16.7686  -51.9159 S.3       23 UNK        -0.2404 
    126 C126        3.1244  -18.1990  -50.8162 C.3       23 UNK        -0.0205 
    127 H127       -7.4006  -15.1652  -48.4689 H         1 UNK         0.0600 
    128 H128       -7.4694  -13.8289  -49.6246 H         1 UNK         0.0600 
    129 H129       -7.1109  -15.4600  -50.1882 H         1 UNK         0.0600 
    130 H130       -4.9600  -16.2632  -50.0091 H         1 UNK         0.3000 
    131 H131       -2.8683  -14.3005  -49.7752 H         1 UNK         0.0600 
    132 H132       -2.6159  -15.9955  -51.4476 H         1 UNK         0.0800 
    133 H133       -1.3127  -16.1662  -50.3189 H         1 UNK         0.0800 
    134 H134       -2.0933  -19.3464  -48.4077 H         1 UNK         0.0800 
    135 H135       -1.3043  -17.8027  -48.3672 H         1 UNK         0.0800 
    136 H136        0.7394  -17.3861  -49.7523 H         1 UNK         0.1150 
    137 H137        2.7241  -20.8547  -51.3155 H         1 UNK         0.1150 
    138 H138       -1.2454  -21.1814  -49.7459 H         1 UNK         0.1150 
    139 H139       -0.2412  -23.1038  -50.6062 H         1 UNK         0.0800 
    140 H140        0.8961  -22.8477  -51.9030 H         1 UNK         0.0800 
    141 H141        1.6029  -21.8345  -48.2156 H         1 UNK         0.0800 
    142 H142        2.8972  -22.9002  -47.8224 H         1 UNK         0.0800 
    143 H143        1.0470  -24.7620  -47.5088 H         1 UNK         0.0600 
    144 H144        1.7981  -22.6399  -45.6229 H         1 UNK         0.3000 
    145 H145        1.0624  -24.5025  -42.7385 H         1 UNK         0.0600 
    146 H146        3.4720  -24.2314  -42.2260 H         1 UNK         0.0600 
    147 H147        3.2462  -25.5269  -43.3902 H         1 UNK         0.0600 
    148 H148        3.8343  -23.9590  -43.9309 H         1 UNK         0.0600 
    149 H149        2.4660  -22.0412  -43.1370 H         1 UNK         0.3000 
    150 H150       -0.4776  -19.9693  -43.0671 H         1 UNK         0.0600 
    151 H151        0.2208  -20.6802  -40.7432 H         1 UNK         0.0600 
    152 H152        0.6887  -19.0427  -41.1580 H         1 UNK         0.0600 
    153 H153        1.8912  -20.3332  -41.1777 H         1 UNK         0.0600 
    154 H154        1.7425  -18.7174  -43.3178 H         1 UNK         0.3000 
    155 H155        3.0182  -19.0837  -46.5403 H         1 UNK         0.0600 
    156 H156        0.7769  -17.1330  -45.7995 H         1 UNK         0.0600 
    157 H157        0.7201  -18.2833  -47.1270 H         1 UNK         0.0600 
    158 H158        1.9016  -16.9868  -47.1565 H         1 UNK         0.0600 
    159 H159        2.7182  -17.2570  -44.1730 H         1 UNK         0.3000 
    160 H160        6.2070  -17.1267  -43.7180 H         1 UNK         0.0600 
    161 H161        6.0154  -14.6561  -43.9781 H         1 UNK         0.0600 
    162 H162        4.5471  -14.8540  -44.9345 H         1 UNK         0.0600 
    163 H163        6.0869  -15.4424  -45.5474 H         1 UNK         0.0600 
    164 H164        3.9942  -15.6099  -42.6512 H         1 UNK         0.3000 
    165 H165        2.8106  -17.9823  -40.3864 H         1 UNK         0.0600 
    166 H166        3.5305  -16.5286  -38.5203 H         1 UNK         0.0600 
    167 H167        4.9036  -17.4391  -39.1259 H         1 UNK         0.0600 
    168 H168        4.7254  -15.7414  -39.5527 H         1 UNK         0.0600 
    169 H169        2.3613  -15.2524  -40.2561 H         1 UNK         0.3000 
    170 H170       -0.5103  -15.3063  -41.7103 H         1 UNK         0.0600 
    171 H171        0.6583  -14.1578  -39.8610 H         1 UNK         0.0600 
    172 H172        1.6863  -13.2837  -40.9980 H         1 UNK         0.0600 
    173 H173       -0.0439  -12.9754  -40.9449 H         1 UNK         0.0600 
    174 H174       -0.5913  -14.3329  -43.6624 H         1 UNK         0.3000 
    175 H175        1.3134  -12.0408  -45.3670 H         1 UNK         0.0600 
    176 H176        1.0665  -14.8409  -46.5734 H         1 UNK         0.0600 
    177 H177        1.3310  -13.3436  -47.4580 H         1 UNK         0.0600 
    178 H178        2.5817  -13.9637  -46.3907 H         1 UNK         0.0600 
    179 H179       -0.9585  -13.6357  -46.1756 H         1 UNK         0.3000 
    180 H180       -3.3614  -12.1682  -44.0964 H         1 UNK         0.0600 
    181 H181       -3.0456  -11.4216  -47.0554 H         1 UNK         0.0600 
    182 H182       -3.2313  -10.2745  -45.7328 H         1 UNK         0.0600 
    183 H183       -4.5449  -11.3715  -46.1298 H         1 UNK         0.0600 
    184 H184       -3.6907  -13.7171  -46.4464 H         1 UNK         0.3000 
    185 H185       -2.3491  -16.7441  -45.5670 H         1 UNK         0.0600 
    186 H186       -4.2761  -17.0322  -43.9749 H         1 UNK         0.0600 
    187 H187       -5.3660  -16.3644  -45.1847 H         1 UNK         0.0600 
    188 H188       -4.5220  -17.8855  -45.4847 H         1 UNK         0.0600 
    189 H189       -4.4036  -16.2433  -47.4457 H         1 UNK         0.3000 
    190 H190       -0.1480  -21.6709  -46.2029 H         1 UNK         0.3000 
    191 H191       -2.5412  -21.4284  -47.6399 H         1 UNK         0.0600 
    192 H192       -2.0212  -20.4932  -44.7655 H         1 UNK         0.0600 
    193 H193       -3.1572  -19.8020  -45.9116 H         1 UNK         0.0600 
    194 H194       -1.4269  -19.6427  -46.1848 H         1 UNK         0.0600 
    195 H195       -1.9201  -23.2001  -44.5995 H         1 UNK         0.3000 
    196 H196       -4.5741  -23.9565  -44.0156 H         1 UNK         0.0600 
    197 H197       -3.4636  -25.7420  -42.6397 H         1 UNK         0.0600 
    198 H198       -2.7133  -24.1713  -42.4033 H         1 UNK         0.0600 
    199 H199       -1.9245  -25.3796  -43.4152 H         1 UNK         0.0600 
    200 H200       -2.2175  -25.4134  -46.2496 H         1 UNK         0.3000 
    201 H201       -3.8484  -27.7722  -46.8155 H         1 UNK         0.0600 
    202 H202       -1.3306  -26.6776  -48.1807 H         1 UNK         0.0600 
    203 H203       -1.3675  -27.8856  -46.8987 H         1 UNK         0.0600 
    204 H204       -2.0611  -28.2505  -48.4715 H         1 UNK         0.0600 
    205 H205       -3.0548  -24.6691  -48.4103 H         1 UNK         0.3000 
    206 H206       -4.6171  -25.1992  -50.7843 H         1 UNK         0.0600 
    207 H207       -3.3369  -22.6213  -49.7324 H         1 UNK         0.0600 
    208 H208       -2.5510  -23.8113  -50.7720 H         1 UNK         0.0600 
    209 H209       -3.9254  -22.8968  -51.3690 H         1 UNK         0.0600 
    210 H210       -5.6053  -24.2544  -47.7020 H         1 UNK         0.3000 
    211 H211       -7.3905  -23.3747  -46.7403 H         1 UNK         0.0600 
    212 H212       -8.8831  -23.8097  -49.3838 H         1 UNK         0.0600 
    213 H213       -9.6096  -23.5732  -47.8004 H         1 UNK         0.0600 
    214 H214       -8.6756  -25.0248  -48.1231 H         1 UNK         0.0600 
    215 H215       -5.5084  -21.6660  -47.6650 H         1 UNK         0.3000 
    216 H216       -4.9015  -19.5806  -48.0864 H         1 UNK         0.0600 
    217 H217       -7.7599  -18.7569  -47.3553 H         1 UNK         0.0600 
    218 H218       -6.3281  -17.7451  -47.2845 H         1 UNK         0.0600 
    219 H219       -6.4887  -19.1103  -46.1885 H         1 UNK         0.0600 
    220 H220       -6.3470  -21.1375  -50.3610 H         1 UNK         0.3000 
    221 H221       -6.7616  -18.8434  -52.2349 H         1 UNK         0.0600 
    222 H222       -8.3668  -21.4440  -52.0164 H         1 UNK         0.0600 
    223 H223       -8.9290  -19.8544  -51.5049 H         1 UNK         0.0600 
    224 H224       -8.6173  -20.1669  -53.2049 H         1 UNK         0.0600 
    225 H225       -4.2472  -19.8554  -51.9538 H         1 UNK         0.3000 
    226 H226       -3.6677  -21.9303  -53.9045 H         1 UNK         0.0600 
    227 H227       -2.1208  -21.5309  -52.0253 H         1 UNK         0.0600 
    228 H228       -1.2934  -21.1532  -53.5211 H         1 UNK         0.0600 
    229 H229       -1.8949  -19.8538  -52.5042 H         1 UNK         0.0600 
    230 H230       -2.5671  -21.6285  -55.8883 H         1 UNK         0.3000 
    231 H231       -3.1816  -19.2248  -57.4642 H         1 UNK         0.0600 
    232 H232       -3.3560  -21.5107  -58.4821 H         1 UNK         0.0600 
    233 H233       -1.6507  -21.8040  -58.1407 H         1 UNK         0.0600 
    234 H234       -2.1222  -20.5593  -59.2906 H         1 UNK         0.0600 
    235 H235       -1.4097  -18.1673  -58.6490 H         1 UNK         0.3000 
    236 H236        0.3874  -16.9065  -58.8231 H         1 UNK         0.0600 
    237 H237        2.6366  -17.9148  -58.3597 H         1 UNK         0.0600 
    238 H238        1.8665  -19.2902  -57.5791 H         1 UNK         0.0600 
    239 H239        1.5948  -18.9796  -59.2875 H         1 UNK         0.0600 
    240 H240        1.5760  -18.2969  -55.7995 H         1 UNK         0.3000 
    241 H241        1.7650  -15.7553  -54.4160 H         1 UNK         0.0600 
    242 H242       -0.6871  -18.3784  -54.5748 H         1 UNK         0.3800 
    243 H243       -1.8221  -17.5785  -53.5122 H         1 UNK         0.3800 
    244 H244        3.3418  -17.7146  -54.0506 H         1 UNK         0.0800 
    245 H245        2.0371  -18.5872  -53.2963 H         1 UNK         0.0800 
    246 H246        3.9209  -18.8194  -51.2299 H         1 UNK         0.0800 
    247 H247        3.4897  -17.8367  -49.8543 H         1 UNK         0.0800 
@<TRIPOS>BOND
     1    1    2 1    
     2    1  127 1    
     3    1  128 1    
     4    1  129 1    
     5    2    3 2    
     6    2    4 am   BACKBONE|DICT|INTERRES
     7    4    5 1    
     8    4  130 1    
     9    5    6 1    
    10    5   65 1    
    11    5  131 1    
    12    6    7 1    
    13    6  132 1    
    14    6  133 1    
    15    7    8 1    
    16    8    9 1    
    17    8  134 1    
    18    8  135 1    
    19    9   10 ar   
    20    9   14 ar   
    21   10   11 ar   
    22   10  136 1    
    23   11   12 ar   
    24   11  126 1    
    25   12   13 ar   
    26   12  137 1    
    27   13   14 ar   
    28   13   15 1    
    29   14  138 1    
    30   15   16 1    
    31   15  139 1    
    32   15  140 1    
    33   16   17 1    
    34   17   18 1    
    35   17  141 1    
    36   17  142 1    
    37   18   19 1    
    38   18   67 1    
    39   18  143 1    
    40   19   20 am   BACKBONE|DICT|INTERRES
    41   19  144 1    
    42   20   21 2    
    43   20   22 1    
    44   22   23 1    
    45   22   24 1    
    46   22  145 1    
    47   23  146 1    
    48   23  147 1    
    49   23  148 1    
    50   24   25 am   BACKBONE|DICT|INTERRES
    51   24  149 1    
    52   25   26 2    
    53   25   27 1    
    54   27   28 1    
    55   27   29 1    
    56   27  150 1    
    57   28  151 1    
    58   28  152 1    
    59   28  153 1    
    60   29   30 am   BACKBONE|DICT|INTERRES
    61   29  154 1    
    62   30   31 2    
    63   30   32 1    
    64   32   33 1    
    65   32   34 1    
    66   32  155 1    
    67   33  156 1    
    68   33  157 1    
    69   33  158 1    
    70   34   35 am   BACKBONE|DICT|INTERRES
    71   34  159 1    
    72   35   36 2    
    73   35   37 1    
    74   37   38 1    
    75   37   39 1    
    76   37  160 1    
    77   38  161 1    
    78   38  162 1    
    79   38  163 1    
    80   39   40 am   BACKBONE|DICT|INTERRES
    81   39  164 1    
    82   40   41 2    
    83   40   42 1    
    84   42   43 1    
    85   42   44 1    
    86   42  165 1    
    87   43  166 1    
    88   43  167 1    
    89   43  168 1    
    90   44   45 am   BACKBONE|DICT|INTERRES
    91   44  169 1    
    92   45   46 2    
    93   45   47 1    
    94   47   48 1    
    95   47   49 1    
    96   47  170 1    
    97   48  171 1    
    98   48  172 1    
    99   48  173 1    
   100   49   50 am   BACKBONE|DICT|INTERRES
   101   49  174 1    
   102   50   51 2    
   103   50   52 1    
   104   52   53 1    
   105   52   54 1    
   106   52  175 1    
   107   53  176 1    
   108   53  177 1    
   109   53  178 1    
   110   54   55 am   BACKBONE|DICT|INTERRES
   111   54  179 1    
   112   55   56 2    
   113   55   57 1    
   114   57   58 1    
   115   57   59 1    
   116   57  180 1    
   117   58  181 1    
   118   58  182 1    
   119   58  183 1    
   120   59   60 am   BACKBONE|DICT|INTERRES
   121   59  184 1    
   122   60   61 2    
   123   60   62 1    
   124   62   63 1    
   125   62   64 1    
   126   62  185 1    
   127   63  186 1    
   128   63  187 1    
   129   63  188 1    
   130   64   65 am   BACKBONE|DICT|INTERRES
   131   64  189 1    
   132   65   66 2    
   133   67   68 2    
   134   67   69 am   BACKBONE|DICT|INTERRES
   135   69   70 1    
   136   69  190 1    
   137   70   71 1    
   138   70   72 1    
   139   70  191 1    
   140   71  192 1    
   141   71  193 1    
   142   71  194 1    
   143   72   73 2    
   144   72   74 am   BACKBONE|DICT|INTERRES
   145   74   75 1    
   146   74  195 1    
   147   75   76 1    
   148   75   77 1    
   149   75  196 1    
   150   76  197 1    
   151   76  198 1    
   152   76  199 1    
   153   77   78 2    
   154   77   79 am   BACKBONE|DICT|INTERRES
   155   79   80 1    
   156   79  200 1    
   157   80   81 1    
   158   80   82 1    
   159   80  201 1    
   160   81  202 1    
   161   81  203 1    
   162   81  204 1    
   163   82   83 2    
   164   82   84 am   BACKBONE|DICT|INTERRES
   165   84   85 1    
   166   84  205 1    
   167   85   86 1    
   168   85   87 1    
   169   85  206 1    
   170   86  207 1    
   171   86  208 1    
   172   86  209 1    
   173   87   88 2    
   174   87   89 am   BACKBONE|DICT|INTERRES
   175   89   90 1    
   176   89  210 1    
   177   90   91 1    
   178   90   92 1    
   179   90  211 1    
   180   91  212 1    
   181   91  213 1    
   182   91  214 1    
   183   92   93 2    
   184   92   94 am   BACKBONE|DICT|INTERRES
   185   94   95 1    
   186   94  215 1    
   187   95   96 1    
   188   95   97 1    
   189   95  216 1    
   190   96  217 1    
   191   96  218 1    
   192   96  219 1    
   193   97   98 2    
   194   97   99 am   BACKBONE|DICT|INTERRES
   195   99  100 1    
   196   99  220 1    
   197  100  101 1    
   198  100  102 1    
   199  100  221 1    
   200  101  222 1    
   201  101  223 1    
   202  101  224 1    
   203  102  103 2    
   204  102  104 am   BACKBONE|DICT|INTERRES
   205  104  105 1    
   206  104  225 1    
   207  105  106 1    
   208  105  107 1    
   209  105  226 1    
   210  106  227 1    
   211  106  228 1    
   212  106  229 1    
   213  107  108 2    
   214  107  109 am   BACKBONE|DICT|INTERRES
   215  109  110 1    
   216  109  230 1    
   217  110  111 1    
   218  110  112 1    
   219  110  231 1    
   220  111  232 1    
   221  111  233 1    
   222  111  234 1    
   223  112  113 2    
   224  112  114 am   BACKBONE|DICT|INTERRES
   225  114  115 1    
   226  114  235 1    
   227  115  116 1    
   228  115  117 1    
   229  115  236 1    
   230  116  237 1    
   231  116  238 1    
   232  116  239 1    
   233  117  118 2    
   234  117  119 am   BACKBONE|DICT|INTERRES
   235  119  120 1    
   236  119  240 1    
   237  120  121 1    
   238  120  124 1    
   239  120  241 1    
   240  121  122 am   BACKBONE|DICT|INTERRES
   241  121  123 2    
   242  122  242 1    
   243  122  243 1    
   244  124  125 1    
   245  124  244 1    
   246  124  245 1    
   247  125  126 1    
   248  126  246 1    
   249  126  247 1    
@<TRIPOS>SUBSTRUCTURE
     1 UNK         1 GROUP             0       ****    0 ROOT    
