@<TRIPOS>MOLECULE
3R540
247   249    1
SMALL
USER_CHARGES


@<TRIPOS>ATOM
      1 CA         -1.8192  -11.6964  -45.9426 C.3       0 UNK        -0.1800 
      2 C          -0.3262  -11.9941  -45.9376 C.2       0 UNK         0.5000 
      3 O           0.2324  -12.2500  -44.8732 O.2       0 UNK        -0.5000 
      4 N           0.3001  -11.9701  -47.1228 N.am      1 UNK        -0.5000 
      5 CA          1.7236  -12.2234  -47.3979 C.3       1 UNK         0.1400 
      6 C6          2.2237  -13.6187  -46.9271 C.3       23 UNK        -0.0398 
      7 S7          1.3331  -14.9931  -47.7262 S.3       23 UNK        -0.2404 
      8 C8          2.3721  -15.2884  -49.1872 C.3       23 UNK        -0.0205 
      9 C9          1.9395  -16.5523  -49.9105 C.ar      23 UNK        -0.0193 
     10 C10         0.9589  -16.5041  -50.9069 C.ar      23 UNK        -0.1150 
     11 C11         0.5591  -17.6698  -51.5699 C.ar      23 UNK        -0.0193 
     12 C12         1.1633  -18.8857  -51.2326 C.ar      23 UNK        -0.1150 
     13 C13         2.1237  -18.9495  -50.2213 C.ar      23 UNK        -0.0193 
     14 C14         2.5173  -17.7777  -49.5718 C.ar      23 UNK        -0.1150 
     15 C15         2.7108  -20.2893  -49.8079 C.3       23 UNK        -0.0205 
     16 S16         2.1696  -20.7677  -48.1368 S.3       23 UNK        -0.2404 
     17 C17         0.3492  -20.7541  -48.3030 C.3       23 UNK        -0.0398 
     18 CA         -0.2919  -21.9016  -47.4947 C.3       11 UNK         0.1400 
     19 N          -0.1441  -21.7111  -46.0498 N.am      11 UNK        -0.5000 
     20 C          -0.3643  -22.6661  -45.1378 C.2       10 UNK         0.5000 
     21 O          -0.7105  -23.8131  -45.4209 O.2       10 UNK        -0.5000 
     22 CA         -0.2156  -22.2616  -43.6609 C.3       10 UNK         0.1400 
     23 CB          1.2651  -22.1652  -43.2640 C.3       10 UNK        -0.1800 
     24 N          -0.8968  -21.0035  -43.3530 N.am      10 UNK        -0.5000 
     25 C          -2.2227  -20.8241  -43.4439 C.2       9 UNK         0.5000 
     26 O          -3.0116  -21.7135  -43.7635 O.2       9 UNK        -0.5000 
     27 CA         -2.7588  -19.4077  -43.1685 C.3       9 UNK         0.1400 
     28 CB         -2.8507  -19.1445  -41.6582 C.3       9 UNK        -0.1800 
     29 N          -1.9611  -18.3571  -43.8001 N.am      9 UNK        -0.5000 
     30 C          -1.7599  -18.2321  -45.1199 C.2       8 UNK         0.5000 
     31 O          -2.2342  -18.9904  -45.9620 O.2       8 UNK        -0.5000 
     32 CA         -0.8135  -17.1071  -45.5690 C.3       8 UNK         0.1400 
     33 CB         -1.5090  -15.7386  -45.4840 C.3       8 UNK        -0.1800 
     34 N           0.4251  -17.0933  -44.7902 N.am      8 UNK        -0.5000 
     35 C           1.2974  -18.1116  -44.7377 C.2       7 UNK         0.5000 
     36 O           1.1657  -19.1654  -45.3583 O.2       7 UNK        -0.5000 
     37 CA          2.4797  -17.9493  -43.7708 C.3       7 UNK         0.1400 
     38 CB          3.5832  -17.0784  -44.3935 C.3       7 UNK        -0.1800 
     39 N           2.0435  -17.3811  -42.4945 N.am      7 UNK        -0.5000 
     40 C           1.2931  -18.0447  -41.5998 C.2       6 UNK         0.5000 
     41 O           0.9420  -19.2162  -41.7400 O.2       6 UNK        -0.5000 
     42 CA          0.8157  -17.2615  -40.3611 C.3       6 UNK         0.1400 
     43 CB          1.8667  -17.3275  -39.2432 C.3       6 UNK        -0.1800 
     44 N           0.5137  -15.8611  -40.6546 N.am      6 UNK        -0.5000 
     45 C          -0.4425  -15.4445  -41.4965 C.2       5 UNK         0.5000 
     46 O          -1.2450  -16.2032  -42.0383 O.2       5 UNK        -0.5000 
     47 CA         -0.4824  -13.9390  -41.8269 C.3       5 UNK         0.1400 
     48 CB         -1.5870  -13.2401  -41.0211 C.3       5 UNK        -0.1800 
     49 N           0.7906  -13.2434  -41.6042 N.am      5 UNK        -0.5000 
     50 C           1.9352  -13.5147  -42.2450 C.2       4 UNK         0.5000 
     51 O           2.0618  -14.4189  -43.0765 O.2       4 UNK        -0.5000 
     52 CA          3.1594  -12.6915  -41.8275 C.3       4 UNK         0.1400 
     53 CB          3.7236  -13.2243  -40.4944 C.3       4 UNK        -0.1800 
     54 N           4.1598  -12.7945  -42.8833 N.am      4 UNK        -0.5000 
     55 C           5.2759  -12.0667  -42.9920 C.2       3 UNK         0.5000 
     56 O           5.6026  -11.1860  -42.1953 O.2       3 UNK        -0.5000 
     57 CA          6.1725  -12.3704  -44.2061 C.3       3 UNK         0.1400 
     58 CB          6.3980  -13.8814  -44.4053 C.3       3 UNK        -0.1800 
     59 N           5.6127  -11.8011  -45.4297 N.am      3 UNK        -0.5000 
     60 C           5.6128  -10.4985  -45.7487 C.2       2 UNK         0.5000 
     61 O           6.1366   -9.6218  -45.0608 O.2       2 UNK        -0.5000 
     62 CA          4.9221  -10.1079  -47.0705 C.3       2 UNK         0.1400 
     63 CB          5.9520  -10.0157  -48.2072 C.3       2 UNK        -0.1800 
     64 N           3.8659  -11.0469  -47.4592 N.am      2 UNK        -0.5000 
     65 C           2.6544  -11.0984  -46.8876 C.2       1 UNK         0.5000 
     66 O           2.2897  -10.3061  -46.0162 O.2       1 UNK        -0.5000 
     67 C          -1.7592  -22.1439  -47.9038 C.2       11 UNK         0.5000 
     68 O          -1.9989  -22.9829  -48.7714 O.2       11 UNK        -0.5000 
     69 N          -2.7108  -21.4648  -47.2459 N.am      12 UNK        -0.5000 
     70 CA         -4.1498  -21.6786  -47.4087 C.3       12 UNK         0.1400 
     71 CB         -4.9337  -20.6042  -46.6409 C.3       12 UNK        -0.1800 
     72 C          -4.5896  -23.0837  -46.9648 C.2       12 UNK         0.5000 
     73 O          -5.3479  -23.7335  -47.6841 O.2       12 UNK        -0.5000 
     74 N          -4.0819  -23.5405  -45.8101 N.am      13 UNK        -0.5000 
     75 CA         -4.3217  -24.8796  -45.2669 C.3       13 UNK         0.1400 
     76 CB         -3.7823  -24.9574  -43.8308 C.3       13 UNK        -0.1800 
     77 C          -3.7174  -25.9951  -46.1401 C.2       13 UNK         0.5000 
     78 O          -4.3443  -27.0416  -46.3095 O.2       13 UNK        -0.5000 
     79 N          -2.5294  -25.7393  -46.7046 N.am      14 UNK        -0.5000 
     80 CA         -1.8584  -26.6115  -47.6708 C.3       14 UNK         0.1400 
     81 CB         -0.3857  -26.1868  -47.7822 C.3       14 UNK        -0.1800 
     82 C          -2.5196  -26.6068  -49.0652 C.2       14 UNK         0.5000 
     83 O          -2.2713  -27.5261  -49.8460 O.2       14 UNK        -0.5000 
     84 N          -3.3263  -25.5734  -49.3500 N.am      15 UNK        -0.5000 
     85 CA         -3.9700  -25.2515  -50.6248 C.3       15 UNK         0.1400 
     86 CB         -5.0367  -26.3023  -50.9924 C.3       15 UNK        -0.1800 
     87 C          -2.9278  -25.0185  -51.7352 C.2       15 UNK         0.5000 
     88 O          -2.9655  -25.6735  -52.7785 O.2       15 UNK        -0.5000 
     89 N          -1.9965  -24.0928  -51.4689 N.am      16 UNK        -0.5000 
     90 CA         -0.8348  -23.7670  -52.3011 C.3       16 UNK         0.1400 
     91 CB         -0.0324  -22.6526  -51.6158 C.3       16 UNK        -0.1800 
     92 C          -1.1626  -23.3775  -53.7565 C.2       16 UNK         0.5000 
     93 O          -0.3899  -23.7120  -54.6552 O.2       16 UNK        -0.5000 
     94 N          -2.3066  -22.7134  -53.9637 N.am      17 UNK        -0.5000 
     95 CA         -2.8371  -22.3470  -55.2805 C.3       17 UNK         0.1400 
     96 CB         -3.0909  -20.8316  -55.3298 C.3       17 UNK        -0.1800 
     97 C          -4.0889  -23.1684  -55.6471 C.2       17 UNK         0.5000 
     98 O          -4.9462  -22.6769  -56.3837 O.2       17 UNK        -0.5000 
     99 N          -4.1871  -24.4007  -55.1247 N.am      18 UNK        -0.5000 
    100 CA        -5.2341  -25.3933  -55.3858 C.3       18 UNK         0.1400 
    101 CB        -5.0937  -25.9527  -56.8194 C.3       18 UNK        -0.1800 
    102 C         -6.6385  -24.8481  -55.0581 C.2       18 UNK         0.5000 
    103 O         -6.9311  -24.6261  -53.8837 O.2       18 UNK        -0.5000 
    104 N         -7.4645  -24.6124  -56.0866 N.am      19 UNK        -0.5000 
    105 CA        -8.8168  -24.0621  -55.9755 C.3       19 UNK         0.1400 
    106 CB        -9.5133  -24.1653  -57.3409 C.3       19 UNK        -0.1800 
    107 C         -8.8579  -22.6108  -55.4569 C.2       19 UNK         0.5000 
    108 O         -9.8219  -22.2423  -54.7848 O.2       19 UNK        -0.5000 
    109 N         -7.8173  -21.8187  -55.7570 N.am      20 UNK        -0.5000 
    110 CA        -7.6490  -20.4607  -55.2290 C.3       20 UNK         0.1400 
    111 CB        -6.7755  -19.6444  -56.1924 C.3       20 UNK        -0.1800 
    112 C         -7.0468  -20.4630  -53.8104 C.2       20 UNK         0.5000 
    113 O         -7.2344  -19.4989  -53.0682 O.2       20 UNK        -0.5000 
    114 N         -6.3427  -21.5507  -53.4673 N.am      21 UNK        -0.5000 
    115 CA        -5.7557  -21.9417  -52.1810 C.3       21 UNK         0.1400 
    116 CB        -6.8584  -22.1928  -51.1370 C.3       21 UNK        -0.1800 
    117 C         -4.6617  -21.0266  -51.5964 C.2       21 UNK         0.5000 
    118 O         -3.7546  -21.5567  -50.9621 O.2       21 UNK        -0.5000 
    119 N         -4.7610  -19.7097  -51.8083 N.am      22 UNK        -0.5000 
    120 CA        -4.0353  -18.6275  -51.1095 C.3       22 UNK         0.1400 
    121 C         -4.6778  -18.2394  -49.7431 C.2       22 UNK         0.5000 
    122 N         -5.8903  -18.6829  -49.4298 N.am      22 UNK        -0.7600 
    123 O         -4.0925  -17.4890  -48.9680 O.2       22 UNK        -0.5000 
    124 C124       -2.4914  -18.8038  -51.0047 C.3       23 UNK        -0.0398 
    125 S125       -1.6848  -19.0025  -52.6276 S.3       23 UNK        -0.2404 
    126 C126       -0.5163  -17.5985  -52.6521 C.3       23 UNK        -0.0205 
    127 H127       -2.3697  -12.5417  -45.5292 H         1 UNK         0.0600 
    128 H128       -2.1934  -11.5065  -46.9488 H         1 UNK         0.0600 
    129 H129       -2.0283  -10.8196  -45.3297 H         1 UNK         0.0600 
    130 H130       -0.2433  -11.7326  -47.9401 H         1 UNK         0.3000 
    131 H131        1.8034  -12.1990  -48.4860 H         1 UNK         0.0600 
    132 H132        3.2884  -13.7464  -47.1256 H         1 UNK         0.0800 
    133 H133        2.1153  -13.7274  -45.8471 H         1 UNK         0.0800 
    134 H134        2.3119  -14.4305  -49.8584 H         1 UNK         0.0800 
    135 H135        3.4171  -15.3764  -48.8861 H         1 UNK         0.0800 
    136 H136        0.5042  -15.5568  -51.1608 H         1 UNK         0.1150 
    137 H137        0.8676  -19.7909  -51.7424 H         1 UNK         0.1150 
    138 H138        3.2576  -17.8254  -48.7853 H         1 UNK         0.1150 
    139 H139        2.4345  -21.0740  -50.5136 H         1 UNK         0.0800 
    140 H140        3.7997  -20.2276  -49.8259 H         1 UNK         0.0800 
    141 H141        0.0923  -20.8409  -49.3586 H         1 UNK         0.0800 
    142 H142       -0.0308  -19.7850  -47.9740 H         1 UNK         0.0800 
    143 H143        0.2449  -22.8174  -47.7518 H         1 UNK         0.0600 
    144 H144        0.1754  -20.7948  -45.7451 H         1 UNK         0.3000 
    145 H145       -0.6761  -23.0456  -43.0562 H         1 UNK         0.0600 
    146 H146        1.3742  -21.9738  -42.1965 H         1 UNK         0.0600 
    147 H147        1.7761  -21.3652  -43.8004 H         1 UNK         0.0600 
    148 H148        1.7898  -23.0959  -43.4831 H         1 UNK         0.0600 
    149 H149       -0.3124  -20.2308  -43.0525 H         1 UNK         0.3000 
    150 H150       -3.7661  -19.3487  -43.5852 H         1 UNK         0.0600 
    151 H151       -3.4620  -19.9018  -41.1659 H         1 UNK         0.0600 
    152 H152       -3.3057  -18.1751  -41.4542 H         1 UNK         0.0600 
    153 H153       -1.8674  -19.1575  -41.1872 H         1 UNK         0.0600 
    154 H154       -1.5565  -17.6601  -43.1794 H         1 UNK         0.3000 
    155 H155       -0.5435  -17.2889  -46.6115 H         1 UNK         0.0600 
    156 H156       -2.3575  -15.6960  -46.1679 H         1 UNK         0.0600 
    157 H157       -0.8320  -14.9308  -45.7557 H         1 UNK         0.0600 
    158 H158       -1.8873  -15.5298  -44.4842 H         1 UNK         0.0600 
    159 H159        0.6113  -16.2694  -44.2363 H         1 UNK         0.3000 
    160 H160        2.8993  -18.9391  -43.5782 H         1 UNK         0.0600 
    161 H161        3.2105  -16.0995  -44.6952 H         1 UNK         0.0600 
    162 H162        3.9908  -17.5552  -45.2857 H         1 UNK         0.0600 
    163 H163        4.4090  -16.9256  -43.6987 H         1 UNK         0.0600 
    164 H164        2.2263  -16.3947  -42.3549 H         1 UNK         0.3000 
    165 H165       -0.0999  -17.7346  -40.0005 H         1 UNK         0.0600 
    166 H166        1.5076  -16.8437  -38.3348 H         1 UNK         0.0600 
    167 H167        2.1004  -18.3622  -38.9886 H         1 UNK         0.0600 
    168 H168        2.7988  -16.8428  -39.5368 H         1 UNK         0.0600 
    169 H169        1.1222  -15.1684  -40.2456 H         1 UNK         0.3000 
    170 H170       -0.7263  -13.8513  -42.8873 H         1 UNK         0.0600 
    171 H171       -1.3835  -13.2690  -39.9500 H         1 UNK         0.0600 
    172 H172       -1.6902  -12.1961  -41.3175 H         1 UNK         0.0600 
    173 H173       -2.5531  -13.7194  -41.1855 H         1 UNK         0.0600 
    174 H174        0.7763  -12.4955  -40.9260 H         1 UNK         0.3000 
    175 H175        2.8613  -11.6467  -41.7200 H         1 UNK         0.0600 
    176 H176        4.0538  -14.2601  -40.5853 H         1 UNK         0.0600 
    177 H177        4.5727  -12.6335  -40.1517 H         1 UNK         0.0600 
    178 H178        2.9731  -13.1868  -39.7041 H         1 UNK         0.0600 
    179 H179        3.9329  -13.4891  -43.5834 H         1 UNK         0.3000 
    180 H180        7.1459  -11.9111  -44.0203 H         1 UNK         0.0600 
    181 H181        7.1479  -14.0646  -45.1750 H         1 UNK         0.0600 
    182 H182        5.4869  -14.4017  -44.7028 H         1 UNK         0.0600 
    183 H183        6.7587  -14.3470  -43.4870 H         1 UNK         0.0600 
    184 H184        5.1633  -12.4434  -46.0627 H         1 UNK         0.3000 
    185 H185        4.4797   -9.1186  -46.9337 H         1 UNK         0.0600 
    186 H186        5.4880   -9.6772  -49.1338 H         1 UNK         0.0600 
    187 H187        6.7411   -9.3034  -47.9620 H         1 UNK         0.0600 
    188 H188        6.4277  -10.9780  -48.4006 H         1 UNK         0.0600 
    189 H189        4.0952  -11.6935  -48.2004 H         1 UNK         0.3000 
    190 H190       -2.4368  -20.7338  -46.5933 H         1 UNK         0.3000 
    191 H191       -4.3864  -21.5723  -48.4674 H         1 UNK         0.0600 
    192 H192       -4.6625  -19.6037  -46.9755 H         1 UNK         0.0600 
    193 H193       -4.7490  -20.6562  -45.5682 H         1 UNK         0.0600 
    194 H194       -6.0069  -20.7195  -46.7966 H         1 UNK         0.0600 
    195 H195       -3.5016  -22.9220  -45.2505 H         1 UNK         0.3000 
    196 H196       -5.4017  -25.0363  -45.2317 H         1 UNK         0.0600 
    197 H197       -4.2700  -24.2251  -43.1872 H         1 UNK         0.0600 
    198 H198       -2.7085  -24.7721  -43.7925 H         1 UNK         0.0600 
    199 H199       -3.9622  -25.9422  -43.3979 H         1 UNK         0.0600 
    200 H200       -2.0423  -24.8857  -46.4477 H         1 UNK         0.3000 
    201 H201       -1.8918  -27.6351  -47.2920 H         1 UNK         0.0600 
    202 H202        0.1108  -26.2217  -46.8123 H         1 UNK         0.0600 
    203 H203       -0.2903  -25.1730  -48.1717 H         1 UNK         0.0600 
    204 H204        0.1633  -26.8486  -48.4531 H         1 UNK         0.0600 
    205 H205       -3.4160  -24.8575  -48.6406 H         1 UNK         0.3000 
    206 H206       -4.4826  -24.3012  -50.4721 H         1 UNK         0.0600 
    207 H207       -4.5973  -27.2804  -51.1894 H         1 UNK         0.0600 
    208 H208       -5.7666  -26.4165  -50.1910 H         1 UNK         0.0600 
    209 H209       -5.5820  -26.0030  -51.8879 H         1 UNK         0.0600 
    210 H210       -2.0602  -23.6006  -50.5794 H         1 UNK         0.3000 
    211 H211       -0.2096  -24.6611  -52.3402 H         1 UNK         0.0600 
    212 H212       -0.6415  -21.7588  -51.4754 H         1 UNK         0.0600 
    213 H213        0.8389  -22.3710  -52.2084 H         1 UNK         0.0600 
    214 H214        0.3283  -22.9729  -50.6382 H         1 UNK         0.0600 
    215 H215       -2.8608  -22.4672  -53.1556 H         1 UNK         0.3000 
    216 H216       -2.1051  -22.5710  -56.0585 H         1 UNK         0.0600 
    217 H217       -3.4650  -20.5237  -56.3064 H         1 UNK         0.0600 
    218 H218       -2.1648  -20.2822  -55.1676 H         1 UNK         0.0600 
    219 H219       -3.8122  -20.5125  -54.5779 H         1 UNK         0.0600 
    220 H220       -3.4743  -24.7055  -54.4689 H         1 UNK         0.3000 
    221 H221       -5.0593  -26.2173  -54.6924 H         1 UNK         0.0600 
    222 H222       -5.1995  -25.1790  -57.5805 H         1 UNK         0.0600 
    223 H223       -4.1165  -26.4153  -56.9584 H         1 UNK         0.0600 
    224 H224       -5.8410  -26.7224  -57.0172 H         1 UNK         0.0600 
    225 H225       -7.1277  -24.7958  -57.0206 H         1 UNK         0.3000 
    226 H226       -9.3694  -24.6790  -55.2637 H         1 UNK         0.0600 
    227 H227       -9.5683  -25.2003  -57.6790 H         1 UNK         0.0600 
    228 H228      -10.5353  -23.7875  -57.2878 H         1 UNK         0.0600 
    229 H229       -8.9894  -23.5888  -58.1044 H         1 UNK         0.0600 
    230 H230       -7.0450  -22.1980  -56.2942 H         1 UNK         0.3000 
    231 H231       -8.6246  -19.9732  -55.1699 H         1 UNK         0.0600 
    232 H232       -6.6307  -18.6277  -55.8248 H         1 UNK         0.0600 
    233 H233       -7.2391  -19.5714  -57.1762 H         1 UNK         0.0600 
    234 H234       -5.7906  -20.0905  -56.3209 H         1 UNK         0.0600 
    235 H235       -6.2884  -22.2687  -54.1760 H         1 UNK         0.3000 
    236 H236       -5.2728  -22.9003  -52.3748 H         1 UNK         0.0600 
    237 H237       -7.4288  -21.2892  -50.9214 H         1 UNK         0.0600 
    238 H238       -7.5569  -22.9549  -51.4834 H         1 UNK         0.0600 
    239 H239       -6.4355  -22.5461  -50.1953 H         1 UNK         0.0600 
    240 H240       -5.5709  -19.4051  -52.3431 H         1 UNK         0.3000 
    241 H241       -4.1999  -17.7471  -51.7313 H         1 UNK         0.0600 
    242 H242       -6.4129  -19.2542  -50.0728 H         1 UNK         0.3800 
    243 H243       -6.3046  -18.4008  -48.5562 H         1 UNK         0.3800 
    244 H244       -2.0510  -17.9371  -50.5098 H         1 UNK         0.0800 
    245 H245       -2.2314  -19.6543  -50.3743 H         1 UNK         0.0800 
    246 H246       -1.0862  -16.6719  -52.5667 H         1 UNK         0.0800 
    247 H247       -0.0252  -17.5716  -53.6254 H         1 UNK         0.0800 
@<TRIPOS>BOND
     1    1    2 1    
     2    1  127 1    
     3    1  128 1    
     4    1  129 1    
     5    2    3 2    
     6    2    4 am   BACKBONE|DICT|INTERRES
     7    4    5 1    
     8    4  130 1    
     9    5    6 1    
    10    5   65 1    
    11    5  131 1    
    12    6    7 1    
    13    6  132 1    
    14    6  133 1    
    15    7    8 1    
    16    8    9 1    
    17    8  134 1    
    18    8  135 1    
    19    9   10 ar   
    20    9   14 ar   
    21   10   11 ar   
    22   10  136 1    
    23   11   12 ar   
    24   11  126 1    
    25   12   13 ar   
    26   12  137 1    
    27   13   14 ar   
    28   13   15 1    
    29   14  138 1    
    30   15   16 1    
    31   15  139 1    
    32   15  140 1    
    33   16   17 1    
    34   17   18 1    
    35   17  141 1    
    36   17  142 1    
    37   18   19 1    
    38   18   67 1    
    39   18  143 1    
    40   19   20 am   BACKBONE|DICT|INTERRES
    41   19  144 1    
    42   20   21 2    
    43   20   22 1    
    44   22   23 1    
    45   22   24 1    
    46   22  145 1    
    47   23  146 1    
    48   23  147 1    
    49   23  148 1    
    50   24   25 am   BACKBONE|DICT|INTERRES
    51   24  149 1    
    52   25   26 2    
    53   25   27 1    
    54   27   28 1    
    55   27   29 1    
    56   27  150 1    
    57   28  151 1    
    58   28  152 1    
    59   28  153 1    
    60   29   30 am   BACKBONE|DICT|INTERRES
    61   29  154 1    
    62   30   31 2    
    63   30   32 1    
    64   32   33 1    
    65   32   34 1    
    66   32  155 1    
    67   33  156 1    
    68   33  157 1    
    69   33  158 1    
    70   34   35 am   BACKBONE|DICT|INTERRES
    71   34  159 1    
    72   35   36 2    
    73   35   37 1    
    74   37   38 1    
    75   37   39 1    
    76   37  160 1    
    77   38  161 1    
    78   38  162 1    
    79   38  163 1    
    80   39   40 am   BACKBONE|DICT|INTERRES
    81   39  164 1    
    82   40   41 2    
    83   40   42 1    
    84   42   43 1    
    85   42   44 1    
    86   42  165 1    
    87   43  166 1    
    88   43  167 1    
    89   43  168 1    
    90   44   45 am   BACKBONE|DICT|INTERRES
    91   44  169 1    
    92   45   46 2    
    93   45   47 1    
    94   47   48 1    
    95   47   49 1    
    96   47  170 1    
    97   48  171 1    
    98   48  172 1    
    99   48  173 1    
   100   49   50 am   BACKBONE|DICT|INTERRES
   101   49  174 1    
   102   50   51 2    
   103   50   52 1    
   104   52   53 1    
   105   52   54 1    
   106   52  175 1    
   107   53  176 1    
   108   53  177 1    
   109   53  178 1    
   110   54   55 am   BACKBONE|DICT|INTERRES
   111   54  179 1    
   112   55   56 2    
   113   55   57 1    
   114   57   58 1    
   115   57   59 1    
   116   57  180 1    
   117   58  181 1    
   118   58  182 1    
   119   58  183 1    
   120   59   60 am   BACKBONE|DICT|INTERRES
   121   59  184 1    
   122   60   61 2    
   123   60   62 1    
   124   62   63 1    
   125   62   64 1    
   126   62  185 1    
   127   63  186 1    
   128   63  187 1    
   129   63  188 1    
   130   64   65 am   BACKBONE|DICT|INTERRES
   131   64  189 1    
   132   65   66 2    
   133   67   68 2    
   134   67   69 am   BACKBONE|DICT|INTERRES
   135   69   70 1    
   136   69  190 1    
   137   70   71 1    
   138   70   72 1    
   139   70  191 1    
   140   71  192 1    
   141   71  193 1    
   142   71  194 1    
   143   72   73 2    
   144   72   74 am   BACKBONE|DICT|INTERRES
   145   74   75 1    
   146   74  195 1    
   147   75   76 1    
   148   75   77 1    
   149   75  196 1    
   150   76  197 1    
   151   76  198 1    
   152   76  199 1    
   153   77   78 2    
   154   77   79 am   BACKBONE|DICT|INTERRES
   155   79   80 1    
   156   79  200 1    
   157   80   81 1    
   158   80   82 1    
   159   80  201 1    
   160   81  202 1    
   161   81  203 1    
   162   81  204 1    
   163   82   83 2    
   164   82   84 am   BACKBONE|DICT|INTERRES
   165   84   85 1    
   166   84  205 1    
   167   85   86 1    
   168   85   87 1    
   169   85  206 1    
   170   86  207 1    
   171   86  208 1    
   172   86  209 1    
   173   87   88 2    
   174   87   89 am   BACKBONE|DICT|INTERRES
   175   89   90 1    
   176   89  210 1    
   177   90   91 1    
   178   90   92 1    
   179   90  211 1    
   180   91  212 1    
   181   91  213 1    
   182   91  214 1    
   183   92   93 2    
   184   92   94 am   BACKBONE|DICT|INTERRES
   185   94   95 1    
   186   94  215 1    
   187   95   96 1    
   188   95   97 1    
   189   95  216 1    
   190   96  217 1    
   191   96  218 1    
   192   96  219 1    
   193   97   98 2    
   194   97   99 am   BACKBONE|DICT|INTERRES
   195   99  100 1    
   196   99  220 1    
   197  100  101 1    
   198  100  102 1    
   199  100  221 1    
   200  101  222 1    
   201  101  223 1    
   202  101  224 1    
   203  102  103 2    
   204  102  104 am   BACKBONE|DICT|INTERRES
   205  104  105 1    
   206  104  225 1    
   207  105  106 1    
   208  105  107 1    
   209  105  226 1    
   210  106  227 1    
   211  106  228 1    
   212  106  229 1    
   213  107  108 2    
   214  107  109 am   BACKBONE|DICT|INTERRES
   215  109  110 1    
   216  109  230 1    
   217  110  111 1    
   218  110  112 1    
   219  110  231 1    
   220  111  232 1    
   221  111  233 1    
   222  111  234 1    
   223  112  113 2    
   224  112  114 am   BACKBONE|DICT|INTERRES
   225  114  115 1    
   226  114  235 1    
   227  115  116 1    
   228  115  117 1    
   229  115  236 1    
   230  116  237 1    
   231  116  238 1    
   232  116  239 1    
   233  117  118 2    
   234  117  119 am   BACKBONE|DICT|INTERRES
   235  119  120 1    
   236  119  240 1    
   237  120  121 1    
   238  120  124 1    
   239  120  241 1    
   240  121  122 am   BACKBONE|DICT|INTERRES
   241  121  123 2    
   242  122  242 1    
   243  122  243 1    
   244  124  125 1    
   245  124  244 1    
   246  124  245 1    
   247  125  126 1    
   248  126  246 1    
   249  126  247 1    
@<TRIPOS>SUBSTRUCTURE
     1 UNK         1 GROUP             0       ****    0 ROOT    
