@<TRIPOS>MOLECULE
3R540
247   249    1
SMALL
USER_CHARGES


@<TRIPOS>ATOM
      1 CA         -4.1074  -17.5152  -47.8618 C.3       0 UNK        -0.1800 
      2 C          -2.7936  -17.0428  -47.2532 C.2       0 UNK         0.5000 
      3 O          -1.8530  -17.8255  -47.1489 O.2       0 UNK        -0.5000 
      4 N          -2.7525  -15.7660  -46.8453 N.am      1 UNK        -0.5000 
      5 CA         -1.6269  -15.0433  -46.2283 C.3       1 UNK         0.1400 
      6 C6         -0.5846  -14.4971  -47.2479 C.3       23 UNK        -0.0398 
      7 S7          0.6656  -15.6665  -47.8757 S.3       23 UNK        -0.2404 
      8 C8          0.0008  -16.0931  -49.5199 C.3       23 UNK        -0.0205 
      9 C9          0.7539  -17.2204  -50.2254 C.ar      23 UNK        -0.0193 
     10 C10         0.7706  -17.2571  -51.6229 C.ar      23 UNK        -0.1150 
     11 C11         1.4203  -18.2904  -52.3048 C.ar      23 UNK        -0.0193 
     12 C12         2.0842  -19.2825  -51.5788 C.ar      23 UNK        -0.1150 
     13 C13         2.0508  -19.2802  -50.1831 C.ar      23 UNK        -0.0193 
     14 C14         1.3813  -18.2518  -49.5147 C.ar      23 UNK        -0.1150 
     15 C15         2.7056  -20.4078  -49.3957 C.3       23 UNK        -0.0205 
     16 S16         1.8607  -22.0019  -49.6443 S.3       23 UNK        -0.2404 
     17 C17         0.1519  -21.5752  -49.1732 C.3       23 UNK        -0.0398 
     18 CA         -0.5029  -22.6202  -48.2509 C.3       11 UNK         0.1400 
     19 N           0.2072  -22.7765  -46.9781 N.am      11 UNK        -0.5000 
     20 C           0.1158  -23.8664  -46.2039 C.2       10 UNK         0.5000 
     21 O          -0.5886  -24.8380  -46.4775 O.2       10 UNK        -0.5000 
     22 CA          0.8894  -23.8381  -44.8715 C.3       10 UNK         0.1400 
     23 CB          2.3601  -24.2208  -45.0925 C.3       10 UNK        -0.1800 
     24 N           0.8214  -22.5390  -44.1980 N.am      10 UNK        -0.5000 
     25 C          -0.3143  -21.9380  -43.8185 C.2       9 UNK         0.5000 
     26 O          -1.4242  -22.4513  -43.9532 O.2       9 UNK        -0.5000 
     27 CA         -0.2209  -20.5212  -43.2239 C.3       9 UNK         0.1400 
     28 CB         -0.4639  -20.5573  -41.7080 C.3       9 UNK        -0.1800 
     29 N           1.0313  -19.8081  -43.4821 N.am      9 UNK        -0.5000 
     30 C           1.5115  -19.4445  -44.6791 C.2       8 UNK         0.5000 
     31 O           1.0193  -19.8009  -45.7516 O.2       8 UNK        -0.5000 
     32 CA          2.7534  -18.5320  -44.6412 C.3       8 UNK         0.1400 
     33 CB          3.1675  -18.0055  -46.0221 C.3       8 UNK        -0.1800 
     34 N           2.5425  -17.3874  -43.7532 N.am      8 UNK        -0.5000 
     35 C           2.8426  -17.3604  -42.4490 C.2       7 UNK         0.5000 
     36 O           3.2237  -18.3576  -41.8333 O.2       7 UNK        -0.5000 
     37 CA          2.6699  -16.0182  -41.7052 C.3       7 UNK         0.1400 
     38 CB          3.6572  -15.8636  -40.5302 C.3       7 UNK        -0.1800 
     39 N           2.7152  -14.8341  -42.5703 N.am      7 UNK        -0.5000 
     40 C           3.7292  -14.4129  -43.3417 C.2       6 UNK         0.5000 
     41 O           4.8019  -15.0070  -43.4531 O.2       6 UNK        -0.5000 
     42 CA          3.5225  -13.0938  -44.1035 C.3       6 UNK         0.1400 
     43 CB          2.7500  -13.3248  -45.4105 C.3       6 UNK        -0.1800 
     44 N           2.8199  -12.1025  -43.2860 N.am      6 UNK        -0.5000 
     45 C           3.1834  -10.8185  -43.1606 C.2       5 UNK         0.5000 
     46 O           4.1262  -10.3120  -43.7708 O.2       5 UNK        -0.5000 
     47 CA          2.3671   -9.9398  -42.1870 C.3       5 UNK         0.1400 
     48 CB          1.3174   -9.1227  -42.9560 C.3       5 UNK        -0.1800 
     49 N           1.6919  -10.6980  -41.1326 N.am      5 UNK        -0.5000 
     50 C           2.3044  -11.4020  -40.1716 C.2       4 UNK         0.5000 
     51 O           3.5233  -11.3927  -39.9964 O.2       4 UNK        -0.5000 
     52 CA          1.4217  -12.2852  -39.2634 C.3       4 UNK         0.1400 
     53 CB          1.3193  -11.6691  -37.8592 C.3       4 UNK        -0.1800 
     54 N           0.0634  -12.5745  -39.7462 N.am      4 UNK        -0.5000 
     55 C          -0.2734  -13.1376  -40.9142 C.2       3 UNK         0.5000 
     56 O           0.5171  -13.3335  -41.8404 O.2       3 UNK        -0.5000 
     57 CA         -1.7577  -13.5039  -41.0898 C.3       3 UNK         0.1400 
     58 CB         -2.5339  -12.3094  -41.6649 C.3       3 UNK        -0.1800 
     59 N          -1.9374  -14.6522  -41.9778 N.am      3 UNK        -0.5000 
     60 C          -1.4922  -15.8964  -41.7480 C.2       2 UNK         0.5000 
     61 O          -0.9453  -16.2456  -40.7015 O.2       2 UNK        -0.5000 
     62 CA         -1.7027  -16.9341  -42.8687 C.3       2 UNK         0.1400 
     63 CB         -2.8696  -17.8682  -42.5114 C.3       2 UNK        -0.1800 
     64 N          -1.9700  -16.3319  -44.1760 N.am      2 UNK        -0.5000 
     65 C          -1.0643  -15.7072  -44.9434 C.2       1 UNK         0.5000 
     66 O           0.1257  -15.6094  -44.6379 O.2       1 UNK        -0.5000 
     67 C          -1.9937  -22.2817  -48.0520 C.2       11 UNK         0.5000 
     68 O          -2.7810  -22.5140  -48.9700 O.2       11 UNK        -0.5000 
     69 N          -2.3638  -21.7511  -46.8780 N.am      12 UNK        -0.5000 
     70 CA         -3.7541  -21.5309  -46.4827 C.3       12 UNK         0.1400 
     71 CB         -3.8256  -20.4839  -45.3605 C.3       12 UNK        -0.1800 
     72 C          -4.4057  -22.8528  -46.0452 C.2       12 UNK         0.5000 
     73 O          -5.5270  -23.1408  -46.4603 O.2       12 UNK        -0.5000 
     74 N          -3.6698  -23.6529  -45.2593 N.am      13 UNK        -0.5000 
     75 CA         -4.0642  -24.9860  -44.7999 C.3       13 UNK         0.1400 
     76 CB         -3.0460  -25.4887  -43.7652 C.3       13 UNK        -0.1800 
     77 C          -4.2157  -25.9933  -45.9547 C.2       13 UNK         0.5000 
     78 O          -5.1781  -26.7611  -45.9704 O.2       13 UNK        -0.5000 
     79 N          -3.2882  -25.9419  -46.9216 N.am      14 UNK        -0.5000 
     80 CA         -3.3395  -26.7146  -48.1664 C.3       14 UNK         0.1400 
     81 CB         -1.9391  -26.7248  -48.7995 C.3       14 UNK        -0.1800 
     82 C          -4.3727  -26.1765  -49.1789 C.2       14 UNK         0.5000 
     83 O          -4.6825  -26.8714  -50.1464 O.2       14 UNK        -0.5000 
     84 N          -4.8522  -24.9431  -48.9573 N.am      15 UNK        -0.5000 
     85 CA         -5.7788  -24.1558  -49.7794 C.3       15 UNK         0.1400 
     86 CB         -7.1416  -24.8617  -49.9242 C.3       15 UNK        -0.1800 
     87 C          -5.2030  -23.7119  -51.1401 C.2       15 UNK         0.5000 
     88 O          -5.9416  -23.1641  -51.9581 O.2       15 UNK        -0.5000 
     89 N          -3.8938  -23.8990  -51.3505 N.am      16 UNK        -0.5000 
     90 CA         -3.1672  -23.5100  -52.5567 C.3       16 UNK         0.1400 
     91 CB         -1.7387  -24.0708  -52.4962 C.3       16 UNK        -0.1800 
     92 C          -3.1412  -21.9882  -52.7652 C.2       16 UNK         0.5000 
     93 O          -3.3055  -21.5327  -53.8963 O.2       16 UNK        -0.5000 
     94 N          -2.9712  -21.2291  -51.6741 N.am      17 UNK        -0.5000 
     95 CA         -3.0031  -19.7653  -51.7021 C.3       17 UNK         0.1400 
     96 CB         -2.2975  -19.2021  -50.4629 C.3       17 UNK        -0.1800 
     97 C          -4.4328  -19.2101  -51.8168 C.2       17 UNK         0.5000 
     98 O          -4.6219  -18.1493  -52.4108 O.2       17 UNK        -0.5000 
     99 N          -5.4134  -19.9431  -51.2706 N.am      18 UNK        -0.5000 
    100 CA        -6.8362  -19.6079  -51.3452 C.3       18 UNK         0.1400 
    101 CB        -7.6138  -20.4365  -50.3105 C.3       18 UNK        -0.1800 
    102 C         -7.4020  -19.8150  -52.7623 C.2       18 UNK         0.5000 
    103 O         -8.1441  -18.9646  -53.2543 O.2       18 UNK        -0.5000 
    104 N         -7.0138  -20.9266  -53.4017 N.am      19 UNK        -0.5000 
    105 CA        -7.3683  -21.2678  -54.7803 C.3       19 UNK         0.1400 
    106 CB        -7.1577  -22.7778  -54.9781 C.3       19 UNK        -0.1800 
    107 C         -6.5602  -20.4838  -55.8336 C.2       19 UNK         0.5000 
    108 O         -6.9563  -20.4695  -56.9995 O.2       19 UNK        -0.5000 
    109 N         -5.4336  -19.8857  -55.4150 N.am      20 UNK        -0.5000 
    110 CA        -4.4009  -19.2465  -56.2413 C.3       20 UNK         0.1400 
    111 CB        -4.9501  -18.0006  -56.9661 C.3       20 UNK        -0.1800 
    112 C         -3.7060  -20.2513  -57.1879 C.2       20 UNK         0.5000 
    113 O         -3.3147  -19.9012  -58.3024 O.2       20 UNK        -0.5000 
    114 N         -3.5623  -21.4909  -56.7053 N.am      21 UNK        -0.5000 
    115 CA        -2.9040  -22.6117  -57.3739 C.3       21 UNK         0.1400 
    116 CB        -3.6423  -23.9021  -56.9823 C.3       21 UNK        -0.1800 
    117 C         -1.4102  -22.7091  -57.0051 C.2       21 UNK         0.5000 
    118 O         -0.6961  -23.5259  -57.5875 O.2       21 UNK        -0.5000 
    119 N         -0.9678  -21.8895  -56.0429 N.am      22 UNK        -0.5000 
    120 CA         0.4079  -21.8059  -55.5315 C.3       22 UNK         0.1400 
    121 C          1.4896  -21.3150  -56.5425 C.2       22 UNK         0.5000 
    122 N          1.1281  -20.7567  -57.6914 N.am      22 UNK        -0.7600 
    123 O          2.6811  -21.4517  -56.2786 O.2       22 UNK        -0.5000 
    124 C124        0.4526  -20.9987  -54.2091 C.3       23 UNK        -0.0398 
    125 S125       -0.0939  -19.2609  -54.3971 S.3       23 UNK        -0.2404 
    126 C126        1.3736  -18.3467  -53.8236 C.3       23 UNK        -0.0205 
    127 H127       -4.1512  -17.2527  -48.9184 H         1 UNK         0.0600 
    128 H128       -4.9605  -17.0598  -47.3588 H         1 UNK         0.0600 
    129 H129       -4.2055  -18.5970  -47.7754 H         1 UNK         0.0600 
    130 H130       -3.5846  -15.2066  -46.9719 H         1 UNK         0.3000 
    131 H131       -2.1093  -14.1470  -45.8350 H         1 UNK         0.0600 
    132 H132       -1.1031  -14.0457  -48.0946 H         1 UNK         0.0800 
    133 H133       -0.0381  -13.6748  -46.7858 H         1 UNK         0.0800 
    134 H134        0.0168  -15.1936  -50.1371 H         1 UNK         0.0800 
    135 H135       -1.0430  -16.3864  -49.4237 H         1 UNK         0.0800 
    136 H136        0.2567  -16.4898  -52.1851 H         1 UNK         0.1150 
    137 H137        2.5978  -20.0812  -52.0936 H         1 UNK         0.1150 
    138 H138        1.3332  -18.2708  -48.4356 H         1 UNK         0.1150 
    139 H139        2.7079  -20.1856  -48.3292 H         1 UNK         0.0800 
    140 H140        3.7496  -20.5025  -49.6967 H         1 UNK         0.0800 
    141 H141       -0.4082  -21.4861  -50.1048 H         1 UNK         0.0800 
    142 H142        0.1239  -20.5958  -48.6929 H         1 UNK         0.0800 
    143 H143       -0.4705  -23.5777  -48.7750 H         1 UNK         0.0600 
    144 H144        0.7711  -21.9938  -46.6715 H         1 UNK         0.3000 
    145 H145        0.4367  -24.5799  -44.2104 H         1 UNK         0.0600 
    146 H146        2.4409  -25.1940  -45.5787 H         1 UNK         0.0600 
    147 H147        2.8975  -24.2861  -44.1463 H         1 UNK         0.0600 
    148 H148        2.8756  -23.4951  -45.7230 H         1 UNK         0.0600 
    149 H149        1.6919  -22.0489  -44.0562 H         1 UNK         0.3000 
    150 H150       -1.0195  -19.9399  -43.6870 H         1 UNK         0.0600 
    151 H151        0.3071  -21.1315  -41.1927 H         1 UNK         0.0600 
    152 H152       -1.4262  -21.0162  -41.4764 H         1 UNK         0.0600 
    153 H153       -0.4732  -19.5538  -41.2822 H         1 UNK         0.0600 
    154 H154        1.5460  -19.4945  -42.6680 H         1 UNK         0.3000 
    155 H155        3.5819  -19.1360  -44.2657 H         1 UNK         0.0600 
    156 H156        3.4419  -18.8228  -46.6866 H         1 UNK         0.0600 
    157 H157        4.0315  -17.3445  -45.9504 H         1 UNK         0.0600 
    158 H158        2.3594  -17.4476  -46.4893 H         1 UNK         0.0600 
    159 H159        2.1203  -16.5648  -44.1685 H         1 UNK         0.3000 
    160 H160        1.6649  -16.0382  -41.2846 H         1 UNK         0.0600 
    161 H161        4.6937  -15.9192  -40.8641 H         1 UNK         0.0600 
    162 H162        3.5102  -16.6490  -39.7880 H         1 UNK         0.0600 
    163 H163        3.5209  -14.9095  -40.0219 H         1 UNK         0.0600 
    164 H164        1.8581  -14.2855  -42.5524 H         1 UNK         0.3000 
    165 H165        4.5190  -12.7281  -44.3603 H         1 UNK         0.0600 
    166 H166        3.2076  -14.1141  -46.0086 H         1 UNK         0.0600 
    167 H167        1.7200  -13.6165  -45.2120 H         1 UNK         0.0600 
    168 H168        2.7291  -12.4217  -46.0203 H         1 UNK         0.0600 
    169 H169        2.0354  -12.4375  -42.7360 H         1 UNK         0.3000 
    170 H170        3.0618   -9.2454  -41.7100 H         1 UNK         0.0600 
    171 H171        0.7856   -8.4393  -42.2938 H         1 UNK         0.0600 
    172 H172        0.5807   -9.7673  -43.4374 H         1 UNK         0.0600 
    173 H173        1.7853   -8.5197  -43.7353 H         1 UNK         0.0600 
    174 H174        0.6883  -10.7746  -41.2036 H         1 UNK         0.3000 
    175 H175        1.9339  -13.2446  -39.1733 H         1 UNK         0.0600 
    176 H176        2.3080  -11.4727  -37.4418 H         1 UNK         0.0600 
    177 H177        0.7763  -10.7233  -37.8756 H         1 UNK         0.0600 
    178 H178        0.8074  -12.3398  -37.1688 H         1 UNK         0.0600 
    179 H179       -0.6717  -12.4157  -39.0720 H         1 UNK         0.3000 
    180 H180       -2.1743  -13.7630  -40.1143 H         1 UNK         0.0600 
    181 H181       -2.1576  -12.0206  -42.6474 H         1 UNK         0.0600 
    182 H182       -2.4535  -11.4380  -41.0138 H         1 UNK         0.0600 
    183 H183       -3.5948  -12.5395  -41.7659 H         1 UNK         0.0600 
    184 H184       -2.3581  -14.4626  -42.8737 H         1 UNK         0.3000 
    185 H185       -0.7885  -17.5257  -42.9434 H         1 UNK         0.0600 
    186 H186       -2.6929  -18.3725  -41.5607 H         1 UNK         0.0600 
    187 H187       -3.8089  -17.3212  -42.4209 H         1 UNK         0.0600 
    188 H188       -3.0057  -18.6400  -43.2671 H         1 UNK         0.0600 
    189 H189       -2.9221  -16.3782  -44.5082 H         1 UNK         0.3000 
    190 H190       -1.6594  -21.5986  -46.1709 H         1 UNK         0.3000 
    191 H191       -4.3052  -21.1427  -47.3422 H         1 UNK         0.0600 
    192 H192       -3.2708  -19.5839  -45.6210 H         1 UNK         0.0600 
    193 H193       -4.8587  -20.1884  -45.1747 H         1 UNK         0.0600 
    194 H194       -3.4239  -20.8598  -44.4201 H         1 UNK         0.0600 
    195 H195       -2.7771  -23.3059  -44.9168 H         1 UNK         0.3000 
    196 H196       -5.0346  -24.8951  -44.3076 H         1 UNK         0.0600 
    197 H197       -3.3282  -26.4707  -43.3837 H         1 UNK         0.0600 
    198 H198       -2.9852  -24.8125  -42.9123 H         1 UNK         0.0600 
    199 H199       -2.0466  -25.5760  -44.1924 H         1 UNK         0.0600 
    200 H200       -2.4762  -25.3456  -46.7903 H         1 UNK         0.3000 
    201 H201       -3.6157  -27.7436  -47.9275 H         1 UNK         0.0600 
    202 H202       -1.9216  -27.3312  -49.7060 H         1 UNK         0.0600 
    203 H203       -1.2001  -27.1430  -48.1158 H         1 UNK         0.0600 
    204 H204       -1.6134  -25.7202  -49.0705 H         1 UNK         0.0600 
    205 H205       -4.5311  -24.4704  -48.1235 H         1 UNK         0.3000 
    206 H206       -5.9495  -23.2336  -49.2227 H         1 UNK         0.0600 
    207 H207       -7.5408  -25.1488  -48.9514 H         1 UNK         0.0600 
    208 H208       -7.8747  -24.2043  -50.3930 H         1 UNK         0.0600 
    209 H209       -7.0720  -25.7593  -50.5388 H         1 UNK         0.0600 
    210 H210       -3.3510  -24.2847  -50.5925 H         1 UNK         0.3000 
    211 H211       -3.6774  -23.9556  -53.4127 H         1 UNK         0.0600 
    212 H212       -1.7461  -25.1564  -52.3973 H         1 UNK         0.0600 
    213 H213       -1.1882  -23.8331  -53.4074 H         1 UNK         0.0600 
    214 H214       -1.1780  -23.6614  -51.6546 H         1 UNK         0.0600 
    215 H215       -2.8816  -21.6813  -50.7694 H         1 UNK         0.3000 
    216 H216       -2.4540  -19.4184  -52.5794 H         1 UNK         0.0600 
    217 H217       -2.6943  -19.6206  -49.5379 H         1 UNK         0.0600 
    218 H218       -2.4070  -18.1190  -50.4118 H         1 UNK         0.0600 
    219 H219       -1.2290  -19.4032  -50.5004 H         1 UNK         0.0600 
    220 H220       -5.1715  -20.8167  -50.8291 H         1 UNK         0.3000 
    221 H221       -6.9527  -18.5527  -51.0883 H         1 UNK         0.0600 
    222 H222       -7.5542  -21.5053  -50.5160 H         1 UNK         0.0600 
    223 H223       -7.2346  -20.2666  -49.3026 H         1 UNK         0.0600 
    224 H224       -8.6697  -20.1637  -50.3105 H         1 UNK         0.0600 
    225 H225       -6.4638  -21.6179  -52.8970 H         1 UNK         0.3000 
    226 H226       -8.4253  -21.0437  -54.9375 H         1 UNK         0.0600 
    227 H227       -7.7601  -23.3553  -54.2766 H         1 UNK         0.0600 
    228 H228       -7.4440  -23.0871  -55.9841 H         1 UNK         0.0600 
    229 H229       -6.1138  -23.0593  -54.8322 H         1 UNK         0.0600 
    230 H230       -5.1998  -19.9859  -54.4372 H         1 UNK         0.3000 
    231 H231       -3.6306  -18.9075  -55.5467 H         1 UNK         0.0600 
    232 H232       -5.6722  -18.2632  -57.7394 H         1 UNK         0.0600 
    233 H233       -4.1450  -17.4451  -57.4484 H         1 UNK         0.0600 
    234 H234       -5.4379  -17.3219  -56.2664 H         1 UNK         0.0600 
    235 H235       -3.8293  -21.6456  -55.7374 H         1 UNK         0.3000 
    236 H236       -2.9732  -22.4875  -58.4564 H         1 UNK         0.0600 
    237 H237       -3.5855  -24.0878  -55.9092 H         1 UNK         0.0600 
    238 H238       -4.6960  -23.8517  -57.2578 H         1 UNK         0.0600 
    239 H239       -3.2154  -24.7682  -57.4894 H         1 UNK         0.0600 
    240 H240       -1.6334  -21.2648  -55.6094 H         1 UNK         0.3000 
    241 H241        0.6970  -22.8290  -55.2842 H         1 UNK         0.0600 
    242 H242        0.1539  -20.6348  -57.9163 H         1 UNK         0.3800 
    243 H243        1.8361  -20.4474  -58.3385 H         1 UNK         0.3800 
    244 H244       -0.1888  -21.4699  -53.4641 H         1 UNK         0.0800 
    245 H245        1.4569  -21.0387  -53.7889 H         1 UNK         0.0800 
    246 H246        2.2815  -18.8004  -54.2244 H         1 UNK         0.0800 
    247 H247        1.3366  -17.3343  -54.2283 H         1 UNK         0.0800 
@<TRIPOS>BOND
     1    1    2 1    
     2    1  127 1    
     3    1  128 1    
     4    1  129 1    
     5    2    3 2    
     6    2    4 am   BACKBONE|DICT|INTERRES
     7    4    5 1    
     8    4  130 1    
     9    5    6 1    
    10    5   65 1    
    11    5  131 1    
    12    6    7 1    
    13    6  132 1    
    14    6  133 1    
    15    7    8 1    
    16    8    9 1    
    17    8  134 1    
    18    8  135 1    
    19    9   10 ar   
    20    9   14 ar   
    21   10   11 ar   
    22   10  136 1    
    23   11   12 ar   
    24   11  126 1    
    25   12   13 ar   
    26   12  137 1    
    27   13   14 ar   
    28   13   15 1    
    29   14  138 1    
    30   15   16 1    
    31   15  139 1    
    32   15  140 1    
    33   16   17 1    
    34   17   18 1    
    35   17  141 1    
    36   17  142 1    
    37   18   19 1    
    38   18   67 1    
    39   18  143 1    
    40   19   20 am   BACKBONE|DICT|INTERRES
    41   19  144 1    
    42   20   21 2    
    43   20   22 1    
    44   22   23 1    
    45   22   24 1    
    46   22  145 1    
    47   23  146 1    
    48   23  147 1    
    49   23  148 1    
    50   24   25 am   BACKBONE|DICT|INTERRES
    51   24  149 1    
    52   25   26 2    
    53   25   27 1    
    54   27   28 1    
    55   27   29 1    
    56   27  150 1    
    57   28  151 1    
    58   28  152 1    
    59   28  153 1    
    60   29   30 am   BACKBONE|DICT|INTERRES
    61   29  154 1    
    62   30   31 2    
    63   30   32 1    
    64   32   33 1    
    65   32   34 1    
    66   32  155 1    
    67   33  156 1    
    68   33  157 1    
    69   33  158 1    
    70   34   35 am   BACKBONE|DICT|INTERRES
    71   34  159 1    
    72   35   36 2    
    73   35   37 1    
    74   37   38 1    
    75   37   39 1    
    76   37  160 1    
    77   38  161 1    
    78   38  162 1    
    79   38  163 1    
    80   39   40 am   BACKBONE|DICT|INTERRES
    81   39  164 1    
    82   40   41 2    
    83   40   42 1    
    84   42   43 1    
    85   42   44 1    
    86   42  165 1    
    87   43  166 1    
    88   43  167 1    
    89   43  168 1    
    90   44   45 am   BACKBONE|DICT|INTERRES
    91   44  169 1    
    92   45   46 2    
    93   45   47 1    
    94   47   48 1    
    95   47   49 1    
    96   47  170 1    
    97   48  171 1    
    98   48  172 1    
    99   48  173 1    
   100   49   50 am   BACKBONE|DICT|INTERRES
   101   49  174 1    
   102   50   51 2    
   103   50   52 1    
   104   52   53 1    
   105   52   54 1    
   106   52  175 1    
   107   53  176 1    
   108   53  177 1    
   109   53  178 1    
   110   54   55 am   BACKBONE|DICT|INTERRES
   111   54  179 1    
   112   55   56 2    
   113   55   57 1    
   114   57   58 1    
   115   57   59 1    
   116   57  180 1    
   117   58  181 1    
   118   58  182 1    
   119   58  183 1    
   120   59   60 am   BACKBONE|DICT|INTERRES
   121   59  184 1    
   122   60   61 2    
   123   60   62 1    
   124   62   63 1    
   125   62   64 1    
   126   62  185 1    
   127   63  186 1    
   128   63  187 1    
   129   63  188 1    
   130   64   65 am   BACKBONE|DICT|INTERRES
   131   64  189 1    
   132   65   66 2    
   133   67   68 2    
   134   67   69 am   BACKBONE|DICT|INTERRES
   135   69   70 1    
   136   69  190 1    
   137   70   71 1    
   138   70   72 1    
   139   70  191 1    
   140   71  192 1    
   141   71  193 1    
   142   71  194 1    
   143   72   73 2    
   144   72   74 am   BACKBONE|DICT|INTERRES
   145   74   75 1    
   146   74  195 1    
   147   75   76 1    
   148   75   77 1    
   149   75  196 1    
   150   76  197 1    
   151   76  198 1    
   152   76  199 1    
   153   77   78 2    
   154   77   79 am   BACKBONE|DICT|INTERRES
   155   79   80 1    
   156   79  200 1    
   157   80   81 1    
   158   80   82 1    
   159   80  201 1    
   160   81  202 1    
   161   81  203 1    
   162   81  204 1    
   163   82   83 2    
   164   82   84 am   BACKBONE|DICT|INTERRES
   165   84   85 1    
   166   84  205 1    
   167   85   86 1    
   168   85   87 1    
   169   85  206 1    
   170   86  207 1    
   171   86  208 1    
   172   86  209 1    
   173   87   88 2    
   174   87   89 am   BACKBONE|DICT|INTERRES
   175   89   90 1    
   176   89  210 1    
   177   90   91 1    
   178   90   92 1    
   179   90  211 1    
   180   91  212 1    
   181   91  213 1    
   182   91  214 1    
   183   92   93 2    
   184   92   94 am   BACKBONE|DICT|INTERRES
   185   94   95 1    
   186   94  215 1    
   187   95   96 1    
   188   95   97 1    
   189   95  216 1    
   190   96  217 1    
   191   96  218 1    
   192   96  219 1    
   193   97   98 2    
   194   97   99 am   BACKBONE|DICT|INTERRES
   195   99  100 1    
   196   99  220 1    
   197  100  101 1    
   198  100  102 1    
   199  100  221 1    
   200  101  222 1    
   201  101  223 1    
   202  101  224 1    
   203  102  103 2    
   204  102  104 am   BACKBONE|DICT|INTERRES
   205  104  105 1    
   206  104  225 1    
   207  105  106 1    
   208  105  107 1    
   209  105  226 1    
   210  106  227 1    
   211  106  228 1    
   212  106  229 1    
   213  107  108 2    
   214  107  109 am   BACKBONE|DICT|INTERRES
   215  109  110 1    
   216  109  230 1    
   217  110  111 1    
   218  110  112 1    
   219  110  231 1    
   220  111  232 1    
   221  111  233 1    
   222  111  234 1    
   223  112  113 2    
   224  112  114 am   BACKBONE|DICT|INTERRES
   225  114  115 1    
   226  114  235 1    
   227  115  116 1    
   228  115  117 1    
   229  115  236 1    
   230  116  237 1    
   231  116  238 1    
   232  116  239 1    
   233  117  118 2    
   234  117  119 am   BACKBONE|DICT|INTERRES
   235  119  120 1    
   236  119  240 1    
   237  120  121 1    
   238  120  124 1    
   239  120  241 1    
   240  121  122 am   BACKBONE|DICT|INTERRES
   241  121  123 2    
   242  122  242 1    
   243  122  243 1    
   244  124  125 1    
   245  124  244 1    
   246  124  245 1    
   247  125  126 1    
   248  126  246 1    
   249  126  247 1    
@<TRIPOS>SUBSTRUCTURE
     1 UNK         1 GROUP             0       ****    0 ROOT    
