@<TRIPOS>MOLECULE
3R540
247   249    1
SMALL
USER_CHARGES


@<TRIPOS>ATOM
      1 CA          2.7078   -9.9960  -46.9846 C.3       0 UNK        -0.1800 
      2 C           1.5415   -9.3762  -47.7514 C.2       0 UNK         0.5000 
      3 O           1.4560   -8.1530  -47.8335 O.2       0 UNK        -0.5000 
      4 N           0.6287  -10.1643  -48.3356 N.am      1 UNK        -0.5000 
      5 CA          0.5422  -11.6287  -48.2706 C.3       1 UNK         0.1400 
      6 C6         -0.2982  -12.2294  -49.4297 C.3       23 UNK        -0.0398 
      7 S7         -1.8561  -11.3406  -49.8033 S.3       23 UNK        -0.2404 
      8 C8         -3.1311  -12.3840  -49.0142 C.3       23 UNK        -0.0205 
      9 C9         -3.2462  -13.8039  -49.5656 C.ar      23 UNK        -0.0193 
     10 C10        -3.0161  -14.1004  -50.9150 C.ar      23 UNK        -0.1150 
     11 C11        -3.1327  -15.4115  -51.3866 C.ar      23 UNK        -0.0193 
     12 C12        -3.5017  -16.4320  -50.5048 C.ar      23 UNK        -0.1150 
     13 C13        -3.7594  -16.1461  -49.1615 C.ar      23 UNK        -0.0193 
     14 C14        -3.6258  -14.8338  -48.7001 C.ar      23 UNK        -0.1150 
     15 C15        -4.1875  -17.2446  -48.2020 C.3       23 UNK        -0.0205 
     16 S16        -2.7796  -17.8123  -47.2059 S.3       23 UNK        -0.2404 
     17 C17        -3.5953  -18.8846  -45.9775 C.3       23 UNK        -0.0398 
     18 CA         -3.3798  -20.3910  -46.2531 C.3       11 UNK         0.1400 
     19 N          -1.9630  -20.7844  -46.2713 N.am      11 UNK        -0.5000 
     20 C          -1.5031  -22.0142  -46.5470 C.2       10 UNK         0.5000 
     21 O          -2.2305  -22.9587  -46.8508 O.2       10 UNK        -0.5000 
     22 CA          0.0086  -22.2533  -46.4108 C.3       10 UNK         0.1400 
     23 CB          0.7666  -21.7548  -47.6508 C.3       10 UNK        -0.1800 
     24 N           0.5393  -21.6331  -45.1971 N.am      10 UNK        -0.5000 
     25 C           0.3202  -22.1063  -43.9613 C.2       9 UNK         0.5000 
     26 O          -0.2744  -23.1597  -43.7325 O.2       9 UNK        -0.5000 
     27 CA          0.8170  -21.2518  -42.7784 C.3       9 UNK         0.1400 
     28 CB          2.2760  -21.5931  -42.4419 C.3       9 UNK        -0.1800 
     29 N           0.6965  -19.8120  -43.0112 N.am      9 UNK        -0.5000 
     30 C          -0.4611  -19.1610  -43.1938 C.2       8 UNK         0.5000 
     31 O          -1.5656  -19.7000  -43.1250 O.2       8 UNK        -0.5000 
     32 CA         -0.3686  -17.6729  -43.5848 C.3       8 UNK         0.1400 
     33 CB         -0.2317  -16.7869  -42.3388 C.3       8 UNK        -0.1800 
     34 N           0.7238  -17.3839  -44.5175 N.am      8 UNK        -0.5000 
     35 C           0.8694  -17.9547  -45.7225 C.2       7 UNK         0.5000 
     36 O           0.1052  -18.8055  -46.1695 O.2       7 UNK        -0.5000 
     37 CA          2.1125  -17.5685  -46.5356 C.3       7 UNK         0.1400 
     38 CB          1.9490  -16.1818  -47.1707 C.3       7 UNK        -0.1800 
     39 N           3.3113  -17.6050  -45.7018 N.am      7 UNK        -0.5000 
     40 C           3.8938  -18.7371  -45.2815 C.2       6 UNK         0.5000 
     41 O           3.5264  -19.8629  -45.6189 O.2       6 UNK        -0.5000 
     42 CA          5.0631  -18.5851  -44.2913 C.3       6 UNK         0.1400 
     43 CB          6.3873  -18.3857  -45.0437 C.3       6 UNK        -0.1800 
     44 N           4.8694  -17.4793  -43.3513 N.am      6 UNK        -0.5000 
     45 C           3.9193  -17.4462  -42.4061 C.2       5 UNK         0.5000 
     46 O           3.1151  -18.3572  -42.2123 O.2       5 UNK        -0.5000 
     47 CA          3.8276  -16.1599  -41.5647 C.3       5 UNK         0.1400 
     48 CB          4.7874  -16.2285  -40.3677 C.3       5 UNK        -0.1800 
     49 N           4.0929  -14.9390  -42.3318 N.am      5 UNK        -0.5000 
     50 C           3.3534  -14.5130  -43.3638 C.2       4 UNK         0.5000 
     51 O           2.3877  -15.1312  -43.8146 O.2       4 UNK        -0.5000 
     52 CA          3.7724  -13.1860  -44.0121 C.3       4 UNK         0.1400 
     53 CB          4.1240  -13.3722  -45.4966 C.3       4 UNK        -0.1800 
     54 N           2.6932  -12.2111  -43.8909 N.am      4 UNK        -0.5000 
     55 C           2.5029  -11.4269  -42.8213 C.2       3 UNK         0.5000 
     56 O           3.2284  -11.4530  -41.8261 O.2       3 UNK        -0.5000 
     57 CA          1.3345  -10.4214  -42.8668 C.3       3 UNK         0.1400 
     58 CB          1.8665   -8.9957  -43.0849 C.3       3 UNK        -0.1800 
     59 N           0.3473  -10.7111  -43.9072 N.am      3 UNK        -0.5000 
     60 C          -0.6131  -11.6399  -43.8145 C.2       2 UNK         0.5000 
     61 O          -0.7751  -12.3621  -42.8309 O.2       2 UNK        -0.5000 
     62 CA         -1.5498  -11.7832  -45.0299 C.3       2 UNK         0.1400 
     63 CB         -2.8211  -10.9434  -44.8352 C.3       2 UNK        -0.1800 
     64 N          -0.9219  -11.4096  -46.3017 N.am      2 UNK        -0.5000 
     65 C           0.0427  -12.1225  -46.8992 C.2       1 UNK         0.5000 
     66 O           0.5635  -13.1127  -46.3915 O.2       1 UNK        -0.5000 
     67 C          -4.2014  -21.2420  -45.2628 C.2       11 UNK         0.5000 
     68 O          -5.2784  -21.7174  -45.6242 O.2       11 UNK        -0.5000 
     69 N          -3.6432  -21.4796  -44.0667 N.am      12 UNK        -0.5000 
     70 CA         -4.1960  -22.3539  -43.0282 C.3       12 UNK         0.1400 
     71 CB         -3.3511  -22.2110  -41.7534 C.3       12 UNK        -0.1800 
     72 C          -4.2984  -23.8370  -43.4435 C.2       12 UNK         0.5000 
     73 O          -5.1385  -24.5567  -42.9035 O.2       12 UNK        -0.5000 
     74 N          -3.4798  -24.2584  -44.4160 N.am      13 UNK        -0.5000 
     75 CA         -3.4958  -25.5820  -45.0398 C.3       13 UNK         0.1400 
     76 CB         -2.0437  -26.0259  -45.2956 C.3       13 UNK        -0.1800 
     77 C          -4.3442  -25.5904  -46.3306 C.2       13 UNK         0.5000 
     78 O          -4.0383  -26.3426  -47.2573 O.2       13 UNK        -0.5000 
     79 N          -5.3828  -24.7415  -46.3824 N.am      14 UNK        -0.5000 
     80 CA         -6.3204  -24.5437  -47.4937 C.3       14 UNK         0.1400 
     81 CB         -7.1839  -25.8041  -47.7126 C.3       14 UNK        -0.1800 
     82 C          -5.6127  -24.0667  -48.7770 C.2       14 UNK         0.5000 
     83 O          -5.8528  -24.6078  -49.8571 O.2       14 UNK        -0.5000 
     84 N          -4.7149  -23.0840  -48.6148 N.am      15 UNK        -0.5000 
     85 CA         -3.8148  -22.5366  -49.6369 C.3       15 UNK         0.1400 
     86 CB         -4.6056  -21.7570  -50.7048 C.3       15 UNK        -0.1800 
     87 C          -2.8971  -23.6267  -50.2245 C.2       15 UNK         0.5000 
     88 O          -2.7989  -23.7653  -51.4439 O.2       15 UNK        -0.5000 
     89 N          -2.2796  -24.4046  -49.3233 N.am      16 UNK        -0.5000 
     90 CA         -1.4477  -25.5850  -49.5768 C.3       16 UNK         0.1400 
     91 CB         -0.1023  -25.1671  -50.2054 C.3       16 UNK        -0.1800 
     92 C          -2.1922  -26.6509  -50.4075 C.2       16 UNK         0.5000 
     93 O          -1.6882  -27.0929  -51.4396 O.2       16 UNK        -0.5000 
     94 N          -3.4115  -26.9986  -49.9698 N.am      17 UNK        -0.5000 
     95 CA         -4.3794  -27.8601  -50.6621 C.3       17 UNK         0.1400 
     96 CB         -3.9102  -29.3292  -50.6403 C.3       17 UNK        -0.1800 
     97 C          -4.7072  -27.3466  -52.0833 C.2       17 UNK         0.5000 
     98 O          -4.7043  -28.1147  -53.0468 O.2       17 UNK        -0.5000 
     99 N          -4.9426  -26.0313  -52.1710 N.am      18 UNK        -0.5000 
    100 CA        -5.2014  -25.2160  -53.3595 C.3       18 UNK         0.1400 
    101 CB        -6.4909  -25.6701  -54.0727 C.3       18 UNK        -0.1800 
    102 C         -4.0149  -25.0666  -54.3388 C.2       18 UNK         0.5000 
    103 O         -4.1946  -24.4582  -55.3950 O.2       18 UNK        -0.5000 
    104 N         -2.8214  -25.5735  -53.9952 N.am      19 UNK        -0.5000 
    105 CA        -1.6188  -25.4623  -54.8272 C.3       19 UNK         0.1400 
    106 CB        -0.5811  -26.5018  -54.3797 C.3       19 UNK        -0.1800 
    107 C         -0.9975  -24.0519  -54.8163 C.2       19 UNK         0.5000 
    108 O         -0.3136  -23.6908  -55.7747 O.2       19 UNK        -0.5000 
    109 N         -1.2439  -23.2834  -53.7481 N.am      20 UNK        -0.5000 
    110 CA        -0.7444  -21.9247  -53.5391 C.3       20 UNK         0.1400 
    111 CB         0.0645  -21.8863  -52.2291 C.3       20 UNK        -0.1800 
    112 C         -1.8958  -20.9006  -53.5365 C.2       20 UNK         0.5000 
    113 O         -1.7564  -19.8270  -52.9476 O.2       20 UNK        -0.5000 
    114 N         -3.0163  -21.2283  -54.1978 N.am      21 UNK        -0.5000 
    115 CA        -4.2271  -20.4062  -54.3092 C.3       21 UNK         0.1400 
    116 CB        -5.4137  -21.3153  -54.6735 C.3       21 UNK        -0.1800 
    117 C         -4.0704  -19.2104  -55.2761 C.2       21 UNK         0.5000 
    118 O         -4.8714  -19.0429  -56.1973 O.2       21 UNK        -0.5000 
    119 N         -3.0340  -18.3997  -55.0372 N.am      22 UNK        -0.5000 
    120 CA        -2.7103  -17.1340  -55.7191 C.3       22 UNK         0.1400 
    121 C         -2.2670  -17.2736  -57.2083 C.2       22 UNK         0.5000 
    122 N         -1.9433  -18.4648  -57.6961 N.am      22 UNK        -0.7600 
    123 O         -2.1799  -16.2824  -57.9284 O.2       22 UNK        -0.5000 
    124 C124       -3.8042  -16.0408  -55.5283 C.3       23 UNK        -0.0398 
    125 S125       -4.3951  -15.7814  -53.8135 S.3       23 UNK        -0.2404 
    126 C126       -2.8536  -15.7285  -52.8466 C.3       23 UNK        -0.0205 
    127 H127        2.3559  -10.5652  -46.1274 H         1 UNK         0.0600 
    128 H128        3.3765   -9.2194  -46.6128 H         1 UNK         0.0600 
    129 H129        3.2921  -10.6534  -47.6281 H         1 UNK         0.0600 
    130 H130       -0.1172   -9.7280  -48.8600 H         1 UNK         0.3000 
    131 H131        1.5513  -12.0282  -48.3877 H         1 UNK         0.0600 
    132 H132        0.2994  -12.1954  -50.3415 H         1 UNK         0.0800 
    133 H133       -0.4979  -13.2902  -49.2656 H         1 UNK         0.0800 
    134 H134       -2.9394  -12.4141  -47.9414 H         1 UNK         0.0800 
    135 H135       -4.0976  -11.8939  -49.1364 H         1 UNK         0.0800 
    136 H136       -2.7426  -13.3131  -51.6028 H         1 UNK         0.1150 
    137 H137       -3.5949  -17.4463  -50.8679 H         1 UNK         0.1150 
    138 H138       -3.8201  -14.6168  -47.6589 H         1 UNK         0.1150 
    139 H139       -4.6119  -18.0898  -48.7464 H         1 UNK         0.0800 
    140 H140       -4.9745  -16.8661  -47.5480 H         1 UNK         0.0800 
    141 H141       -4.6609  -18.6491  -45.9538 H         1 UNK         0.0800 
    142 H142       -3.2102  -18.6189  -44.9927 H         1 UNK         0.0800 
    143 H143       -3.7776  -20.5942  -47.2479 H         1 UNK         0.0600 
    144 H144       -1.2863  -20.0459  -46.0886 H         1 UNK         0.3000 
    145 H145        0.1674  -23.3316  -46.3412 H         1 UNK         0.0600 
    146 H146        1.8339  -21.9608  -47.5686 H         1 UNK         0.0600 
    147 H147        0.4058  -22.2526  -48.5513 H         1 UNK         0.0600 
    148 H148        0.6452  -20.6839  -47.8071 H         1 UNK         0.0600 
    149 H149        1.0000  -20.7390  -45.3071 H         1 UNK         0.3000 
    150 H150        0.2006  -21.5000  -41.9119 H         1 UNK         0.0600 
    151 H151        2.3956  -22.6609  -42.2544 H         1 UNK         0.0600 
    152 H152        2.6070  -21.0670  -41.5463 H         1 UNK         0.0600 
    153 H153        2.9497  -21.3235  -43.2561 H         1 UNK         0.0600 
    154 H154        1.5608  -19.2786  -43.0186 H         1 UNK         0.3000 
    155 H155       -1.2990  -17.4052  -44.0884 H         1 UNK         0.0600 
    156 H156       -1.0719  -16.9370  -41.6598 H         1 UNK         0.0600 
    157 H157       -0.2121  -15.7295  -42.6051 H         1 UNK         0.0600 
    158 H158        0.6803  -17.0108  -41.7863 H         1 UNK         0.0600 
    159 H159        1.3853  -16.6648  -44.2342 H         1 UNK         0.3000 
    160 H160        2.2285  -18.2952  -47.3429 H         1 UNK         0.0600 
    161 H161        1.7821  -15.4173  -46.4141 H         1 UNK         0.0600 
    162 H162        1.0921  -16.1616  -47.8454 H         1 UNK         0.0600 
    163 H163        2.8292  -15.9006  -47.7486 H         1 UNK         0.0600 
    164 H164        3.6368  -16.7237  -45.3337 H         1 UNK         0.3000 
    165 H165        5.1323  -19.5109  -43.7159 H         1 UNK         0.0600 
    166 H166        7.2315  -18.3540  -44.3547 H         1 UNK         0.0600 
    167 H167        6.5677  -19.2064  -45.7393 H         1 UNK         0.0600 
    168 H168        6.3887  -17.4600  -45.6206 H         1 UNK         0.0600 
    169 H169        5.4888  -16.6875  -43.4403 H         1 UNK         0.3000 
    170 H170        2.8095  -16.0914  -41.1772 H         1 UNK         0.0600 
    171 H171        4.5982  -17.1190  -39.7665 H         1 UNK         0.0600 
    172 H172        5.8297  -16.2633  -40.6871 H         1 UNK         0.0600 
    173 H173        4.6646  -15.3651  -39.7135 H         1 UNK         0.0600 
    174 H174        4.8629  -14.3679  -42.0139 H         1 UNK         0.3000 
    175 H175        4.6648  -12.8082  -43.5082 H         1 UNK         0.0600 
    176 H176        3.2547  -13.6578  -46.0875 H         1 UNK         0.0600 
    177 H177        4.5225  -12.4508  -45.9214 H         1 UNK         0.0600 
    178 H178        4.8822  -14.1451  -45.6280 H         1 UNK         0.0600 
    179 H179        1.9977  -12.2183  -44.6239 H         1 UNK         0.3000 
    180 H180        0.8386  -10.4532  -41.8942 H         1 UNK         0.0600 
    181 H181        2.3748   -8.8965  -44.0446 H         1 UNK         0.0600 
    182 H182        2.5796   -8.7203  -42.3066 H         1 UNK         0.0600 
    183 H183        1.0588   -8.2641  -43.0551 H         1 UNK         0.0600 
    184 H184        0.3895  -10.1510  -44.7449 H         1 UNK         0.3000 
    185 H185       -1.8435  -12.8335  -45.0930 H         1 UNK         0.0600 
    186 H186       -3.3296  -11.2133  -43.9086 H         1 UNK         0.0600 
    187 H187       -2.5960   -9.8772  -44.7876 H         1 UNK         0.0600 
    188 H188       -3.5280  -11.1020  -45.6498 H         1 UNK         0.0600 
    189 H189       -1.2835  -10.5909  -46.7697 H         1 UNK         0.3000 
    190 H190       -2.7732  -21.0056  -43.8357 H         1 UNK         0.3000 
    191 H191       -5.2077  -22.0073  -42.8083 H         1 UNK         0.0600 
    192 H192       -2.3181  -22.5175  -41.9211 H         1 UNK         0.0600 
    193 H193       -3.3405  -21.1795  -41.4007 H         1 UNK         0.0600 
    194 H194       -3.7505  -22.8264  -40.9464 H         1 UNK         0.0600 
    195 H195       -2.8452  -23.5900  -44.8342 H         1 UNK         0.3000 
    196 H196       -3.9479  -26.3050  -44.3584 H         1 UNK         0.0600 
    197 H197       -2.0054  -27.0482  -45.6735 H         1 UNK         0.0600 
    198 H198       -1.4569  -25.9986  -44.3773 H         1 UNK         0.0600 
    199 H199       -1.5469  -25.3874  -46.0258 H         1 UNK         0.0600 
    200 H200       -5.5166  -24.1234  -45.5935 H         1 UNK         0.3000 
    201 H201       -6.9873  -23.7340  -47.1941 H         1 UNK         0.0600 
    202 H202       -7.9573  -25.6215  -48.4594 H         1 UNK         0.0600 
    203 H203       -7.6862  -26.1018  -46.7923 H         1 UNK         0.0600 
    204 H204       -6.5903  -26.6504  -48.0592 H         1 UNK         0.0600 
    205 H205       -4.5544  -22.7612  -47.6698 H         1 UNK         0.3000 
    206 H206       -3.1569  -21.8239  -49.1406 H         1 UNK         0.0600 
    207 H207       -5.2385  -20.9954  -50.2496 H         1 UNK         0.0600 
    208 H208       -3.9246  -21.2467  -51.3837 H         1 UNK         0.0600 
    209 H209       -5.2413  -22.4090  -51.3034 H         1 UNK         0.0600 
    210 H210       -2.4233  -24.1712  -48.3450 H         1 UNK         0.3000 
    211 H211       -1.2392  -26.0360  -48.6056 H         1 UNK         0.0600 
    212 H212        0.4144  -24.4368  -49.5842 H         1 UNK         0.0600 
    213 H213        0.5605  -26.0261  -50.3143 H         1 UNK         0.0600 
    214 H214       -0.2361  -24.7319  -51.1960 H         1 UNK         0.0600 
    215 H215       -3.7262  -26.6088  -49.0833 H         1 UNK         0.3000 
    216 H216       -5.3073  -27.7991  -50.0917 H         1 UNK         0.0600 
    217 H217       -4.6735  -29.9887  -51.0547 H         1 UNK         0.0600 
    218 H218       -3.0007  -29.4737  -51.2244 H         1 UNK         0.0600 
    219 H219       -3.7113  -29.6630  -49.6220 H         1 UNK         0.0600 
    220 H220       -4.9586  -25.5065  -51.2997 H         1 UNK         0.3000 
    221 H221       -5.3836  -24.2146  -52.9708 H         1 UNK         0.0600 
    222 H222       -6.3706  -26.6441  -54.5475 H         1 UNK         0.0600 
    223 H223       -7.3252  -25.7359  -53.3744 H         1 UNK         0.0600 
    224 H224       -6.7778  -24.9623  -54.8513 H         1 UNK         0.0600 
    225 H225       -2.7176  -26.0355  -53.0992 H         1 UNK         0.3000 
    226 H226       -1.8969  -25.6931  -55.8578 H         1 UNK         0.0600 
    227 H227       -1.0124  -27.5020  -54.3351 H         1 UNK         0.0600 
    228 H228        0.2567  -26.5380  -55.0769 H         1 UNK         0.0600 
    229 H229       -0.1733  -26.2651  -53.3966 H         1 UNK         0.0600 
    230 H230       -1.8430  -23.6440  -53.0061 H         1 UNK         0.3000 
    231 H231       -0.0760  -21.6345  -54.3516 H         1 UNK         0.0600 
    232 H232        0.5283  -20.9104  -52.0810 H         1 UNK         0.0600 
    233 H233        0.8661  -22.6248  -52.2397 H         1 UNK         0.0600 
    234 H234       -0.5627  -22.0854  -51.3603 H         1 UNK         0.0600 
    235 H235       -3.0396  -22.1208  -54.6709 H         1 UNK         0.3000 
    236 H236       -4.4398  -19.9754  -53.3291 H         1 UNK         0.0600 
    237 H237       -5.5630  -22.0855  -53.9186 H         1 UNK         0.0600 
    238 H238       -6.3421  -20.7464  -54.7363 H         1 UNK         0.0600 
    239 H239       -5.2626  -21.8092  -55.6341 H         1 UNK         0.0600 
    240 H240       -2.4263  -18.6570  -54.2642 H         1 UNK         0.3000 
    241 H241       -1.8088  -16.7734  -55.2245 H         1 UNK         0.0600 
    242 H242       -2.0125  -19.2882  -57.1205 H         1 UNK         0.3800 
    243 H243       -1.6474  -18.5452  -58.6563 H         1 UNK         0.3800 
    244 H244       -3.4373  -15.0794  -55.8916 H         1 UNK         0.0800 
    245 H245       -4.6750  -16.2764  -56.1419 H         1 UNK         0.0800 
    246 H246       -2.1796  -14.9849  -53.2749 H         1 UNK         0.0800 
    247 H247       -2.3404  -16.6888  -52.9071 H         1 UNK         0.0800 
@<TRIPOS>BOND
     1    1    2 1    
     2    1  127 1    
     3    1  128 1    
     4    1  129 1    
     5    2    3 2    
     6    2    4 am   BACKBONE|DICT|INTERRES
     7    4    5 1    
     8    4  130 1    
     9    5    6 1    
    10    5   65 1    
    11    5  131 1    
    12    6    7 1    
    13    6  132 1    
    14    6  133 1    
    15    7    8 1    
    16    8    9 1    
    17    8  134 1    
    18    8  135 1    
    19    9   10 ar   
    20    9   14 ar   
    21   10   11 ar   
    22   10  136 1    
    23   11   12 ar   
    24   11  126 1    
    25   12   13 ar   
    26   12  137 1    
    27   13   14 ar   
    28   13   15 1    
    29   14  138 1    
    30   15   16 1    
    31   15  139 1    
    32   15  140 1    
    33   16   17 1    
    34   17   18 1    
    35   17  141 1    
    36   17  142 1    
    37   18   19 1    
    38   18   67 1    
    39   18  143 1    
    40   19   20 am   BACKBONE|DICT|INTERRES
    41   19  144 1    
    42   20   21 2    
    43   20   22 1    
    44   22   23 1    
    45   22   24 1    
    46   22  145 1    
    47   23  146 1    
    48   23  147 1    
    49   23  148 1    
    50   24   25 am   BACKBONE|DICT|INTERRES
    51   24  149 1    
    52   25   26 2    
    53   25   27 1    
    54   27   28 1    
    55   27   29 1    
    56   27  150 1    
    57   28  151 1    
    58   28  152 1    
    59   28  153 1    
    60   29   30 am   BACKBONE|DICT|INTERRES
    61   29  154 1    
    62   30   31 2    
    63   30   32 1    
    64   32   33 1    
    65   32   34 1    
    66   32  155 1    
    67   33  156 1    
    68   33  157 1    
    69   33  158 1    
    70   34   35 am   BACKBONE|DICT|INTERRES
    71   34  159 1    
    72   35   36 2    
    73   35   37 1    
    74   37   38 1    
    75   37   39 1    
    76   37  160 1    
    77   38  161 1    
    78   38  162 1    
    79   38  163 1    
    80   39   40 am   BACKBONE|DICT|INTERRES
    81   39  164 1    
    82   40   41 2    
    83   40   42 1    
    84   42   43 1    
    85   42   44 1    
    86   42  165 1    
    87   43  166 1    
    88   43  167 1    
    89   43  168 1    
    90   44   45 am   BACKBONE|DICT|INTERRES
    91   44  169 1    
    92   45   46 2    
    93   45   47 1    
    94   47   48 1    
    95   47   49 1    
    96   47  170 1    
    97   48  171 1    
    98   48  172 1    
    99   48  173 1    
   100   49   50 am   BACKBONE|DICT|INTERRES
   101   49  174 1    
   102   50   51 2    
   103   50   52 1    
   104   52   53 1    
   105   52   54 1    
   106   52  175 1    
   107   53  176 1    
   108   53  177 1    
   109   53  178 1    
   110   54   55 am   BACKBONE|DICT|INTERRES
   111   54  179 1    
   112   55   56 2    
   113   55   57 1    
   114   57   58 1    
   115   57   59 1    
   116   57  180 1    
   117   58  181 1    
   118   58  182 1    
   119   58  183 1    
   120   59   60 am   BACKBONE|DICT|INTERRES
   121   59  184 1    
   122   60   61 2    
   123   60   62 1    
   124   62   63 1    
   125   62   64 1    
   126   62  185 1    
   127   63  186 1    
   128   63  187 1    
   129   63  188 1    
   130   64   65 am   BACKBONE|DICT|INTERRES
   131   64  189 1    
   132   65   66 2    
   133   67   68 2    
   134   67   69 am   BACKBONE|DICT|INTERRES
   135   69   70 1    
   136   69  190 1    
   137   70   71 1    
   138   70   72 1    
   139   70  191 1    
   140   71  192 1    
   141   71  193 1    
   142   71  194 1    
   143   72   73 2    
   144   72   74 am   BACKBONE|DICT|INTERRES
   145   74   75 1    
   146   74  195 1    
   147   75   76 1    
   148   75   77 1    
   149   75  196 1    
   150   76  197 1    
   151   76  198 1    
   152   76  199 1    
   153   77   78 2    
   154   77   79 am   BACKBONE|DICT|INTERRES
   155   79   80 1    
   156   79  200 1    
   157   80   81 1    
   158   80   82 1    
   159   80  201 1    
   160   81  202 1    
   161   81  203 1    
   162   81  204 1    
   163   82   83 2    
   164   82   84 am   BACKBONE|DICT|INTERRES
   165   84   85 1    
   166   84  205 1    
   167   85   86 1    
   168   85   87 1    
   169   85  206 1    
   170   86  207 1    
   171   86  208 1    
   172   86  209 1    
   173   87   88 2    
   174   87   89 am   BACKBONE|DICT|INTERRES
   175   89   90 1    
   176   89  210 1    
   177   90   91 1    
   178   90   92 1    
   179   90  211 1    
   180   91  212 1    
   181   91  213 1    
   182   91  214 1    
   183   92   93 2    
   184   92   94 am   BACKBONE|DICT|INTERRES
   185   94   95 1    
   186   94  215 1    
   187   95   96 1    
   188   95   97 1    
   189   95  216 1    
   190   96  217 1    
   191   96  218 1    
   192   96  219 1    
   193   97   98 2    
   194   97   99 am   BACKBONE|DICT|INTERRES
   195   99  100 1    
   196   99  220 1    
   197  100  101 1    
   198  100  102 1    
   199  100  221 1    
   200  101  222 1    
   201  101  223 1    
   202  101  224 1    
   203  102  103 2    
   204  102  104 am   BACKBONE|DICT|INTERRES
   205  104  105 1    
   206  104  225 1    
   207  105  106 1    
   208  105  107 1    
   209  105  226 1    
   210  106  227 1    
   211  106  228 1    
   212  106  229 1    
   213  107  108 2    
   214  107  109 am   BACKBONE|DICT|INTERRES
   215  109  110 1    
   216  109  230 1    
   217  110  111 1    
   218  110  112 1    
   219  110  231 1    
   220  111  232 1    
   221  111  233 1    
   222  111  234 1    
   223  112  113 2    
   224  112  114 am   BACKBONE|DICT|INTERRES
   225  114  115 1    
   226  114  235 1    
   227  115  116 1    
   228  115  117 1    
   229  115  236 1    
   230  116  237 1    
   231  116  238 1    
   232  116  239 1    
   233  117  118 2    
   234  117  119 am   BACKBONE|DICT|INTERRES
   235  119  120 1    
   236  119  240 1    
   237  120  121 1    
   238  120  124 1    
   239  120  241 1    
   240  121  122 am   BACKBONE|DICT|INTERRES
   241  121  123 2    
   242  122  242 1    
   243  122  243 1    
   244  124  125 1    
   245  124  244 1    
   246  124  245 1    
   247  125  126 1    
   248  126  246 1    
   249  126  247 1    
@<TRIPOS>SUBSTRUCTURE
     1 UNK         1 GROUP             0       ****    0 ROOT    
