@<TRIPOS>MOLECULE
3R540
247   249    1
SMALL
USER_CHARGES


@<TRIPOS>ATOM
      1 CA         -0.0383  -12.0129  -53.3103 C.3       0 UNK        -0.1800 
      2 C           0.2428  -11.6671  -51.8557 C.2       0 UNK         0.5000 
      3 O           0.1263  -10.5032  -51.4727 O.2       0 UNK        -0.5000 
      4 N           0.6254  -12.6670  -51.0483 N.am      1 UNK        -0.5000 
      5 CA          0.9896  -12.5055  -49.6333 C.3       1 UNK         0.1400 
      6 C6          1.8527  -13.7032  -49.1272 C.3       23 UNK        -0.0398 
      7 S7          1.0431  -14.9856  -48.0939 S.3       23 UNK        -0.2404 
      8 C8          0.6485  -16.2908  -49.2920 C.3       23 UNK        -0.0205 
      9 C9         -0.8531  -16.4822  -49.3943 C.ar      23 UNK        -0.0193 
     10 C10        -1.5881  -15.7764  -50.3474 C.ar      23 UNK        -0.1150 
     11 C11        -2.9727  -15.9560  -50.4620 C.ar      23 UNK        -0.0193 
     12 C12        -3.6046  -16.8704  -49.6141 C.ar      23 UNK        -0.1150 
     13 C13        -2.8805  -17.5915  -48.6606 C.ar      23 UNK        -0.0193 
     14 C14        -1.5056  -17.3738  -48.5408 C.ar      23 UNK        -0.1150 
     15 C15        -3.5876  -18.5973  -47.7621 C.3       23 UNK        -0.0205 
     16 S16        -3.3226  -20.3141  -48.3206 S.3       23 UNK        -0.2404 
     17 C17        -1.6440  -20.6322  -47.6696 C.3       23 UNK        -0.0398 
     18 CA         -1.2485  -22.1016  -47.3714 C.3       11 UNK         0.1400 
     19 N          -0.0209  -22.1436  -46.5715 N.am      11 UNK        -0.5000 
     20 C           0.6859  -23.2441  -46.2813 C.2       10 UNK         0.5000 
     21 O           0.4128  -24.3649  -46.7074 O.2       10 UNK        -0.5000 
     22 CA          1.8707  -23.0669  -45.3131 C.3       10 UNK         0.1400 
     23 CB          3.0970  -22.5109  -46.0512 C.3       10 UNK        -0.1800 
     24 N           1.5457  -22.2017  -44.1766 N.am      10 UNK        -0.5000 
     25 C           0.6130  -22.4786  -43.2535 C.2       9 UNK         0.5000 
     26 O          -0.0358  -23.5230  -43.2320 O.2       9 UNK        -0.5000 
     27 CA          0.3070  -21.3834  -42.2159 C.3       9 UNK         0.1400 
     28 CB          1.3454  -21.3830  -41.0846 C.3       9 UNK        -0.1800 
     29 N           0.2263  -20.0524  -42.8168 N.am      9 UNK        -0.5000 
     30 C          -0.6778  -19.6856  -43.7371 C.2       8 UNK         0.5000 
     31 O          -1.5747  -20.4182  -44.1511 O.2       8 UNK        -0.5000 
     32 CA         -0.5147  -18.2768  -44.3284 C.3       8 UNK         0.1400 
     33 CB         -1.0820  -17.2216  -43.3652 C.3       8 UNK        -0.1800 
     34 N           0.8926  -17.9955  -44.6183 N.am      8 UNK        -0.5000 
     35 C           1.5897  -18.5789  -45.6060 C.2       7 UNK         0.5000 
     36 O           1.0883  -19.3453  -46.4285 O.2       7 UNK        -0.5000 
     37 CA          3.1070  -18.3121  -45.6506 C.3       7 UNK         0.1400 
     38 CB          3.4358  -17.1319  -46.5700 C.3       7 UNK        -0.1800 
     39 N           3.6670  -18.0595  -44.3236 N.am      7 UNK        -0.5000 
     40 C           3.8425  -19.0139  -43.3992 C.2       6 UNK         0.5000 
     41 O           3.5939  -20.2025  -43.5985 O.2       6 UNK        -0.5000 
     42 CA          4.3238  -18.5658  -42.0058 C.3       6 UNK         0.1400 
     43 CB          5.8565  -18.6118  -41.9259 C.3       6 UNK        -0.1800 
     44 N           3.8616  -17.2286  -41.6278 N.am      6 UNK        -0.5000 
     45 C           2.5787  -16.8582  -41.5141 C.2       5 UNK         0.5000 
     46 O           1.6360  -17.6268  -41.7033 O.2       5 UNK        -0.5000 
     47 CA          2.2944  -15.3833  -41.1624 C.3       5 UNK         0.1400 
     48 CB          3.4656  -14.6922  -40.4304 C.3       5 UNK        -0.1800 
     49 N           1.8895  -14.5784  -42.3220 N.am      5 UNK        -0.5000 
     50 C           2.5340  -14.4267  -43.4879 C.2       4 UNK         0.5000 
     51 O           3.5238  -15.0845  -43.8158 O.2       4 UNK        -0.5000 
     52 CA          1.9698  -13.3466  -44.4371 C.3       4 UNK         0.1400 
     53 CB          2.9210  -13.0260  -45.6022 C.3       4 UNK        -0.1800 
     54 N           0.6498  -13.7000  -44.9681 N.am      4 UNK        -0.5000 
     55 C          -0.4975  -13.5646  -44.2909 C.2       3 UNK         0.5000 
     56 O          -0.5439  -13.1324  -43.1369 O.2       3 UNK        -0.5000 
     57 CA         -1.7928  -13.9669  -45.0200 C.3       3 UNK         0.1400 
     58 CB         -3.0446  -13.7738  -44.1334 C.3       3 UNK        -0.1800 
     59 N          -1.9050  -13.2172  -46.2687 N.am      3 UNK        -0.5000 
     60 C          -2.8022  -13.4289  -47.2388 C.2       2 UNK         0.5000 
     61 O          -3.6729  -14.2972  -47.1901 O.2       2 UNK        -0.5000 
     62 CA         -2.7201  -12.5216  -48.4819 C.3       2 UNK         0.1400 
     63 CB         -3.1429  -11.0743  -48.1643 C.3       2 UNK        -0.1800 
     64 N          -1.4233  -12.5742  -49.1632 N.am      2 UNK        -0.5000 
     65 C          -0.2204  -12.1689  -48.7292 C.2       1 UNK         0.5000 
     66 O          -0.0322  -11.5861  -47.6597 O.2       1 UNK        -0.5000 
     67 C          -2.3750  -22.9408  -46.7279 C.2       11 UNK         0.5000 
     68 O          -3.0246  -23.7181  -47.4301 O.2       11 UNK        -0.5000 
     69 N          -2.5592  -22.8011  -45.4075 N.am      12 UNK        -0.5000 
     70 CA         -3.5117  -23.5741  -44.6111 C.3       12 UNK         0.1400 
     71 CB         -3.6057  -22.9825  -43.1972 C.3       12 UNK        -0.1800 
     72 C          -3.1644  -25.0731  -44.5624 C.2       12 UNK         0.5000 
     73 O          -4.0517  -25.9026  -44.7646 O.2       12 UNK        -0.5000 
     74 N          -1.8795  -25.3950  -44.3497 N.am      13 UNK        -0.5000 
     75 CA         -1.3383  -26.7592  -44.3513 C.3       13 UNK         0.1400 
     76 CB          0.1301  -26.7306  -43.9025 C.3       13 UNK        -0.1800 
     77 C          -1.4748  -27.4697  -45.7121 C.2       13 UNK         0.5000 
     78 O          -1.6517  -28.6873  -45.7482 O.2       13 UNK        -0.5000 
     79 N          -1.4548  -26.6899  -46.8003 N.am      14 UNK        -0.5000 
     80 CA         -1.7381  -27.1125  -48.1729 C.3       14 UNK         0.1400 
     81 CB         -1.0205  -26.1518  -49.1357 C.3       14 UNK        -0.1800 
     82 C          -3.2505  -27.2268  -48.4844 C.2       14 UNK         0.5000 
     83 O          -3.6210  -27.2767  -49.6578 O.2       14 UNK        -0.5000 
     84 N          -4.0921  -27.2797  -47.4404 N.am      15 UNK        -0.5000 
     85 CA         -5.5502  -27.4210  -47.4567 C.3       15 UNK         0.1400 
     86 CB         -5.9800  -28.7489  -48.1165 C.3       15 UNK        -0.1800 
     87 C          -6.2562  -26.1830  -48.0402 C.2       15 UNK         0.5000 
     88 O          -7.1939  -26.3209  -48.8275 O.2       15 UNK        -0.5000 
     89 N          -5.7865  -24.9985  -47.6199 N.am      16 UNK        -0.5000 
     90 CA         -6.2313  -23.6636  -48.0297 C.3       16 UNK         0.1400 
     91 CB         -7.6934  -23.4039  -47.6105 C.3       16 UNK        -0.1800 
     92 C          -5.9724  -23.4321  -49.5289 C.2       16 UNK         0.5000 
     93 O          -6.9127  -23.3462  -50.3210 O.2       16 UNK        -0.5000 
     94 N          -4.6803  -23.3662  -49.8795 N.am      17 UNK        -0.5000 
     95 CA         -4.1642  -23.1791  -51.2402 C.3       17 UNK         0.1400 
     96 CB         -2.6296  -23.1543  -51.1924 C.3       17 UNK        -0.1800 
     97 C          -4.7051  -21.9296  -51.9641 C.2       17 UNK         0.5000 
     98 O          -4.9400  -21.9889  -53.1723 O.2       17 UNK        -0.5000 
     99 N          -4.9163  -20.8428  -51.2063 N.am      18 UNK        -0.5000 
    100 CA        -5.5594  -19.5883  -51.6025 C.3       18 UNK         0.1400 
    101 CB        -7.0824  -19.8000  -51.7422 C.3       18 UNK        -0.1800 
    102 C         -4.8991  -18.9631  -52.8460 C.2       18 UNK         0.5000 
    103 O         -3.7774  -18.4665  -52.7469 O.2       18 UNK        -0.5000 
    104 N         -5.5713  -19.0371  -54.0023 N.am      19 UNK        -0.5000 
    105 CA        -5.0817  -18.5711  -55.3008 C.3       19 UNK         0.1400 
    106 CB        -6.1637  -18.8141  -56.3628 C.3       19 UNK        -0.1800 
    107 C         -3.7484  -19.2124  -55.7337 C.2       19 UNK         0.5000 
    108 O         -2.9457  -18.5431  -56.3836 O.2       19 UNK        -0.5000 
    109 N         -3.5096  -20.4705  -55.3357 N.am      20 UNK        -0.5000 
    110 CA        -2.2579  -21.1830  -55.5985 C.3       20 UNK         0.1400 
    111 CB        -2.4828  -22.6936  -55.4332 C.3       20 UNK        -0.1800 
    112 C         -1.0872  -20.6978  -54.7197 C.2       20 UNK         0.5000 
    113 O          0.0656  -20.8743  -55.1152 O.2       20 UNK        -0.5000 
    114 N         -1.3893  -20.0915  -53.5624 N.am      21 UNK        -0.5000 
    115 CA        -0.4031  -19.4557  -52.6890 C.3       21 UNK         0.1400 
    116 CB        -0.8561  -19.5713  -51.2279 C.3       21 UNK        -0.1800 
    117 C         -0.1731  -17.9874  -53.0869 C.2       21 UNK         0.5000 
    118 O          0.9704  -17.5302  -53.0713 O.2       21 UNK        -0.5000 
    119 N         -1.2532  -17.2845  -53.4550 N.am      22 UNK        -0.5000 
    120 CA        -1.2196  -15.9171  -53.9960 C.3       22 UNK         0.1400 
    121 C         -0.5224  -15.8157  -55.3838 C.2       22 UNK         0.5000 
    122 N         -0.7458  -16.7468  -56.3021 N.am      22 UNK        -0.7600 
    123 O          0.2336  -14.8805  -55.6299 O.2       22 UNK        -0.5000 
    124 C124       -2.6379  -15.2794  -54.0276 C.3       23 UNK        -0.0398 
    125 S125       -2.9439  -14.1248  -52.6479 S.3       23 UNK        -0.2404 
    126 C126       -3.8396  -15.1724  -51.4495 C.3       23 UNK        -0.0205 
    127 H127        0.1644  -13.0617  -53.5226 H         1 UNK         0.0600 
    128 H128        0.5873  -11.4094  -53.9677 H         1 UNK         0.0600 
    129 H129       -1.0815  -11.8100  -53.5514 H         1 UNK         0.0600 
    130 H130        0.7246  -13.5967  -51.4276 H         1 UNK         0.3000 
    131 H131        1.6346  -11.6245  -49.5915 H         1 UNK         0.0600 
    132 H132        2.6518  -13.2949  -48.5089 H         1 UNK         0.0800 
    133 H133        2.3827  -14.1803  -49.9523 H         1 UNK         0.0800 
    134 H134        1.0679  -16.0677  -50.2738 H         1 UNK         0.0800 
    135 H135        1.1155  -17.2222  -48.9694 H         1 UNK         0.0800 
    136 H136       -1.0660  -15.0858  -50.9887 H         1 UNK         0.1150 
    137 H137       -4.6727  -17.0109  -49.6899 H         1 UNK         0.1150 
    138 H138       -0.9346  -17.9080  -47.7959 H         1 UNK         0.1150 
    139 H139       -3.2574  -18.4763  -46.7297 H         1 UNK         0.0800 
    140 H140       -4.6606  -18.4003  -47.7558 H         1 UNK         0.0800 
    141 H141       -1.5439  -20.0511  -46.7548 H         1 UNK         0.0800 
    142 H142       -0.9217  -20.2079  -48.3668 H         1 UNK         0.0800 
    143 H143       -1.0198  -22.5766  -48.3273 H         1 UNK         0.0600 
    144 H144        0.3077  -21.2534  -46.2143 H         1 UNK         0.3000 
    145 H145        2.1294  -24.0513  -44.9184 H         1 UNK         0.0600 
    146 H146        3.3833  -23.1630  -46.8773 H         1 UNK         0.0600 
    147 H147        2.9034  -21.5217  -46.4661 H         1 UNK         0.0600 
    148 H148        3.9566  -22.4325  -45.3853 H         1 UNK         0.0600 
    149 H149        2.0903  -21.3499  -44.0800 H         1 UNK         0.3000 
    150 H150       -0.6683  -21.6051  -41.7778 H         1 UNK         0.0600 
    151 H151        1.3610  -22.3461  -40.5732 H         1 UNK         0.0600 
    152 H152        1.1170  -20.6213  -40.3388 H         1 UNK         0.0600 
    153 H153        2.3519  -21.1960  -41.4570 H         1 UNK         0.0600 
    154 H154        0.8993  -19.3612  -42.5034 H         1 UNK         0.3000 
    155 H155       -1.0707  -18.2167  -45.2657 H         1 UNK         0.0600 
    156 H156       -0.8816  -17.4600  -42.3203 H         1 UNK         0.0600 
    157 H157       -0.6563  -16.2404  -43.5529 H         1 UNK         0.0600 
    158 H158       -2.1643  -17.1439  -43.4732 H         1 UNK         0.0600 
    159 H159        1.3923  -17.4471  -43.9321 H         1 UNK         0.3000 
    160 H160        3.5887  -19.2003  -46.0642 H         1 UNK         0.0600 
    161 H161        2.9526  -16.2189  -46.2267 H         1 UNK         0.0600 
    162 H162        3.0994  -17.3249  -47.5885 H         1 UNK         0.0600 
    163 H163        4.5093  -16.9479  -46.6117 H         1 UNK         0.0600 
    164 H164        3.8535  -17.0912  -44.0802 H         1 UNK         0.3000 
    165 H165        3.9221  -19.2721  -41.2768 H         1 UNK         0.0600 
    166 H166        6.2066  -18.3819  -40.9194 H         1 UNK         0.0600 
    167 H167        6.2311  -19.6043  -42.1803 H         1 UNK         0.0600 
    168 H168        6.3164  -17.9007  -42.6133 H         1 UNK         0.0600 
    169 H169        4.5736  -16.5253  -41.4952 H         1 UNK         0.3000 
    170 H170        1.4424  -15.3948  -40.4811 H         1 UNK         0.0600 
    171 H171        3.7811  -15.2676  -39.5590 H         1 UNK         0.0600 
    172 H172        4.3350  -14.5567  -41.0747 H         1 UNK         0.0600 
    173 H173        3.1691  -13.7065  -40.0715 H         1 UNK         0.0600 
    174 H174        1.0393  -14.0366  -42.2029 H         1 UNK         0.3000 
    175 H175        1.8741  -12.4292  -43.8521 H         1 UNK         0.0600 
    176 H176        3.1130  -13.8991  -46.2235 H         1 UNK         0.0600 
    177 H177        2.5133  -12.2397  -46.2378 H         1 UNK         0.0600 
    178 H178        3.8845  -12.6754  -45.2307 H         1 UNK         0.0600 
    179 H179        0.6296  -14.0792  -45.9061 H         1 UNK         0.3000 
    180 H180       -1.7076  -15.0245  -45.2751 H         1 UNK         0.0600 
    181 H181       -3.2172  -12.7203  -43.9106 H         1 UNK         0.0600 
    182 H182       -2.9363  -14.2989  -43.1835 H         1 UNK         0.0600 
    183 H183       -3.9441  -14.1675  -44.6051 H         1 UNK         0.0600 
    184 H184       -1.1969  -12.5050  -46.4326 H         1 UNK         0.3000 
    185 H185       -3.4395  -12.9146  -49.2018 H         1 UNK         0.0600 
    186 H186       -4.1518  -11.0487  -47.7510 H         1 UNK         0.0600 
    187 H187       -2.4834  -10.6006  -47.4372 H         1 UNK         0.0600 
    188 H188       -3.1444  -10.4598  -49.0646 H         1 UNK         0.0600 
    189 H189       -1.4396  -13.0515  -50.0525 H         1 UNK         0.3000 
    190 H190       -2.0234  -22.0931  -44.9118 H         1 UNK         0.3000 
    191 H191       -4.4925  -23.4761  -45.0808 H         1 UNK         0.0600 
    192 H192       -2.6500  -23.0271  -42.6751 H         1 UNK         0.0600 
    193 H193       -4.3352  -23.5248  -42.5947 H         1 UNK         0.0600 
    194 H194       -3.9195  -21.9389  -43.2280 H         1 UNK         0.0600 
    195 H195       -1.2181  -24.6501  -44.1418 H         1 UNK         0.3000 
    196 H196       -1.9058  -27.3394  -43.6210 H         1 UNK         0.0600 
    197 H197        0.5496  -27.7369  -43.8705 H         1 UNK         0.0600 
    198 H198        0.2290  -26.3057  -42.9035 H         1 UNK         0.0600 
    199 H199        0.7453  -26.1393  -44.5808 H         1 UNK         0.0600 
    200 H200       -1.2422  -25.7065  -46.6756 H         1 UNK         0.3000 
    201 H201       -1.3150  -28.1075  -48.3232 H         1 UNK         0.0600 
    202 H202        0.0552  -26.1526  -48.9595 H         1 UNK         0.0600 
    203 H203       -1.3739  -25.1289  -49.0121 H         1 UNK         0.0600 
    204 H204       -1.1762  -26.4358  -50.1770 H         1 UNK         0.0600 
    205 H205       -3.6923  -27.1720  -46.5167 H         1 UNK         0.3000 
    206 H206       -5.8551  -27.4706  -46.4104 H         1 UNK         0.0600 
    207 H207       -7.0499  -28.9172  -47.9898 H         1 UNK         0.0600 
    208 H208       -5.7749  -28.7587  -49.1872 H         1 UNK         0.0600 
    209 H209       -5.4637  -29.5974  -47.6676 H         1 UNK         0.0600 
    210 H210       -4.9627  -25.0125  -47.0327 H         1 UNK         0.3000 
    211 H211       -5.6131  -22.9462  -47.4879 H         1 UNK         0.0600 
    212 H212       -8.3940  -24.0630  -48.1235 H         1 UNK         0.0600 
    213 H213       -7.9843  -22.3788  -47.8426 H         1 UNK         0.0600 
    214 H214       -7.8254  -23.5445  -46.5378 H         1 UNK         0.0600 
    215 H215       -3.9902  -23.4850  -49.1438 H         1 UNK         0.3000 
    216 H216       -4.4728  -24.0458  -51.8278 H         1 UNK         0.0600 
    217 H217       -2.2665  -22.4480  -50.4472 H         1 UNK         0.0600 
    218 H218       -2.1989  -22.8685  -52.1521 H         1 UNK         0.0600 
    219 H219       -2.2344  -24.1380  -50.9445 H         1 UNK         0.0600 
    220 H220       -4.6244  -20.8894  -50.2390 H         1 UNK         0.3000 
    221 H221       -5.3988  -18.8881  -50.7840 H         1 UNK         0.0600 
    222 H222       -7.3290  -20.5513  -52.4932 H         1 UNK         0.0600 
    223 H223       -7.5127  -20.1337  -50.7977 H         1 UNK         0.0600 
    224 H224       -7.5877  -18.8724  -52.0145 H         1 UNK         0.0600 
    225 H225       -6.4682  -19.5002  -54.0003 H         1 UNK         0.3000 
    226 H226       -4.9181  -17.4951  -55.2235 H         1 UNK         0.0600 
    227 H227       -7.0857  -18.2877  -56.1153 H         1 UNK         0.0600 
    228 H228       -5.8391  -18.4557  -57.3407 H         1 UNK         0.0600 
    229 H229       -6.3978  -19.8748  -56.4627 H         1 UNK         0.0600 
    230 H230       -4.1951  -20.9483  -54.7582 H         1 UNK         0.3000 
    231 H231       -1.9758  -21.0038  -56.6383 H         1 UNK         0.0600 
    232 H232       -1.5750  -23.2512  -55.6666 H         1 UNK         0.0600 
    233 H233       -3.2644  -23.0507  -56.1040 H         1 UNK         0.0600 
    234 H234       -2.7725  -22.9527  -54.4162 H         1 UNK         0.0600 
    235 H235       -2.3615  -19.9254  -53.3344 H         1 UNK         0.3000 
    236 H236        0.5526  -19.9769  -52.7761 H         1 UNK         0.0600 
    237 H237       -0.9411  -20.6134  -50.9261 H         1 UNK         0.0600 
    238 H238       -0.1325  -19.1021  -50.5611 H         1 UNK         0.0600 
    239 H239       -1.8202  -19.0916  -51.0582 H         1 UNK         0.0600 
    240 H240       -2.1681  -17.7140  -53.3530 H         1 UNK         0.3000 
    241 H241       -0.5943  -15.3346  -53.3182 H         1 UNK         0.0600 
    242 H242       -1.4400  -17.4769  -56.1626 H         1 UNK         0.3800 
    243 H243       -0.2844  -16.6738  -57.1944 H         1 UNK         0.3800 
    244 H244       -2.7947  -14.6949  -54.9364 H         1 UNK         0.0800 
    245 H245       -3.4144  -16.0434  -54.0534 H         1 UNK         0.0800 
    246 H246       -4.4942  -15.8598  -51.9864 H         1 UNK         0.0800 
    247 H247       -4.4965  -14.5227  -50.8702 H         1 UNK         0.0800 
@<TRIPOS>BOND
     1    1    2 1    
     2    1  127 1    
     3    1  128 1    
     4    1  129 1    
     5    2    3 2    
     6    2    4 am   BACKBONE|DICT|INTERRES
     7    4    5 1    
     8    4  130 1    
     9    5    6 1    
    10    5   65 1    
    11    5  131 1    
    12    6    7 1    
    13    6  132 1    
    14    6  133 1    
    15    7    8 1    
    16    8    9 1    
    17    8  134 1    
    18    8  135 1    
    19    9   10 ar   
    20    9   14 ar   
    21   10   11 ar   
    22   10  136 1    
    23   11   12 ar   
    24   11  126 1    
    25   12   13 ar   
    26   12  137 1    
    27   13   14 ar   
    28   13   15 1    
    29   14  138 1    
    30   15   16 1    
    31   15  139 1    
    32   15  140 1    
    33   16   17 1    
    34   17   18 1    
    35   17  141 1    
    36   17  142 1    
    37   18   19 1    
    38   18   67 1    
    39   18  143 1    
    40   19   20 am   BACKBONE|DICT|INTERRES
    41   19  144 1    
    42   20   21 2    
    43   20   22 1    
    44   22   23 1    
    45   22   24 1    
    46   22  145 1    
    47   23  146 1    
    48   23  147 1    
    49   23  148 1    
    50   24   25 am   BACKBONE|DICT|INTERRES
    51   24  149 1    
    52   25   26 2    
    53   25   27 1    
    54   27   28 1    
    55   27   29 1    
    56   27  150 1    
    57   28  151 1    
    58   28  152 1    
    59   28  153 1    
    60   29   30 am   BACKBONE|DICT|INTERRES
    61   29  154 1    
    62   30   31 2    
    63   30   32 1    
    64   32   33 1    
    65   32   34 1    
    66   32  155 1    
    67   33  156 1    
    68   33  157 1    
    69   33  158 1    
    70   34   35 am   BACKBONE|DICT|INTERRES
    71   34  159 1    
    72   35   36 2    
    73   35   37 1    
    74   37   38 1    
    75   37   39 1    
    76   37  160 1    
    77   38  161 1    
    78   38  162 1    
    79   38  163 1    
    80   39   40 am   BACKBONE|DICT|INTERRES
    81   39  164 1    
    82   40   41 2    
    83   40   42 1    
    84   42   43 1    
    85   42   44 1    
    86   42  165 1    
    87   43  166 1    
    88   43  167 1    
    89   43  168 1    
    90   44   45 am   BACKBONE|DICT|INTERRES
    91   44  169 1    
    92   45   46 2    
    93   45   47 1    
    94   47   48 1    
    95   47   49 1    
    96   47  170 1    
    97   48  171 1    
    98   48  172 1    
    99   48  173 1    
   100   49   50 am   BACKBONE|DICT|INTERRES
   101   49  174 1    
   102   50   51 2    
   103   50   52 1    
   104   52   53 1    
   105   52   54 1    
   106   52  175 1    
   107   53  176 1    
   108   53  177 1    
   109   53  178 1    
   110   54   55 am   BACKBONE|DICT|INTERRES
   111   54  179 1    
   112   55   56 2    
   113   55   57 1    
   114   57   58 1    
   115   57   59 1    
   116   57  180 1    
   117   58  181 1    
   118   58  182 1    
   119   58  183 1    
   120   59   60 am   BACKBONE|DICT|INTERRES
   121   59  184 1    
   122   60   61 2    
   123   60   62 1    
   124   62   63 1    
   125   62   64 1    
   126   62  185 1    
   127   63  186 1    
   128   63  187 1    
   129   63  188 1    
   130   64   65 am   BACKBONE|DICT|INTERRES
   131   64  189 1    
   132   65   66 2    
   133   67   68 2    
   134   67   69 am   BACKBONE|DICT|INTERRES
   135   69   70 1    
   136   69  190 1    
   137   70   71 1    
   138   70   72 1    
   139   70  191 1    
   140   71  192 1    
   141   71  193 1    
   142   71  194 1    
   143   72   73 2    
   144   72   74 am   BACKBONE|DICT|INTERRES
   145   74   75 1    
   146   74  195 1    
   147   75   76 1    
   148   75   77 1    
   149   75  196 1    
   150   76  197 1    
   151   76  198 1    
   152   76  199 1    
   153   77   78 2    
   154   77   79 am   BACKBONE|DICT|INTERRES
   155   79   80 1    
   156   79  200 1    
   157   80   81 1    
   158   80   82 1    
   159   80  201 1    
   160   81  202 1    
   161   81  203 1    
   162   81  204 1    
   163   82   83 2    
   164   82   84 am   BACKBONE|DICT|INTERRES
   165   84   85 1    
   166   84  205 1    
   167   85   86 1    
   168   85   87 1    
   169   85  206 1    
   170   86  207 1    
   171   86  208 1    
   172   86  209 1    
   173   87   88 2    
   174   87   89 am   BACKBONE|DICT|INTERRES
   175   89   90 1    
   176   89  210 1    
   177   90   91 1    
   178   90   92 1    
   179   90  211 1    
   180   91  212 1    
   181   91  213 1    
   182   91  214 1    
   183   92   93 2    
   184   92   94 am   BACKBONE|DICT|INTERRES
   185   94   95 1    
   186   94  215 1    
   187   95   96 1    
   188   95   97 1    
   189   95  216 1    
   190   96  217 1    
   191   96  218 1    
   192   96  219 1    
   193   97   98 2    
   194   97   99 am   BACKBONE|DICT|INTERRES
   195   99  100 1    
   196   99  220 1    
   197  100  101 1    
   198  100  102 1    
   199  100  221 1    
   200  101  222 1    
   201  101  223 1    
   202  101  224 1    
   203  102  103 2    
   204  102  104 am   BACKBONE|DICT|INTERRES
   205  104  105 1    
   206  104  225 1    
   207  105  106 1    
   208  105  107 1    
   209  105  226 1    
   210  106  227 1    
   211  106  228 1    
   212  106  229 1    
   213  107  108 2    
   214  107  109 am   BACKBONE|DICT|INTERRES
   215  109  110 1    
   216  109  230 1    
   217  110  111 1    
   218  110  112 1    
   219  110  231 1    
   220  111  232 1    
   221  111  233 1    
   222  111  234 1    
   223  112  113 2    
   224  112  114 am   BACKBONE|DICT|INTERRES
   225  114  115 1    
   226  114  235 1    
   227  115  116 1    
   228  115  117 1    
   229  115  236 1    
   230  116  237 1    
   231  116  238 1    
   232  116  239 1    
   233  117  118 2    
   234  117  119 am   BACKBONE|DICT|INTERRES
   235  119  120 1    
   236  119  240 1    
   237  120  121 1    
   238  120  124 1    
   239  120  241 1    
   240  121  122 am   BACKBONE|DICT|INTERRES
   241  121  123 2    
   242  122  242 1    
   243  122  243 1    
   244  124  125 1    
   245  124  244 1    
   246  124  245 1    
   247  125  126 1    
   248  126  246 1    
   249  126  247 1    
@<TRIPOS>SUBSTRUCTURE
     1 UNK         1 GROUP             0       ****    0 ROOT    
