@<TRIPOS>MOLECULE
3R540
247   249    1
SMALL
USER_CHARGES


@<TRIPOS>ATOM
      1 CA          0.3682  -13.3997  -42.8512 C.3       0 UNK        -0.1800 
      2 C          -0.3244  -12.5608  -43.9149 C.2       0 UNK         0.5000 
      3 O           0.3462  -11.8734  -44.6840 O.2       0 UNK        -0.5000 
      4 N          -1.6618  -12.6120  -43.9570 N.am      1 UNK        -0.5000 
      5 CA         -2.5371  -11.8906  -44.8886 C.3       1 UNK         0.1400 
      6 C6         -2.4199  -12.3756  -46.3621 C.3       23 UNK        -0.0398 
      7 S7         -2.9068  -14.1229  -46.5611 S.3       23 UNK        -0.2404 
      8 C8         -4.7020  -13.9346  -46.8204 C.3       23 UNK        -0.0205 
      9 C9         -5.4328  -15.2678  -46.9233 C.ar      23 UNK        -0.0193 
     10 C10        -6.3017  -15.5135  -47.9926 C.ar      23 UNK        -0.1150 
     11 C11        -7.0058  -16.7193  -48.0740 C.ar      23 UNK        -0.0193 
     12 C12        -6.8415  -17.6796  -47.0734 C.ar      23 UNK        -0.1150 
     13 C13        -5.9784  -17.4480  -46.0008 C.ar      23 UNK        -0.0193 
     14 C14        -5.2817  -16.2391  -45.9275 C.ar      23 UNK        -0.1150 
     15 C15        -5.8058  -18.5004  -44.9181 C.3       23 UNK        -0.0205 
     16 S16        -4.3452  -19.5374  -45.2220 S.3       23 UNK        -0.2404 
     17 C17        -4.8522  -20.4800  -46.7026 C.3       23 UNK        -0.0398 
     18 CA         -4.0879  -21.8094  -46.9242 C.3       11 UNK         0.1400 
     19 N          -2.6839  -21.6125  -47.3022 N.am      11 UNK        -0.5000 
     20 C          -1.9260  -22.5685  -47.8612 C.2       10 UNK         0.5000 
     21 O          -2.3582  -23.6793  -48.1738 O.2       10 UNK        -0.5000 
     22 CA         -0.4312  -22.2651  -48.0705 C.3       10 UNK         0.1400 
     23 CB         -0.1809  -21.5709  -49.4109 C.3       10 UNK        -0.1800 
     24 N           0.1625  -21.4574  -47.0114 N.am      10 UNK        -0.5000 
     25 C           0.3101  -21.8463  -45.7399 C.2       9 UNK         0.5000 
     26 O          -0.0823  -22.9296  -45.3092 O.2       9 UNK        -0.5000 
     27 CA          0.9864  -20.8409  -44.7950 C.3       9 UNK         0.1400 
     28 CB          2.5130  -20.8666  -44.9664 C.3       9 UNK        -0.1800 
     29 N           0.4880  -19.4889  -45.0425 N.am      9 UNK        -0.5000 
     30 C          -0.6422  -19.0030  -44.5128 C.2       8 UNK         0.5000 
     31 O          -1.3071  -19.6044  -43.6695 O.2       8 UNK        -0.5000 
     32 CA         -1.1146  -17.6217  -45.0068 C.3       8 UNK         0.1400 
     33 CB         -0.6362  -16.5152  -44.0590 C.3       8 UNK        -0.1800 
     34 N          -0.6690  -17.3048  -46.3627 N.am      8 UNK        -0.5000 
     35 C          -1.1352  -17.8842  -47.4776 C.2       7 UNK         0.5000 
     36 O          -1.9764  -18.7816  -47.4977 O.2       7 UNK        -0.5000 
     37 CA         -0.5127  -17.4140  -48.8023 C.3       7 UNK         0.1400 
     38 CB         -1.2152  -16.1425  -49.3005 C.3       7 UNK        -0.1800 
     39 N           0.9259  -17.1612  -48.7246 N.am      7 UNK        -0.5000 
     40 C           1.8606  -18.0262  -48.3046 C.2       6 UNK         0.5000 
     41 O           1.6161  -19.1753  -47.9394 O.2       6 UNK        -0.5000 
     42 CA          3.3071  -17.5011  -48.2399 C.3       6 UNK         0.1400 
     43 CB          4.0765  -17.9032  -49.5069 C.3       6 UNK        -0.1800 
     44 N           3.3784  -16.0457  -48.0694 N.am      6 UNK        -0.5000 
     45 C           2.9793  -15.3908  -46.9712 C.2       5 UNK         0.5000 
     46 O           2.5522  -15.9440  -45.9539 O.2       5 UNK        -0.5000 
     47 CA          2.9975  -13.8614  -47.0506 C.3       5 UNK         0.1400 
     48 CB          1.6643  -13.3490  -47.6328 C.3       5 UNK        -0.1800 
     49 N           3.2008  -13.3271  -45.7096 N.am      5 UNK        -0.5000 
     50 C           3.5543  -12.0704  -45.4290 C.2       4 UNK         0.5000 
     51 O           3.7987  -11.2155  -46.2852 O.2       4 UNK        -0.5000 
     52 CA          3.6406  -11.6892  -43.9466 C.3       4 UNK         0.1400 
     53 CB          5.0992  -11.5978  -43.4675 C.3       4 UNK        -0.1800 
     54 N           2.9765  -10.4018  -43.8018 N.am      4 UNK        -0.5000 
     55 C           2.3704   -9.9470  -42.7014 C.2       3 UNK         0.5000 
     56 O           2.3908  -10.5189  -41.6113 O.2       3 UNK        -0.5000 
     57 CA          1.5720   -8.6497  -42.8717 C.3       3 UNK         0.1400 
     58 CB          2.5268   -7.4599  -43.1118 C.3       3 UNK        -0.1800 
     59 N           0.6131   -8.8156  -43.9673 N.am      3 UNK        -0.5000 
     60 C          -0.3184   -7.9260  -44.3367 C.2       2 UNK         0.5000 
     61 O          -0.4893   -6.8389  -43.7837 O.2       2 UNK        -0.5000 
     62 CA         -1.2225   -8.3109  -45.5238 C.3       2 UNK         0.1400 
     63 CB         -0.5663   -7.9022  -46.8517 C.3       2 UNK        -0.1800 
     64 N          -1.5369   -9.7385  -45.5681 N.am      2 UNK        -0.5000 
     65 C          -2.3720  -10.3625  -44.7257 C.2       1 UNK         0.5000 
     66 O          -2.9958   -9.7849  -43.8337 O.2       1 UNK        -0.5000 
     67 C          -4.2362  -22.7866  -45.7359 C.2       11 UNK         0.5000 
     68 O          -5.1649  -23.5943  -45.7315 O.2       11 UNK        -0.5000 
     69 N          -3.2956  -22.7387  -44.7789 N.am      12 UNK        -0.5000 
     70 CA         -3.2225  -23.6547  -43.6368 C.3       12 UNK         0.1400 
     71 CB         -2.2509  -23.0960  -42.5866 C.3       12 UNK        -0.1800 
     72 C          -2.8279  -25.0823  -44.0615 C.2       12 UNK         0.5000 
     73 O          -3.3027  -26.0499  -43.4669 O.2       12 UNK        -0.5000 
     74 N          -2.0213  -25.1847  -45.1266 N.am      13 UNK        -0.5000 
     75 CA         -1.6936  -26.4224  -45.8369 C.3       13 UNK         0.1400 
     76 CB         -0.3857  -26.2118  -46.6189 C.3       13 UNK        -0.1800 
     77 C          -2.8223  -26.9090  -46.7748 C.2       13 UNK         0.5000 
     78 O          -2.6318  -27.9082  -47.4681 O.2       13 UNK        -0.5000 
     79 N          -3.9602  -26.1963  -46.8094 N.am      14 UNK        -0.5000 
     80 CA         -5.1719  -26.4733  -47.5894 C.3       14 UNK         0.1400 
     81 CB         -5.8525  -27.7634  -47.0862 C.3       14 UNK        -0.1800 
     82 C          -4.9411  -26.4766  -49.1150 C.2       14 UNK         0.5000 
     83 O          -5.6625  -27.1635  -49.8404 O.2       14 UNK        -0.5000 
     84 N          -3.9321  -25.7172  -49.5703 N.am      15 UNK        -0.5000 
     85 CA         -3.4623  -25.6055  -50.9542 C.3       15 UNK         0.1400 
     86 CB         -4.5264  -24.9214  -51.8367 C.3       15 UNK        -0.1800 
     87 C          -2.9667  -26.9417  -51.5549 C.2       15 UNK         0.5000 
     88 O          -2.9985  -27.1083  -52.7756 O.2       15 UNK        -0.5000 
     89 N          -2.5110  -27.8749  -50.7031 N.am      16 UNK        -0.5000 
     90 CA         -2.0029  -29.1962  -51.0816 C.3       16 UNK         0.1400 
     91 CB         -1.9864  -30.1025  -49.8391 C.3       16 UNK        -0.1800 
     92 C          -0.6138  -29.0796  -51.7369 C.2       16 UNK         0.5000 
     93 O           0.4039  -29.1949  -51.0534 O.2       16 UNK        -0.5000 
     94 N          -0.6156  -28.7567  -53.0379 N.am      17 UNK        -0.5000 
     95 CA          0.5175  -28.3880  -53.9011 C.3       17 UNK         0.1400 
     96 CB          1.6063  -29.4797  -53.9200 C.3       17 UNK        -0.1800 
     97 C           1.1050  -26.9908  -53.6005 C.2       17 UNK         0.5000 
     98 O           1.9551  -26.5152  -54.3548 O.2       17 UNK        -0.5000 
     99 N           0.6243  -26.3374  -52.5359 N.am      18 UNK        -0.5000 
    100 CA         0.9641  -24.9797  -52.1331 C.3       18 UNK         0.1400 
    101 CB         0.7769  -24.8601  -50.6108 C.3       18 UNK        -0.1800 
    102 C          0.0994  -23.9837  -52.9267 C.2       18 UNK         0.5000 
    103 O         -0.9203  -23.5035  -52.4301 O.2       18 UNK        -0.5000 
    104 N          0.5135  -23.7155  -54.1709 N.am      19 UNK        -0.5000 
    105 CA        -0.1888  -22.8728  -55.1458 C.3       19 UNK         0.1400 
    106 CB         0.5022  -23.0265  -56.5099 C.3       19 UNK        -0.1800 
    107 C         -0.3007  -21.3816  -54.7598 C.2       19 UNK         0.5000 
    108 O         -1.0727  -20.6544  -55.3850 O.2       19 UNK        -0.5000 
    109 N          0.4585  -20.9506  -53.7433 N.am      20 UNK        -0.5000 
    110 CA         0.4507  -19.5951  -53.1907 C.3       20 UNK         0.1400 
    111 CB         1.6905  -19.4196  -52.2973 C.3       20 UNK        -0.1800 
    112 C         -0.8261  -19.2364  -52.4025 C.2       20 UNK         0.5000 
    113 O         -1.0048  -18.0603  -52.0847 O.2       20 UNK        -0.5000 
    114 N         -1.6658  -20.2324  -52.0735 N.am      21 UNK        -0.5000 
    115 CA        -2.8937  -20.1081  -51.2810 C.3       21 UNK         0.1400 
    116 CB        -3.6218  -21.4602  -51.2566 C.3       21 UNK        -0.1800 
    117 C         -3.8262  -18.9870  -51.7772 C.2       21 UNK         0.5000 
    118 O         -4.2517  -19.0081  -52.9339 O.2       21 UNK        -0.5000 
    119 N         -4.0854  -18.0229  -50.8871 N.am      22 UNK        -0.5000 
    120 CA        -4.8423  -16.7823  -51.1273 C.3       22 UNK         0.1400 
    121 C         -4.1418  -15.7435  -52.0579 C.2       22 UNK         0.5000 
    122 N         -2.8864  -15.9199  -52.4512 N.am      22 UNK        -0.7600 
    123 O         -4.7394  -14.7292  -52.4077 O.2       22 UNK        -0.5000 
    124 C124       -6.3249  -17.0148  -51.5375 C.3       23 UNK        -0.0398 
    125 S125       -7.2433  -18.1453  -50.4356 S.3       23 UNK        -0.2404 
    126 C126       -7.9627  -16.9918  -49.2241 C.3       23 UNK        -0.0205 
    127 H127       -0.3387  -14.0193  -42.2992 H         1 UNK         0.0600 
    128 H128        1.1060  -14.0549  -43.3134 H         1 UNK         0.0600 
    129 H129        0.8803  -12.7547  -42.1384 H         1 UNK         0.0600 
    130 H130       -2.1471  -13.1794  -43.2771 H         1 UNK         0.3000 
    131 H131       -3.5549  -12.1066  -44.5605 H         1 UNK         0.0600 
    132 H132       -3.0399  -11.7653  -47.0212 H         1 UNK         0.0800 
    133 H133       -1.3975  -12.2746  -46.7280 H         1 UNK         0.0800 
    134 H134       -5.1312  -13.3710  -45.9914 H         1 UNK         0.0800 
    135 H135       -4.8644  -13.3393  -47.7203 H         1 UNK         0.0800 
    136 H136       -6.4361  -14.7642  -48.7602 H         1 UNK         0.1150 
    137 H137       -7.3861  -18.6114  -47.1343 H         1 UNK         0.1150 
    138 H138       -4.6178  -16.0552  -45.0945 H         1 UNK         0.1150 
    139 H139       -5.6941  -18.0124  -43.9488 H         1 UNK         0.0800 
    140 H140       -6.6950  -19.1279  -44.8417 H         1 UNK         0.0800 
    141 H141       -4.7294  -19.8356  -47.5745 H         1 UNK         0.0800 
    142 H142       -5.9214  -20.6864  -46.6344 H         1 UNK         0.0800 
    143 H143       -4.5695  -22.2948  -47.7765 H         1 UNK         0.0600 
    144 H144       -2.2894  -20.6925  -47.1255 H         1 UNK         0.3000 
    145 H145        0.0917  -23.2228  -48.0855 H         1 UNK         0.0600 
    146 H146        0.8855  -21.5121  -49.6269 H         1 UNK         0.0600 
    147 H147       -0.6515  -22.1151  -50.2277 H         1 UNK         0.0600 
    148 H148       -0.5717  -20.5557  -49.4099 H         1 UNK         0.0600 
    149 H149        0.5589  -20.5653  -47.2959 H         1 UNK         0.3000 
    150 H150        0.7586  -21.1347  -43.7680 H         1 UNK         0.0600 
    151 H151        2.9094  -21.8622  -44.7634 H         1 UNK         0.0600 
    152 H152        2.9974  -20.1765  -44.2754 H         1 UNK         0.0600 
    153 H153        2.8156  -20.5940  -45.9778 H         1 UNK         0.0600 
    154 H154        0.9613  -18.9509  -45.7555 H         1 UNK         0.3000 
    155 H155       -2.2054  -17.6169  -45.0016 H         1 UNK         0.0600 
    156 H156       -0.9746  -16.6987  -43.0386 H         1 UNK         0.0600 
    157 H157       -1.0331  -15.5476  -44.3645 H         1 UNK         0.0600 
    158 H158        0.4520  -16.4443  -44.0397 H         1 UNK         0.0600 
    159 H159        0.0529  -16.6035  -46.4471 H         1 UNK         0.3000 
    160 H160       -0.6678  -18.2083  -49.5310 H         1 UNK         0.0600 
    161 H161       -1.0099  -15.2899  -48.6526 H         1 UNK         0.0600 
    162 H162       -2.2970  -16.2738  -49.3321 H         1 UNK         0.0600 
    163 H163       -0.8888  -15.8814  -50.3070 H         1 UNK         0.0600 
    164 H164        1.2320  -16.2443  -49.0114 H         1 UNK         0.3000 
    165 H165        3.7888  -17.9713  -47.3799 H         1 UNK         0.0600 
    166 H166        5.1256  -17.6148  -49.4393 H         1 UNK         0.0600 
    167 H167        4.0466  -18.9836  -49.6559 H         1 UNK         0.0600 
    168 H168        3.6563  -17.4378  -50.3993 H         1 UNK         0.0600 
    169 H169        3.7190  -15.5177  -48.8605 H         1 UNK         0.3000 
    170 H170        3.8264  -13.5495  -47.6896 H         1 UNK         0.0600 
    171 H171        1.4904  -13.7475  -48.6328 H         1 UNK         0.0600 
    172 H172        0.8177  -13.6413  -47.0096 H         1 UNK         0.0600 
    173 H173        1.6536  -12.2622  -47.7147 H         1 UNK         0.0600 
    174 H174        3.0306  -13.9954  -44.9689 H         1 UNK         0.3000 
    175 H175        3.1131  -12.4390  -43.3542 H         1 UNK         0.0600 
    176 H176        5.6592  -10.8475  -44.0271 H         1 UNK         0.0600 
    177 H177        5.1522  -11.3356  -42.4107 H         1 UNK         0.0600 
    178 H178        5.6105  -12.5529  -43.5924 H         1 UNK         0.0600 
    179 H179        2.8996   -9.8814  -44.6664 H         1 UNK         0.3000 
    180 H180        1.0138   -8.4754  -41.9497 H         1 UNK         0.0600 
    181 H181        2.0054   -6.5051  -43.0537 H         1 UNK         0.0600 
    182 H182        3.0080   -7.5179  -44.0886 H         1 UNK         0.0600 
    183 H183        3.3153   -7.4341  -42.3584 H         1 UNK         0.0600 
    184 H184        0.6238   -9.7234  -44.4219 H         1 UNK         0.3000 
    185 H185       -2.1578   -7.7559  -45.4233 H         1 UNK         0.0600 
    186 H186        0.3670   -8.4404  -47.0230 H         1 UNK         0.0600 
    187 H187       -1.2277   -8.0989  -47.6956 H         1 UNK         0.0600 
    188 H188       -0.3367   -6.8358  -46.8616 H         1 UNK         0.0600 
    189 H189       -1.0099  -10.2949  -46.2254 H         1 UNK         0.3000 
    190 H190       -2.5615  -22.0488  -44.8554 H         1 UNK         0.3000 
    191 H191       -4.2145  -23.7067  -43.1832 H         1 UNK         0.0600 
    192 H192       -1.2306  -23.0377  -42.9642 H         1 UNK         0.0600 
    193 H193       -2.5463  -22.0957  -42.2690 H         1 UNK         0.0600 
    194 H194       -2.2342  -23.7284  -41.6982 H         1 UNK         0.0600 
    195 H195       -1.6171  -24.3327  -45.4992 H         1 UNK         0.3000 
    196 H196       -1.5246  -27.2100  -45.1001 H         1 UNK         0.0600 
    197 H197        0.4134  -25.8586  -45.9668 H         1 UNK         0.0600 
    198 H198       -0.5087  -25.4855  -47.4216 H         1 UNK         0.0600 
    199 H199       -0.0456  -27.1433  -47.0730 H         1 UNK         0.0600 
    200 H200       -4.0127  -25.3661  -46.2331 H         1 UNK         0.3000 
    201 H201       -5.8546  -25.6457  -47.3944 H         1 UNK         0.0600 
    202 H202       -6.8301  -27.8985  -47.5503 H         1 UNK         0.0600 
    203 H203       -6.0094  -27.7308  -46.0081 H         1 UNK         0.0600 
    204 H204       -5.2580  -28.6491  -47.3126 H         1 UNK         0.0600 
    205 H205       -3.4071  -25.1653  -48.8961 H         1 UNK         0.3000 
    206 H206       -2.5957  -24.9460  -50.9175 H         1 UNK         0.0600 
    207 H207       -4.9160  -24.0216  -51.3623 H         1 UNK         0.0600 
    208 H208       -5.3696  -25.5821  -52.0397 H         1 UNK         0.0600 
    209 H209       -4.1022  -24.6255  -52.7969 H         1 UNK         0.0600 
    210 H210       -2.5296  -27.6762  -49.7097 H         1 UNK         0.3000 
    211 H211       -2.6884  -29.6409  -51.8062 H         1 UNK         0.0600 
    212 H212       -2.9844  -30.2028  -49.4119 H         1 UNK         0.0600 
    213 H213       -1.6368  -31.1041  -50.0917 H         1 UNK         0.0600 
    214 H214       -1.3296  -29.7119  -49.0607 H         1 UNK         0.0600 
    215 H215       -1.5258  -28.5873  -53.4516 H         1 UNK         0.3000 
    216 H216        0.1054  -28.3245  -54.9092 H         1 UNK         0.0600 
    217 H217        2.3481  -29.2730  -54.6923 H         1 UNK         0.0600 
    218 H218        2.1399  -29.5431  -52.9716 H         1 UNK         0.0600 
    219 H219        1.1802  -30.4598  -54.1342 H         1 UNK         0.0600 
    220 H220       -0.0803  -26.8043  -51.9863 H         1 UNK         0.3000 
    221 H221        2.0152  -24.7852  -52.3569 H         1 UNK         0.0600 
    222 H222       -0.2654  -24.9656  -50.3084 H         1 UNK         0.0600 
    223 H223        1.3525  -25.6206  -50.0826 H         1 UNK         0.0600 
    224 H224        1.1319  -23.8927  -50.2597 H         1 UNK         0.0600 
    225 H225        1.3390  -24.1938  -54.5080 H         1 UNK         0.3000 
    226 H226       -1.2083  -23.2537  -55.2356 H         1 UNK         0.0600 
    227 H227        0.5075  -24.0672  -56.8348 H         1 UNK         0.0600 
    228 H228       -0.0140  -22.4510  -57.2796 H         1 UNK         0.0600 
    229 H229        1.5355  -22.6789  -56.4773 H         1 UNK         0.0600 
    230 H230        1.0668  -21.6184  -53.2943 H         1 UNK         0.3000 
    231 H231        0.5249  -18.8889  -54.0202 H         1 UNK         0.0600 
    232 H232        1.7393  -18.4093  -51.8885 H         1 UNK         0.0600 
    233 H233        2.6098  -19.5844  -52.8593 H         1 UNK         0.0600 
    234 H234        1.6825  -20.1110  -51.4546 H         1 UNK         0.0600 
    235 H235       -1.4360  -21.1657  -52.3883 H         1 UNK         0.3000 
    236 H236       -2.5960  -19.8763  -50.2573 H         1 UNK         0.0600 
    237 H237       -4.5332  -21.4028  -50.6602 H         1 UNK         0.0600 
    238 H238       -3.9031  -21.7802  -52.2606 H         1 UNK         0.0600 
    239 H239       -2.9996  -22.2416  -50.8207 H         1 UNK         0.0600 
    240 H240       -3.6896  -18.1038  -49.9623 H         1 UNK         0.3000 
    241 H241       -4.8550  -16.2879  -50.1579 H         1 UNK         0.0600 
    242 H242       -2.4601  -15.2246  -53.0417 H         1 UNK         0.3800 
    243 H243       -2.3523  -16.7468  -52.1967 H         1 UNK         0.3800 
    244 H244       -6.8620  -16.0664  -51.5847 H         1 UNK         0.0800 
    245 H245       -6.3727  -17.4263  -52.5465 H         1 UNK         0.0800 
    246 H246       -8.2661  -16.0642  -49.7113 H         1 UNK         0.0800 
    247 H247       -8.8777  -17.4335  -48.8266 H         1 UNK         0.0800 
@<TRIPOS>BOND
     1    1    2 1    
     2    1  127 1    
     3    1  128 1    
     4    1  129 1    
     5    2    3 2    
     6    2    4 am   BACKBONE|DICT|INTERRES
     7    4    5 1    
     8    4  130 1    
     9    5    6 1    
    10    5   65 1    
    11    5  131 1    
    12    6    7 1    
    13    6  132 1    
    14    6  133 1    
    15    7    8 1    
    16    8    9 1    
    17    8  134 1    
    18    8  135 1    
    19    9   10 ar   
    20    9   14 ar   
    21   10   11 ar   
    22   10  136 1    
    23   11   12 ar   
    24   11  126 1    
    25   12   13 ar   
    26   12  137 1    
    27   13   14 ar   
    28   13   15 1    
    29   14  138 1    
    30   15   16 1    
    31   15  139 1    
    32   15  140 1    
    33   16   17 1    
    34   17   18 1    
    35   17  141 1    
    36   17  142 1    
    37   18   19 1    
    38   18   67 1    
    39   18  143 1    
    40   19   20 am   BACKBONE|DICT|INTERRES
    41   19  144 1    
    42   20   21 2    
    43   20   22 1    
    44   22   23 1    
    45   22   24 1    
    46   22  145 1    
    47   23  146 1    
    48   23  147 1    
    49   23  148 1    
    50   24   25 am   BACKBONE|DICT|INTERRES
    51   24  149 1    
    52   25   26 2    
    53   25   27 1    
    54   27   28 1    
    55   27   29 1    
    56   27  150 1    
    57   28  151 1    
    58   28  152 1    
    59   28  153 1    
    60   29   30 am   BACKBONE|DICT|INTERRES
    61   29  154 1    
    62   30   31 2    
    63   30   32 1    
    64   32   33 1    
    65   32   34 1    
    66   32  155 1    
    67   33  156 1    
    68   33  157 1    
    69   33  158 1    
    70   34   35 am   BACKBONE|DICT|INTERRES
    71   34  159 1    
    72   35   36 2    
    73   35   37 1    
    74   37   38 1    
    75   37   39 1    
    76   37  160 1    
    77   38  161 1    
    78   38  162 1    
    79   38  163 1    
    80   39   40 am   BACKBONE|DICT|INTERRES
    81   39  164 1    
    82   40   41 2    
    83   40   42 1    
    84   42   43 1    
    85   42   44 1    
    86   42  165 1    
    87   43  166 1    
    88   43  167 1    
    89   43  168 1    
    90   44   45 am   BACKBONE|DICT|INTERRES
    91   44  169 1    
    92   45   46 2    
    93   45   47 1    
    94   47   48 1    
    95   47   49 1    
    96   47  170 1    
    97   48  171 1    
    98   48  172 1    
    99   48  173 1    
   100   49   50 am   BACKBONE|DICT|INTERRES
   101   49  174 1    
   102   50   51 2    
   103   50   52 1    
   104   52   53 1    
   105   52   54 1    
   106   52  175 1    
   107   53  176 1    
   108   53  177 1    
   109   53  178 1    
   110   54   55 am   BACKBONE|DICT|INTERRES
   111   54  179 1    
   112   55   56 2    
   113   55   57 1    
   114   57   58 1    
   115   57   59 1    
   116   57  180 1    
   117   58  181 1    
   118   58  182 1    
   119   58  183 1    
   120   59   60 am   BACKBONE|DICT|INTERRES
   121   59  184 1    
   122   60   61 2    
   123   60   62 1    
   124   62   63 1    
   125   62   64 1    
   126   62  185 1    
   127   63  186 1    
   128   63  187 1    
   129   63  188 1    
   130   64   65 am   BACKBONE|DICT|INTERRES
   131   64  189 1    
   132   65   66 2    
   133   67   68 2    
   134   67   69 am   BACKBONE|DICT|INTERRES
   135   69   70 1    
   136   69  190 1    
   137   70   71 1    
   138   70   72 1    
   139   70  191 1    
   140   71  192 1    
   141   71  193 1    
   142   71  194 1    
   143   72   73 2    
   144   72   74 am   BACKBONE|DICT|INTERRES
   145   74   75 1    
   146   74  195 1    
   147   75   76 1    
   148   75   77 1    
   149   75  196 1    
   150   76  197 1    
   151   76  198 1    
   152   76  199 1    
   153   77   78 2    
   154   77   79 am   BACKBONE|DICT|INTERRES
   155   79   80 1    
   156   79  200 1    
   157   80   81 1    
   158   80   82 1    
   159   80  201 1    
   160   81  202 1    
   161   81  203 1    
   162   81  204 1    
   163   82   83 2    
   164   82   84 am   BACKBONE|DICT|INTERRES
   165   84   85 1    
   166   84  205 1    
   167   85   86 1    
   168   85   87 1    
   169   85  206 1    
   170   86  207 1    
   171   86  208 1    
   172   86  209 1    
   173   87   88 2    
   174   87   89 am   BACKBONE|DICT|INTERRES
   175   89   90 1    
   176   89  210 1    
   177   90   91 1    
   178   90   92 1    
   179   90  211 1    
   180   91  212 1    
   181   91  213 1    
   182   91  214 1    
   183   92   93 2    
   184   92   94 am   BACKBONE|DICT|INTERRES
   185   94   95 1    
   186   94  215 1    
   187   95   96 1    
   188   95   97 1    
   189   95  216 1    
   190   96  217 1    
   191   96  218 1    
   192   96  219 1    
   193   97   98 2    
   194   97   99 am   BACKBONE|DICT|INTERRES
   195   99  100 1    
   196   99  220 1    
   197  100  101 1    
   198  100  102 1    
   199  100  221 1    
   200  101  222 1    
   201  101  223 1    
   202  101  224 1    
   203  102  103 2    
   204  102  104 am   BACKBONE|DICT|INTERRES
   205  104  105 1    
   206  104  225 1    
   207  105  106 1    
   208  105  107 1    
   209  105  226 1    
   210  106  227 1    
   211  106  228 1    
   212  106  229 1    
   213  107  108 2    
   214  107  109 am   BACKBONE|DICT|INTERRES
   215  109  110 1    
   216  109  230 1    
   217  110  111 1    
   218  110  112 1    
   219  110  231 1    
   220  111  232 1    
   221  111  233 1    
   222  111  234 1    
   223  112  113 2    
   224  112  114 am   BACKBONE|DICT|INTERRES
   225  114  115 1    
   226  114  235 1    
   227  115  116 1    
   228  115  117 1    
   229  115  236 1    
   230  116  237 1    
   231  116  238 1    
   232  116  239 1    
   233  117  118 2    
   234  117  119 am   BACKBONE|DICT|INTERRES
   235  119  120 1    
   236  119  240 1    
   237  120  121 1    
   238  120  124 1    
   239  120  241 1    
   240  121  122 am   BACKBONE|DICT|INTERRES
   241  121  123 2    
   242  122  242 1    
   243  122  243 1    
   244  124  125 1    
   245  124  244 1    
   246  124  245 1    
   247  125  126 1    
   248  126  246 1    
   249  126  247 1    
@<TRIPOS>SUBSTRUCTURE
     1 UNK         1 GROUP             0       ****    0 ROOT    
