@<TRIPOS>MOLECULE
3R540
247   249    1
SMALL
USER_CHARGES


@<TRIPOS>ATOM
      1 CA          3.7641  -15.6532  -53.3454 C.3       0 UNK        -0.1800 
      2 C           4.0837  -14.7308  -52.1774 C.2       0 UNK         0.5000 
      3 O           5.2510  -14.4217  -51.9378 O.2       0 UNK        -0.5000 
      4 N           3.0522  -14.2960  -51.4514 N.am      1 UNK        -0.5000 
      5 CA          3.1153  -13.4016  -50.2984 C.3       1 UNK         0.1400 
      6 C6          3.7354  -14.0695  -49.0342 C.3       23 UNK        -0.0398 
      7 S7          2.7521  -15.4225  -48.2985 S.3       23 UNK        -0.2404 
      8 C8          3.4839  -16.9153  -49.0406 C.3       23 UNK        -0.0205 
      9 C9          2.3956  -17.8968  -49.4469 C.ar      23 UNK        -0.0193 
     10 C10         1.6154  -17.6287  -50.5722 C.ar      23 UNK        -0.1150 
     11 C11         0.5683  -18.4770  -50.9334 C.ar      23 UNK        -0.0193 
     12 C12         0.3369  -19.6358  -50.1870 C.ar      23 UNK        -0.1150 
     13 C13         1.1259  -19.9397  -49.0724 C.ar      23 UNK        -0.0193 
     14 C14         2.1465  -19.0524  -48.6993 C.ar      23 UNK        -0.1150 
     15 C15         0.8260  -21.2110  -48.2787 C.3       23 UNK        -0.0205 
     16 S16         2.3137  -22.0182  -47.5936 S.3       23 UNK        -0.2404 
     17 C17         1.9129  -23.7933  -47.7460 C.3       23 UNK        -0.0398 
     18 CA          1.1629  -24.4101  -46.5374 C.3       11 UNK         0.1400 
     19 N           1.7543  -24.0262  -45.2534 N.am      11 UNK        -0.5000 
     20 C           1.4732  -24.5776  -44.0658 C.2       10 UNK         0.5000 
     21 O           0.7101  -25.5334  -43.9230 O.2       10 UNK        -0.5000 
     22 CA          2.1115  -23.9183  -42.8271 C.3       10 UNK         0.1400 
     23 CB          3.3830  -24.6748  -42.4143 C.3       10 UNK        -0.1800 
     24 N           2.4337  -22.4945  -42.9933 N.am      10 UNK        -0.5000 
     25 C           1.5448  -21.5269  -43.2601 C.2       9 UNK         0.5000 
     26 O           0.3533  -21.7424  -43.4883 O.2       9 UNK        -0.5000 
     27 CA          2.0975  -20.0899  -43.3221 C.3       9 UNK         0.1400 
     28 CB          2.5032  -19.7318  -44.7595 C.3       9 UNK        -0.1800 
     29 N           1.1397  -19.0945  -42.8437 N.am      9 UNK        -0.5000 
     30 C           0.6473  -19.0191  -41.6004 C.2       8 UNK         0.5000 
     31 O           0.9830  -19.7698  -40.6827 O.2       8 UNK        -0.5000 
     32 CA         -0.3796  -17.9050  -41.3245 C.3       8 UNK         0.1400 
     33 CB          0.3256  -16.6264  -40.8464 C.3       8 UNK        -0.1800 
     34 N          -1.2130  -17.5909  -42.4860 N.am      8 UNK        -0.5000 
     35 C          -2.2252  -18.3549  -42.9202 C.2       7 UNK         0.5000 
     36 O          -2.5770  -19.3987  -42.3707 O.2       7 UNK        -0.5000 
     37 CA         -2.9968  -17.8547  -44.1563 C.3       7 UNK         0.1400 
     38 CB         -4.1002  -16.8766  -43.7210 C.3       7 UNK        -0.1800 
     39 N          -2.1330  -17.2032  -45.1406 N.am      7 UNK        -0.5000 
     40 C          -1.2334  -17.8382  -45.9062 C.2       6 UNK         0.5000 
     41 O          -1.1021  -19.0590  -45.9379 O.2       6 UNK        -0.5000 
     42 CA         -0.2937  -16.9627  -46.7518 C.3       6 UNK         0.1400 
     43 CB         -0.9209  -16.6350  -48.1125 C.3       6 UNK        -0.1800 
     44 N           0.0784  -15.7194  -46.0832 N.am      6 UNK        -0.5000 
     45 C           0.7876  -15.6309  -44.9519 C.2       5 UNK         0.5000 
     46 O           1.2242  -16.6025  -44.3380 O.2       5 UNK        -0.5000 
     47 CA          0.9851  -14.2187  -44.3768 C.3       5 UNK         0.1400 
     48 CB          2.1507  -13.4913  -45.0651 C.3       5 UNK        -0.1800 
     49 N          -0.2350  -13.4197  -44.4912 N.am      5 UNK        -0.5000 
     50 C          -1.3401  -13.6259  -43.7618 C.2       4 UNK         0.5000 
     51 O          -1.4235  -14.4765  -42.8762 O.2       4 UNK        -0.5000 
     52 CA         -2.5665  -12.7587  -44.1014 C.3       4 UNK         0.1400 
     53 CB         -2.4871  -11.4035  -43.3829 C.3       4 UNK        -0.1800 
     54 N          -2.7211  -12.5359  -45.5400 N.am      4 UNK        -0.5000 
     55 C          -3.0574  -13.4901  -46.4196 C.2       3 UNK         0.5000 
     56 O          -3.2984  -14.6544  -46.1040 O.2       3 UNK        -0.5000 
     57 CA         -3.0894  -13.0812  -47.9058 C.3       3 UNK         0.1400 
     58 CB         -4.4529  -12.4681  -48.2582 C.3       3 UNK        -0.1800 
     59 N          -2.0203  -12.1540  -48.3017 N.am      3 UNK        -0.5000 
     60 C          -0.7093  -12.3897  -48.1521 C.2       2 UNK         0.5000 
     61 O          -0.2588  -13.3692  -47.5594 O.2       2 UNK        -0.5000 
     62 CA          0.2645  -11.3323  -48.7067 C.3       2 UNK         0.1400 
     63 CB          0.5220  -10.2478  -47.6489 C.3       2 UNK        -0.1800 
     64 N           1.5494  -11.9205  -49.0997 N.am      2 UNK        -0.5000 
     65 C           1.7029  -12.8107  -50.0900 C.2       1 UNK         0.5000 
     66 O           0.7839  -13.1488  -50.8437 O.2       1 UNK        -0.5000 
     67 C          -0.3629  -24.1780  -46.6212 C.2       11 UNK         0.5000 
     68 O          -1.0015  -24.7935  -47.4735 O.2       11 UNK        -0.5000 
     69 N          -0.9397  -23.3616  -45.7227 N.am      12 UNK        -0.5000 
     70 CA         -2.3856  -23.1430  -45.6071 C.3       12 UNK         0.1400 
     71 CB         -2.6562  -22.0027  -44.6169 C.3       12 UNK        -0.1800 
     72 C          -3.1831  -24.3946  -45.1877 C.2       12 UNK         0.5000 
     73 O          -4.3963  -24.4317  -45.3939 O.2       12 UNK        -0.5000 
     74 N          -2.5001  -25.3980  -44.6168 N.am      13 UNK        -0.5000 
     75 CA         -3.0651  -26.7085  -44.2908 C.3       13 UNK         0.1400 
     76 CB         -2.1237  -27.4195  -43.3063 C.3       13 UNK        -0.1800 
     77 C          -3.3136  -27.5911  -45.5334 C.2       13 UNK         0.5000 
     78 O          -4.0224  -28.5928  -45.4241 O.2       13 UNK        -0.5000 
     79 N          -2.7271  -27.2195  -46.6777 N.am      14 UNK        -0.5000 
     80 CA         -2.8679  -27.8833  -47.9683 C.3       14 UNK         0.1400 
     81 CB         -1.4590  -28.2583  -48.4642 C.3       14 UNK        -0.1800 
     82 C          -3.5683  -26.9468  -48.9690 C.2       14 UNK         0.5000 
     83 O          -3.8349  -25.7829  -48.6644 O.2       14 UNK        -0.5000 
     84 N          -3.8222  -27.4681  -50.1754 N.am      15 UNK        -0.5000 
     85 CA         -4.3505  -26.7163  -51.3194 C.3       15 UNK         0.1400 
     86 CB         -5.0673  -27.6988  -52.2603 C.3       15 UNK        -0.1800 
     87 C          -3.2636  -25.9211  -52.0787 C.2       15 UNK         0.5000 
     88 O          -3.5758  -25.2941  -53.0924 O.2       15 UNK        -0.5000 
     89 N          -2.0129  -25.9798  -51.5961 N.am      16 UNK        -0.5000 
     90 CA         -0.8134  -25.3384  -52.1347 C.3       16 UNK         0.1400 
     91 CB          0.3471  -25.5765  -51.1566 C.3       16 UNK        -0.1800 
     92 C          -1.0091  -23.8349  -52.4026 C.2       16 UNK         0.5000 
     93 O          -1.2282  -23.0672  -51.4627 O.2       16 UNK        -0.5000 
     94 N          -0.9846  -23.4683  -53.6927 N.am      17 UNK        -0.5000 
     95 CA         -1.2144  -22.1251  -54.2416 C.3       17 UNK         0.1400 
     96 CB         -0.0308  -21.2004  -53.8946 C.3       17 UNK        -0.1800 
     97 C          -2.5878  -21.5181  -53.8674 C.2       17 UNK         0.5000 
     98 O          -2.7319  -20.2958  -53.8488 O.2       17 UNK        -0.5000 
     99 N          -3.5664  -22.3903  -53.5757 N.am      18 UNK        -0.5000 
    100 CA        -4.9118  -22.0954  -53.0750 C.3       18 UNK         0.1400 
    101 CB        -5.7275  -21.2884  -54.1064 C.3       18 UNK        -0.1800 
    102 C         -4.9240  -21.4699  -51.6619 C.2       18 UNK         0.5000 
    103 O         -5.8985  -20.8080  -51.2994 O.2       18 UNK        -0.5000 
    104 N         -3.8626  -21.7115  -50.8747 N.am      19 UNK        -0.5000 
    105 CA        -3.6547  -21.2174  -49.5114 C.3       19 UNK         0.1400 
    106 CB        -4.6277  -21.9145  -48.5319 C.3       19 UNK        -0.1800 
    107 C         -3.6939  -19.6747  -49.4566 C.2       19 UNK         0.5000 
    108 O         -2.9485  -19.0310  -50.1911 O.2       19 UNK        -0.5000 
    109 N         -4.5638  -19.1050  -48.6129 N.am      20 UNK        -0.5000 
    110 CA        -4.7176  -17.6632  -48.4076 C.3       20 UNK         0.1400 
    111 CB        -5.6153  -17.4430  -47.1825 C.3       20 UNK        -0.1800 
    112 C         -5.2816  -16.8956  -49.6212 C.2       20 UNK         0.5000 
    113 O         -5.1415  -15.6721  -49.6752 O.2       20 UNK        -0.5000 
    114 N         -5.9175  -17.6069  -50.5656 N.am      21 UNK        -0.5000 
    115 CA        -6.6234  -17.0360  -51.7172 C.3       21 UNK         0.1400 
    116 CB        -7.4260  -18.1382  -52.4224 C.3       21 UNK        -0.1800 
    117 C         -5.7284  -16.2872  -52.7250 C.2       21 UNK         0.5000 
    118 O         -6.2598  -15.5334  -53.5421 O.2       21 UNK        -0.5000 
    119 N         -4.4038  -16.4755  -52.6488 N.am      22 UNK        -0.5000 
    120 CA        -3.4184  -15.6672  -53.3830 C.3       22 UNK         0.1400 
    121 C         -3.2996  -14.1883  -52.8988 C.2       22 UNK         0.5000 
    122 N         -3.8243  -13.8201  -51.7341 N.am      22 UNK        -0.7600 
    123 O         -2.7406  -13.3554  -53.6073 O.2       22 UNK        -0.5000 
    124 C124       -2.0387  -16.3673  -53.4678 C.3       23 UNK        -0.0398 
    125 S125       -1.2058  -16.5637  -51.8555 S.3       23 UNK        -0.2404 
    126 C126       -0.3143  -18.1269  -52.1211 C.3       23 UNK        -0.0205 
    127 H127        4.2317  -16.6258  -53.1928 H         1 UNK         0.0600 
    128 H128        4.1461  -15.2307  -54.2745 H         1 UNK         0.0600 
    129 H129        2.6905  -15.8073  -53.4581 H         1 UNK         0.0600 
    130 H130        2.0991  -14.5192  -51.7142 H         1 UNK         0.3000 
    131 H131        3.7526  -12.5605  -50.5786 H         1 UNK         0.0600 
    132 H132        4.7376  -14.4372  -49.2556 H         1 UNK         0.0800 
    133 H133        3.8809  -13.3180  -48.2576 H         1 UNK         0.0800 
    134 H134        4.0766  -16.6573  -49.9182 H         1 UNK         0.0800 
    135 H135        4.1715  -17.3697  -48.3261 H         1 UNK         0.0800 
    136 H136        1.7919  -16.7304  -51.1438 H         1 UNK         0.1150 
    137 H137       -0.4721  -20.2961  -50.4681 H         1 UNK         0.1150 
    138 H138        2.7440  -19.2533  -47.8219 H         1 UNK         0.1150 
    139 H139        0.1499  -20.9642  -47.4592 H         1 UNK         0.0800 
    140 H140        0.2930  -21.9189  -48.9158 H         1 UNK         0.0800 
    141 H141        1.3851  -23.9726  -48.6829 H         1 UNK         0.0800 
    142 H142        2.8650  -24.3131  -47.8596 H         1 UNK         0.0800 
    143 H143        1.2861  -25.4926  -46.6163 H         1 UNK         0.0600 
    144 H144        2.3727  -23.2283  -45.2779 H         1 UNK         0.3000 
    145 H145        1.3878  -23.9970  -42.0133 H         1 UNK         0.0600 
    146 H146        3.7904  -24.2841  -41.4817 H         1 UNK         0.0600 
    147 H147        3.1741  -25.7339  -42.2567 H         1 UNK         0.0600 
    148 H148        4.1590  -24.6034  -43.1775 H         1 UNK         0.0600 
    149 H149        3.3982  -22.2383  -42.8382 H         1 UNK         0.3000 
    150 H150        2.9819  -20.0282  -42.6850 H         1 UNK         0.0600 
    151 H151        3.2474  -20.4300  -45.1433 H         1 UNK         0.0600 
    152 H152        2.9400  -18.7344  -44.8121 H         1 UNK         0.0600 
    153 H153        1.6461  -19.7560  -45.4343 H         1 UNK         0.0600 
    154 H154        0.8529  -18.3891  -43.5140 H         1 UNK         0.3000 
    155 H155       -1.0307  -18.2494  -40.5181 H         1 UNK         0.0600 
    156 H156        0.9290  -16.8216  -39.9591 H         1 UNK         0.0600 
    157 H157       -0.3960  -15.8522  -40.5851 H         1 UNK         0.0600 
    158 H158        0.9884  -16.2216  -41.6115 H         1 UNK         0.0600 
    159 H159       -1.0129  -16.7242  -42.9687 H         1 UNK         0.3000 
    160 H160       -3.4667  -18.7173  -44.6331 H         1 UNK         0.0600 
    161 H161       -3.6879  -16.0087  -43.2056 H         1 UNK         0.0600 
    162 H162       -4.8019  -17.3594  -43.0399 H         1 UNK         0.0600 
    163 H163       -4.6728  -16.5097  -44.5712 H         1 UNK         0.0600 
    164 H164       -2.2355  -16.1995  -45.2440 H         1 UNK         0.3000 
    165 H165        0.6212  -17.5314  -46.9224 H         1 UNK         0.0600 
    166 H166       -1.8040  -16.0076  -48.0076 H         1 UNK         0.0600 
    167 H167       -0.2167  -16.1057  -48.7543 H         1 UNK         0.0600 
    168 H168       -1.2158  -17.5439  -48.6373 H         1 UNK         0.0600 
    169 H169       -0.1757  -14.8566  -46.5614 H         1 UNK         0.3000 
    170 H170        1.2316  -14.3208  -43.3179 H         1 UNK         0.0600 
    171 H171        3.0711  -14.0710  -44.9856 H         1 UNK         0.0600 
    172 H172        1.9599  -13.3286  -46.1256 H         1 UNK         0.0600 
    173 H173        2.3356  -12.5204  -44.6057 H         1 UNK         0.0600 
    174 H174       -0.2735  -12.7620  -45.2559 H         1 UNK         0.3000 
    175 H175       -3.4537  -13.2840  -43.7409 H         1 UNK         0.0600 
    176 H176       -1.6313  -10.8170  -43.7197 H         1 UNK         0.0600 
    177 H177       -3.3875  -10.8134  -43.5539 H         1 UNK         0.0600 
    178 H178       -2.3886  -11.5392  -42.3050 H         1 UNK         0.0600 
    179 H179       -2.5355  -11.6058  -45.8847 H         1 UNK         0.3000 
    180 H180       -2.9663  -13.9896  -48.4987 H         1 UNK         0.0600 
    181 H181       -4.6328  -11.5415  -47.7119 H         1 UNK         0.0600 
    182 H182       -5.2625  -13.1576  -48.0141 H         1 UNK         0.0600 
    183 H183       -4.5278  -12.2502  -49.3230 H         1 UNK         0.0600 
    184 H184       -2.3127  -11.3114  -48.7747 H         1 UNK         0.3000 
    185 H185       -0.1847  -10.8701  -49.5881 H         1 UNK         0.0600 
    186 H186        0.9816  -10.6627  -46.7507 H         1 UNK         0.0600 
    187 H187        1.1808   -9.4693  -48.0341 H         1 UNK         0.0600 
    188 H188       -0.4079   -9.7635  -47.3478 H         1 UNK         0.0600 
    189 H189        2.3381  -11.6956  -48.5128 H         1 UNK         0.3000 
    190 H190       -0.3616  -22.8842  -45.0376 H         1 UNK         0.3000 
    191 H191       -2.7433  -22.8409  -46.5912 H         1 UNK         0.0600 
    192 H192       -2.3627  -22.2731  -43.6018 H         1 UNK         0.0600 
    193 H193       -3.7149  -21.7420  -44.5948 H         1 UNK         0.0600 
    194 H194       -2.1072  -21.1044  -44.8880 H         1 UNK         0.0600 
    195 H195       -1.5048  -25.2867  -44.4666 H         1 UNK         0.3000 
    196 H196       -4.0268  -26.5581  -43.7960 H         1 UNK         0.0600 
    197 H197       -2.5387  -28.3772  -42.9899 H         1 UNK         0.0600 
    198 H198       -1.9652  -26.8218  -42.4085 H         1 UNK         0.0600 
    199 H199       -1.1490  -27.6163  -43.7546 H         1 UNK         0.0600 
    200 H200       -2.2347  -26.3335  -46.7104 H         1 UNK         0.3000 
    201 H201       -3.4678  -28.7909  -47.8777 H         1 UNK         0.0600 
    202 H202       -0.9479  -28.8957  -47.7425 H         1 UNK         0.0600 
    203 H203       -0.8388  -27.3749  -48.6226 H         1 UNK         0.0600 
    204 H204       -1.4971  -28.8086  -49.4048 H         1 UNK         0.0600 
    205 H205       -3.5814  -28.4332  -50.3527 H         1 UNK         0.3000 
    206 H206       -5.0864  -25.9928  -50.9623 H         1 UNK         0.0600 
    207 H207       -5.8616  -28.2346  -51.7401 H         1 UNK         0.0600 
    208 H208       -5.5286  -27.1757  -53.0990 H         1 UNK         0.0600 
    209 H209       -4.3779  -28.4365  -52.6728 H         1 UNK         0.0600 
    210 H210       -1.8814  -26.4988  -50.7425 H         1 UNK         0.3000 
    211 H211       -0.5704  -25.8358  -53.0756 H         1 UNK         0.0600 
    212 H212        1.2536  -25.0676  -51.4870 H         1 UNK         0.0600 
    213 H213        0.5812  -26.6378  -51.0716 H         1 UNK         0.0600 
    214 H214        0.1038  -25.2080  -50.1599 H         1 UNK         0.0600 
    215 H215       -0.8392  -24.1903  -54.3848 H         1 UNK         0.3000 
    216 H216       -1.2314  -22.2391  -55.3263 H         1 UNK         0.0600 
    217 H217       -0.1347  -20.2273  -54.3753 H         1 UNK         0.0600 
    218 H218        0.9130  -21.6266  -54.2342 H         1 UNK         0.0600 
    219 H219        0.0481  -21.0346  -52.8207 H         1 UNK         0.0600 
    220 H220       -3.3418  -23.3809  -53.6053 H         1 UNK         0.3000 
    221 H221       -5.4016  -23.0639  -52.9664 H         1 UNK         0.0600 
    222 H222       -6.7714  -21.2066  -53.8020 H         1 UNK         0.0600 
    223 H223       -5.7145  -21.7717  -55.0832 H         1 UNK         0.0600 
    224 H224       -5.3416  -20.2764  -54.2283 H         1 UNK         0.0600 
    225 H225       -3.0776  -22.2216  -51.2669 H         1 UNK         0.3000 
    226 H226       -2.6399  -21.5044  -49.2309 H         1 UNK         0.0600 
    227 H227       -4.4828  -22.9952  -48.5477 H         1 UNK         0.0600 
    228 H228       -4.4649  -21.5866  -47.5050 H         1 UNK         0.0600 
    229 H229       -5.6722  -21.7210  -48.7773 H         1 UNK         0.0600 
    230 H230       -5.1685  -19.7037  -48.0705 H         1 UNK         0.3000 
    231 H231       -3.7337  -17.2505  -48.1859 H         1 UNK         0.0600 
    232 H232       -5.6580  -16.3855  -46.9174 H         1 UNK         0.0600 
    233 H233       -5.2367  -17.9827  -46.3155 H         1 UNK         0.0600 
    234 H234       -6.6365  -17.7794  -47.3656 H         1 UNK         0.0600 
    235 H235       -5.9438  -18.6154  -50.4782 H         1 UNK         0.3000 
    236 H236       -7.3345  -16.3060  -51.3253 H         1 UNK         0.0600 
    237 H237       -8.0730  -18.6708  -51.7251 H         1 UNK         0.0600 
    238 H238       -8.0624  -17.7202  -53.2032 H         1 UNK         0.0600 
    239 H239       -6.7675  -18.8649  -52.8948 H         1 UNK         0.0600 
    240 H240       -4.0345  -17.1041  -51.9480 H         1 UNK         0.3000 
    241 H241       -3.7824  -15.5988  -54.4100 H         1 UNK         0.0600 
    242 H242       -3.7479  -12.8589  -51.4474 H         1 UNK         0.3800 
    243 H243       -4.2774  -14.4955  -51.1284 H         1 UNK         0.3800 
    244 H244       -2.1646  -17.3498  -53.9256 H         1 UNK         0.0800 
    245 H245       -1.3723  -15.8143  -54.1318 H         1 UNK         0.0800 
    246 H246       -1.0477  -18.9143  -52.2969 H         1 UNK         0.0800 
    247 H247        0.3007  -18.0529  -53.0187 H         1 UNK         0.0800 
@<TRIPOS>BOND
     1    1    2 1    
     2    1  127 1    
     3    1  128 1    
     4    1  129 1    
     5    2    3 2    
     6    2    4 am   BACKBONE|DICT|INTERRES
     7    4    5 1    
     8    4  130 1    
     9    5    6 1    
    10    5   65 1    
    11    5  131 1    
    12    6    7 1    
    13    6  132 1    
    14    6  133 1    
    15    7    8 1    
    16    8    9 1    
    17    8  134 1    
    18    8  135 1    
    19    9   10 ar   
    20    9   14 ar   
    21   10   11 ar   
    22   10  136 1    
    23   11   12 ar   
    24   11  126 1    
    25   12   13 ar   
    26   12  137 1    
    27   13   14 ar   
    28   13   15 1    
    29   14  138 1    
    30   15   16 1    
    31   15  139 1    
    32   15  140 1    
    33   16   17 1    
    34   17   18 1    
    35   17  141 1    
    36   17  142 1    
    37   18   19 1    
    38   18   67 1    
    39   18  143 1    
    40   19   20 am   BACKBONE|DICT|INTERRES
    41   19  144 1    
    42   20   21 2    
    43   20   22 1    
    44   22   23 1    
    45   22   24 1    
    46   22  145 1    
    47   23  146 1    
    48   23  147 1    
    49   23  148 1    
    50   24   25 am   BACKBONE|DICT|INTERRES
    51   24  149 1    
    52   25   26 2    
    53   25   27 1    
    54   27   28 1    
    55   27   29 1    
    56   27  150 1    
    57   28  151 1    
    58   28  152 1    
    59   28  153 1    
    60   29   30 am   BACKBONE|DICT|INTERRES
    61   29  154 1    
    62   30   31 2    
    63   30   32 1    
    64   32   33 1    
    65   32   34 1    
    66   32  155 1    
    67   33  156 1    
    68   33  157 1    
    69   33  158 1    
    70   34   35 am   BACKBONE|DICT|INTERRES
    71   34  159 1    
    72   35   36 2    
    73   35   37 1    
    74   37   38 1    
    75   37   39 1    
    76   37  160 1    
    77   38  161 1    
    78   38  162 1    
    79   38  163 1    
    80   39   40 am   BACKBONE|DICT|INTERRES
    81   39  164 1    
    82   40   41 2    
    83   40   42 1    
    84   42   43 1    
    85   42   44 1    
    86   42  165 1    
    87   43  166 1    
    88   43  167 1    
    89   43  168 1    
    90   44   45 am   BACKBONE|DICT|INTERRES
    91   44  169 1    
    92   45   46 2    
    93   45   47 1    
    94   47   48 1    
    95   47   49 1    
    96   47  170 1    
    97   48  171 1    
    98   48  172 1    
    99   48  173 1    
   100   49   50 am   BACKBONE|DICT|INTERRES
   101   49  174 1    
   102   50   51 2    
   103   50   52 1    
   104   52   53 1    
   105   52   54 1    
   106   52  175 1    
   107   53  176 1    
   108   53  177 1    
   109   53  178 1    
   110   54   55 am   BACKBONE|DICT|INTERRES
   111   54  179 1    
   112   55   56 2    
   113   55   57 1    
   114   57   58 1    
   115   57   59 1    
   116   57  180 1    
   117   58  181 1    
   118   58  182 1    
   119   58  183 1    
   120   59   60 am   BACKBONE|DICT|INTERRES
   121   59  184 1    
   122   60   61 2    
   123   60   62 1    
   124   62   63 1    
   125   62   64 1    
   126   62  185 1    
   127   63  186 1    
   128   63  187 1    
   129   63  188 1    
   130   64   65 am   BACKBONE|DICT|INTERRES
   131   64  189 1    
   132   65   66 2    
   133   67   68 2    
   134   67   69 am   BACKBONE|DICT|INTERRES
   135   69   70 1    
   136   69  190 1    
   137   70   71 1    
   138   70   72 1    
   139   70  191 1    
   140   71  192 1    
   141   71  193 1    
   142   71  194 1    
   143   72   73 2    
   144   72   74 am   BACKBONE|DICT|INTERRES
   145   74   75 1    
   146   74  195 1    
   147   75   76 1    
   148   75   77 1    
   149   75  196 1    
   150   76  197 1    
   151   76  198 1    
   152   76  199 1    
   153   77   78 2    
   154   77   79 am   BACKBONE|DICT|INTERRES
   155   79   80 1    
   156   79  200 1    
   157   80   81 1    
   158   80   82 1    
   159   80  201 1    
   160   81  202 1    
   161   81  203 1    
   162   81  204 1    
   163   82   83 2    
   164   82   84 am   BACKBONE|DICT|INTERRES
   165   84   85 1    
   166   84  205 1    
   167   85   86 1    
   168   85   87 1    
   169   85  206 1    
   170   86  207 1    
   171   86  208 1    
   172   86  209 1    
   173   87   88 2    
   174   87   89 am   BACKBONE|DICT|INTERRES
   175   89   90 1    
   176   89  210 1    
   177   90   91 1    
   178   90   92 1    
   179   90  211 1    
   180   91  212 1    
   181   91  213 1    
   182   91  214 1    
   183   92   93 2    
   184   92   94 am   BACKBONE|DICT|INTERRES
   185   94   95 1    
   186   94  215 1    
   187   95   96 1    
   188   95   97 1    
   189   95  216 1    
   190   96  217 1    
   191   96  218 1    
   192   96  219 1    
   193   97   98 2    
   194   97   99 am   BACKBONE|DICT|INTERRES
   195   99  100 1    
   196   99  220 1    
   197  100  101 1    
   198  100  102 1    
   199  100  221 1    
   200  101  222 1    
   201  101  223 1    
   202  101  224 1    
   203  102  103 2    
   204  102  104 am   BACKBONE|DICT|INTERRES
   205  104  105 1    
   206  104  225 1    
   207  105  106 1    
   208  105  107 1    
   209  105  226 1    
   210  106  227 1    
   211  106  228 1    
   212  106  229 1    
   213  107  108 2    
   214  107  109 am   BACKBONE|DICT|INTERRES
   215  109  110 1    
   216  109  230 1    
   217  110  111 1    
   218  110  112 1    
   219  110  231 1    
   220  111  232 1    
   221  111  233 1    
   222  111  234 1    
   223  112  113 2    
   224  112  114 am   BACKBONE|DICT|INTERRES
   225  114  115 1    
   226  114  235 1    
   227  115  116 1    
   228  115  117 1    
   229  115  236 1    
   230  116  237 1    
   231  116  238 1    
   232  116  239 1    
   233  117  118 2    
   234  117  119 am   BACKBONE|DICT|INTERRES
   235  119  120 1    
   236  119  240 1    
   237  120  121 1    
   238  120  124 1    
   239  120  241 1    
   240  121  122 am   BACKBONE|DICT|INTERRES
   241  121  123 2    
   242  122  242 1    
   243  122  243 1    
   244  124  125 1    
   245  124  244 1    
   246  124  245 1    
   247  125  126 1    
   248  126  246 1    
   249  126  247 1    
@<TRIPOS>SUBSTRUCTURE
     1 UNK         1 GROUP             0       ****    0 ROOT    
