@<TRIPOS>MOLECULE
3R540
247   249    1
SMALL
USER_CHARGES


@<TRIPOS>ATOM
      1 CA          3.4534  -16.2361  -48.2151 C.3       0 UNK        -0.1800 
      2 C           2.1889  -15.6872  -47.5718 C.2       0 UNK         0.5000 
      3 O           1.3828  -16.4600  -47.0612 O.2       0 UNK        -0.5000 
      4 N           2.0125  -14.3627  -47.5977 N.am      1 UNK        -0.5000 
      5 CA          0.8672  -13.6533  -47.0259 C.3       1 UNK         0.1400 
      6 C6         -0.0655  -13.0597  -48.1142 C.3       23 UNK        -0.0398 
      7 S7         -1.0779  -14.3463  -48.9179 S.3       23 UNK        -0.2404 
      8 C8         -0.0918  -14.7088  -50.4009 C.3       23 UNK        -0.0205 
      9 C9         -0.5228  -16.0208  -51.0354 C.ar      23 UNK        -0.0193 
     10 C10        -1.3195  -16.0238  -52.1840 C.ar      23 UNK        -0.1150 
     11 C11        -1.6964  -17.2306  -52.7781 C.ar      23 UNK        -0.0193 
     12 C12        -1.2722  -18.4350  -52.2122 C.ar      23 UNK        -0.1150 
     13 C13        -0.4758  -18.4538  -51.0637 C.ar      23 UNK        -0.0193 
     14 C14        -0.1107  -17.2356  -50.4765 C.ar      23 UNK        -0.1150 
     15 C15        -0.0540  -19.8125  -50.5024 C.3       23 UNK        -0.0205 
     16 S16         1.4284  -19.8123  -49.4334 S.3       23 UNK        -0.2404 
     17 C17         0.7002  -19.6552  -47.7662 C.3       23 UNK        -0.0398 
     18 CA          0.5321  -21.0306  -47.0723 C.3       11 UNK         0.1400 
     19 N           0.6269  -20.9459  -45.6138 N.am      11 UNK        -0.5000 
     20 C           0.7990  -22.0055  -44.8093 C.2       10 UNK         0.5000 
     21 O           0.9443  -23.1580  -45.2167 O.2       10 UNK        -0.5000 
     22 CA          0.7525  -21.7363  -43.2956 C.3       10 UNK         0.1400 
     23 CB          2.1287  -21.2882  -42.7828 C.3       10 UNK        -0.1800 
     24 N          -0.2611  -20.7372  -42.9516 N.am      10 UNK        -0.5000 
     25 C          -1.5805  -20.9655  -43.0338 C.2       9 UNK         0.5000 
     26 O          -2.0616  -22.0471  -43.3703 O.2       9 UNK        -0.5000 
     27 CA         -2.5270  -19.7885  -42.7380 C.3       9 UNK         0.1400 
     28 CB         -2.9026  -19.7581  -41.2507 C.3       9 UNK        -0.1800 
     29 N          -1.9932  -18.4882  -43.1481 N.am      9 UNK        -0.5000 
     30 C          -1.7341  -18.1471  -44.4189 C.2       8 UNK         0.5000 
     31 O          -1.8719  -18.9274  -45.3622 O.2       8 UNK        -0.5000 
     32 CA         -1.2064  -16.7299  -44.7102 C.3       8 UNK         0.1400 
     33 CB         -2.1095  -16.0007  -45.7261 C.3       8 UNK        -0.1800 
     34 N          -0.9440  -15.9114  -43.5209 N.am      8 UNK        -0.5000 
     35 C          -1.8161  -15.2884  -42.7158 C.2       7 UNK         0.5000 
     36 O          -3.0375  -15.2946  -42.8712 O.2       7 UNK        -0.5000 
     37 CA         -1.1784  -14.5634  -41.5131 C.3       7 UNK         0.1400 
     38 CB         -2.2059  -14.0298  -40.4931 C.3       7 UNK        -0.1800 
     39 N          -0.1585  -15.3971  -40.8644 N.am      7 UNK        -0.5000 
     40 C          -0.3563  -16.5744  -40.2507 C.2       6 UNK         0.5000 
     41 O          -1.4655  -17.0833  -40.0928 O.2       6 UNK        -0.5000 
     42 CA          0.9092  -17.3133  -39.7688 C.3       6 UNK         0.1400 
     43 CB          0.6502  -18.7878  -39.3923 C.3       6 UNK        -0.1800 
     44 N           2.0205  -17.2137  -40.7198 N.am      6 UNK        -0.5000 
     45 C           2.0478  -17.6573  -41.9867 C.2       5 UNK         0.5000 
     46 O           1.0919  -18.2112  -42.5320 O.2       5 UNK        -0.5000 
     47 CA          3.3447  -17.4219  -42.7875 C.3       5 UNK         0.1400 
     48 CB          3.0482  -17.1046  -44.2630 C.3       5 UNK        -0.1800 
     49 N           4.1247  -16.3236  -42.2177 N.am      5 UNK        -0.5000 
     50 C           5.2230  -16.4521  -41.4608 C.2       4 UNK         0.5000 
     51 O           5.7638  -17.5308  -41.2173 O.2       4 UNK        -0.5000 
     52 CA          5.8012  -15.1602  -40.8438 C.3       4 UNK         0.1400 
     53 CB          6.9853  -14.6523  -41.6806 C.3       4 UNK        -0.1800 
     54 N           4.8187  -14.0800  -40.7127 N.am      4 UNK        -0.5000 
     55 C           3.7351  -14.1054  -39.9227 C.2       3 UNK         0.5000 
     56 O           3.4674  -15.0342  -39.1609 O.2       3 UNK        -0.5000 
     57 CA          2.7451  -12.9317  -40.0684 C.3       3 UNK         0.1400 
     58 CB          3.0697  -11.8244  -39.0554 C.3       3 UNK        -0.1800 
     59 N           2.7150  -12.3589  -41.4199 N.am      3 UNK        -0.5000 
     60 C           2.3803  -13.0272  -42.5313 C.2       2 UNK         0.5000 
     61 O           2.0219  -14.2104  -42.5343 O.2       2 UNK        -0.5000 
     62 CA          2.5206  -12.2646  -43.8556 C.3       2 UNK         0.1400 
     63 CB          4.0029  -12.0099  -44.1880 C.3       2 UNK        -0.1800 
     64 N           1.9143  -13.0582  -44.9169 N.am      2 UNK        -0.5000 
     65 C           1.4340  -12.5913  -46.0728 C.2       1 UNK         0.5000 
     66 O           1.4713  -11.4055  -46.4057 O.2       1 UNK        -0.5000 
     67 C          -0.7700  -21.7360  -47.4950 C.2       11 UNK         0.5000 
     68 O          -0.7255  -22.6243  -48.3440 O.2       11 UNK        -0.5000 
     69 N          -1.8923  -21.3687  -46.8596 N.am      12 UNK        -0.5000 
     70 CA         -3.2071  -21.9727  -47.0791 C.3       12 UNK         0.1400 
     71 CB         -4.2695  -21.1877  -46.2967 C.3       12 UNK        -0.1800 
     72 C          -3.2577  -23.4690  -46.7165 C.2       12 UNK         0.5000 
     73 O          -3.9222  -24.2380  -47.4088 O.2       12 UNK        -0.5000 
     74 N          -2.5387  -23.8684  -45.6590 N.am      13 UNK        -0.5000 
     75 CA         -2.3760  -25.2676  -45.2659 C.3       13 UNK         0.1400 
     76 CB         -1.7576  -25.3377  -43.8614 C.3       13 UNK        -0.1800 
     77 C          -1.5317  -26.0716  -46.2733 C.2       13 UNK         0.5000 
     78 O          -1.8600  -27.2249  -46.5540 O.2       13 UNK        -0.5000 
     79 N          -0.4618  -25.4547  -46.7917 N.am      14 UNK        -0.5000 
     80 CA          0.4807  -26.0770  -47.7187 C.3       14 UNK         0.1400 
     81 CB          1.8052  -25.2971  -47.6911 C.3       14 UNK        -0.1800 
     82 C          -0.0567  -26.1790  -49.1574 C.2       14 UNK         0.5000 
     83 O           0.0286  -27.2490  -49.7617 O.2       14 UNK        -0.5000 
     84 N          -0.5638  -25.0616  -49.6915 N.am      15 UNK        -0.5000 
     85 CA         -0.9013  -24.8975  -51.1079 C.3       15 UNK         0.1400 
     86 CB         -0.4327  -23.5028  -51.5548 C.3       15 UNK        -0.1800 
     87 C          -2.3993  -25.0773  -51.4145 C.2       15 UNK         0.5000 
     88 O          -2.7674  -25.0397  -52.5890 O.2       15 UNK        -0.5000 
     89 N          -3.2273  -25.2550  -50.3753 N.am      16 UNK        -0.5000 
     90 CA         -4.6945  -25.2258  -50.3966 C.3       16 UNK         0.1400 
     91 CB         -5.2868  -26.2634  -51.3788 C.3       16 UNK        -0.1800 
     92 C          -5.2281  -23.7903  -50.6041 C.2       16 UNK         0.5000 
     93 O          -4.5140  -22.8232  -50.3274 O.2       16 UNK        -0.5000 
     94 N          -6.4920  -23.6704  -51.0345 N.am      17 UNK        -0.5000 
     95 CA         -7.1989  -22.4042  -51.2425 C.3       17 UNK         0.1400 
     96 CB         -8.6346  -22.7058  -51.6987 C.3       17 UNK        -0.1800 
     97 C          -6.5021  -21.4921  -52.2677 C.2       17 UNK         0.5000 
     98 O          -6.0082  -21.9854  -53.2838 O.2       17 UNK        -0.5000 
     99 N          -6.5142  -20.1775  -52.0068 N.am      18 UNK        -0.5000 
    100 CA        -5.8434  -19.1521  -52.8136 C.3       18 UNK         0.1400 
    101 CB        -6.0316  -17.7773  -52.1563 C.3       18 UNK        -0.1800 
    102 C         -6.2928  -19.1149  -54.2865 C.2       18 UNK         0.5000 
    103 O         -5.4668  -18.8792  -55.1674 O.2       18 UNK        -0.5000 
    104 N         -7.5796  -19.4007  -54.5266 N.am      19 UNK        -0.5000 
    105 CA        -8.1802  -19.5029  -55.8579 C.3       19 UNK         0.1400 
    106 CB        -9.7052  -19.6133  -55.7079 C.3       19 UNK        -0.1800 
    107 C         -7.6347  -20.6776  -56.6955 C.2       19 UNK         0.5000 
    108 O         -7.6592  -20.5991  -57.9242 O.2       19 UNK        -0.5000 
    109 N         -7.1528  -21.7341  -56.0266 N.am      20 UNK        -0.5000 
    110 CA        -6.4817  -22.8692  -56.6529 C.3       20 UNK         0.1400 
    111 CB        -6.7950  -24.1540  -55.8676 C.3       20 UNK        -0.1800 
    112 C         -4.9677  -22.6180  -56.7243 C.2       20 UNK         0.5000 
    113 O         -4.3786  -22.7653  -57.7955 O.2       20 UNK        -0.5000 
    114 N         -4.3738  -22.2153  -55.5915 N.am      21 UNK        -0.5000 
    115 CA        -2.9365  -21.9986  -55.4099 C.3       21 UNK         0.1400 
    116 CB        -2.6655  -21.6482  -53.9410 C.3       21 UNK        -0.1800 
    117 C         -2.3382  -20.9256  -56.3391 C.2       21 UNK         0.5000 
    118 O         -1.2348  -21.1195  -56.8509 O.2       21 UNK        -0.5000 
    119 N         -3.0868  -19.8393  -56.5595 N.am      22 UNK        -0.5000 
    120 CA        -2.7638  -18.7613  -57.5080 C.3       22 UNK         0.1400 
    121 C         -3.6361  -18.8261  -58.7979 C.2       22 UNK         0.5000 
    122 N         -4.3086  -19.9323  -59.0955 N.am      22 UNK        -0.7600 
    123 O         -3.6931  -17.8656  -59.5612 O.2       22 UNK        -0.5000 
    124 C124       -2.8140  -17.3654  -56.8293 C.3       23 UNK        -0.0398 
    125 S125       -1.5419  -17.1715  -55.5329 S.3       23 UNK        -0.2404 
    126 C126       -2.5593  -17.2400  -54.0295 C.3       23 UNK        -0.0205 
    127 H127        4.0755  -15.4433  -48.6309 H         1 UNK         0.0600 
    128 H128        3.1928  -16.9236  -49.0201 H         1 UNK         0.0600 
    129 H129        4.0418  -16.7818  -47.4777 H         1 UNK         0.0600 
    130 H130        2.7279  -13.7716  -47.9978 H         1 UNK         0.3000 
    131 H131        0.2759  -14.3254  -46.4032 H         1 UNK         0.0600 
    132 H132        0.5018  -12.5030  -48.8619 H         1 UNK         0.0800 
    133 H133       -0.7631  -12.3472  -47.6703 H         1 UNK         0.0800 
    134 H134       -0.1905  -13.8845  -51.1088 H         1 UNK         0.0800 
    135 H135        0.9660  -14.7682  -50.1452 H         1 UNK         0.0800 
    136 H136       -1.6409  -15.0884  -52.6202 H         1 UNK         0.1150 
    137 H137       -1.5587  -19.3669  -52.6744 H         1 UNK         0.1150 
    138 H138        0.4932  -17.2200  -49.5813 H         1 UNK         0.1150 
    139 H139       -0.9003  -20.2526  -49.9751 H         1 UNK         0.0800 
    140 H140        0.1610  -20.4811  -51.3373 H         1 UNK         0.0800 
    141 H141        1.3981  -19.0466  -47.1912 H         1 UNK         0.0800 
    142 H142       -0.2307  -19.0851  -47.7984 H         1 UNK         0.0800 
    143 H143        1.3596  -21.6691  -47.3913 H         1 UNK         0.0600 
    144 H144        0.4569  -20.0433  -45.1950 H         1 UNK         0.3000 
    145 H145        0.4930  -22.6711  -42.7940 H         1 UNK         0.0600 
    146 H146        2.0982  -21.0487  -41.7196 H         1 UNK         0.0600 
    147 H147        2.8678  -22.0785  -42.9189 H         1 UNK         0.0600 
    148 H148        2.4910  -20.4102  -43.3173 H         1 UNK         0.0600 
    149 H149        0.0718  -19.8069  -42.7083 H         1 UNK         0.3000 
    150 H150       -3.4436  -19.9542  -43.3067 H         1 UNK         0.0600 
    151 H151       -3.3994  -20.6835  -40.9568 H         1 UNK         0.0600 
    152 H152       -3.5853  -18.9372  -41.0303 H         1 UNK         0.0600 
    153 H153       -2.0248  -19.6450  -40.6155 H         1 UNK         0.0600 
    154 H154       -1.8231  -17.8120  -42.4162 H         1 UNK         0.3000 
    155 H155       -0.2313  -16.8720  -45.1722 H         1 UNK         0.0600 
    156 H156       -1.8283  -14.9559  -45.8449 H         1 UNK         0.0600 
    157 H157       -3.1578  -16.0274  -45.4273 H         1 UNK         0.0600 
    158 H158       -2.0414  -16.4718  -46.7076 H         1 UNK         0.0600 
    159 H159        0.0271  -15.8805  -43.2421 H         1 UNK         0.3000 
    160 H160       -0.6546  -13.6993  -41.9237 H         1 UNK         0.0600 
    161 H161       -1.7110  -13.5265  -39.6627 H         1 UNK         0.0600 
    162 H162       -2.8746  -13.3055  -40.9595 H         1 UNK         0.0600 
    163 H163       -2.8272  -14.8255  -40.0815 H         1 UNK         0.0600 
    164 H164        0.7970  -15.1014  -41.0217 H         1 UNK         0.3000 
    165 H165        1.2311  -16.7961  -38.8639 H         1 UNK         0.0600 
    166 H166        0.3155  -19.3746  -40.2473 H         1 UNK         0.0600 
    167 H167        1.5534  -19.2564  -39.0018 H         1 UNK         0.0600 
    168 H168       -0.1151  -18.8681  -38.6196 H         1 UNK         0.0600 
    169 H169        2.8388  -16.7330  -40.3667 H         1 UNK         0.3000 
    170 H170        3.9151  -18.3517  -42.7505 H         1 UNK         0.0600 
    171 H171        2.5364  -17.9348  -44.7518 H         1 UNK         0.0600 
    172 H172        2.4144  -16.2242  -44.3665 H         1 UNK         0.0600 
    173 H173        3.9674  -16.9219  -44.8193 H         1 UNK         0.0600 
    174 H174        3.7156  -15.4039  -42.3285 H         1 UNK         0.3000 
    175 H175        6.1655  -15.4079  -39.8447 H         1 UNK         0.0600 
    176 H176        6.6744  -14.3689  -42.6871 H         1 UNK         0.0600 
    177 H177        7.4537  -13.7844  -41.2160 H         1 UNK         0.0600 
    178 H178        7.7535  -15.4206  -41.7782 H         1 UNK         0.0600 
    179 H179        4.9576  -13.2729  -41.3023 H         1 UNK         0.3000 
    180 H180        1.7471  -13.3140  -39.8454 H         1 UNK         0.0600 
    181 H181        4.0479  -11.3801  -39.2432 H         1 UNK         0.0600 
    182 H182        3.0767  -12.2161  -38.0372 H         1 UNK         0.0600 
    183 H183        2.3261  -11.0280  -39.0899 H         1 UNK         0.0600 
    184 H184        2.9974  -11.3922  -41.4992 H         1 UNK         0.3000 
    185 H185        1.9905  -11.3148  -43.7600 H         1 UNK         0.0600 
    186 H186        4.4857  -11.4044  -43.4204 H         1 UNK         0.0600 
    187 H187        4.5610  -12.9435  -44.2722 H         1 UNK         0.0600 
    188 H188        4.1099  -11.4733  -45.1309 H         1 UNK         0.0600 
    189 H189        1.8300  -14.0418  -44.6960 H         1 UNK         0.3000 
    190 H190       -1.8528  -20.5948  -46.2001 H         1 UNK         0.3000 
    191 H191       -3.4315  -21.8805  -48.1425 H         1 UNK         0.0600 
    192 H192       -4.2683  -20.1338  -46.5757 H         1 UNK         0.0600 
    193 H193       -5.2679  -21.5778  -46.4985 H         1 UNK         0.0600 
    194 H194       -4.1030  -21.2512  -45.2216 H         1 UNK         0.0600 
    195 H195       -2.0841  -23.1718  -45.0787 H         1 UNK         0.3000 
    196 H196       -3.3663  -25.7258  -45.2211 H         1 UNK         0.0600 
    197 H197       -1.6314  -26.3724  -43.5405 H         1 UNK         0.0600 
    198 H198       -2.3942  -24.8450  -43.1263 H         1 UNK         0.0600 
    199 H199       -0.7776  -24.8607  -43.8276 H         1 UNK         0.0600 
    200 H200       -0.2456  -24.5127  -46.4881 H         1 UNK         0.3000 
    201 H201        0.6874  -27.0911  -47.3696 H         1 UNK         0.0600 
    202 H202        2.2442  -25.3040  -46.6932 H         1 UNK         0.0600 
    203 H203        1.6678  -24.2561  -47.9863 H         1 UNK         0.0600 
    204 H204        2.5349  -25.7390  -48.3707 H         1 UNK         0.0600 
    205 H205       -0.6127  -24.2159  -49.1227 H         1 UNK         0.3000 
    206 H206       -0.3591  -25.6351  -51.7032 H         1 UNK         0.0600 
    207 H207        0.6128  -23.3313  -51.2981 H         1 UNK         0.0600 
    208 H208       -0.5232  -23.3908  -52.6354 H         1 UNK         0.0600 
    209 H209       -1.0270  -22.7150  -51.0903 H         1 UNK         0.0600 
    210 H210       -2.8180  -25.2185  -49.4518 H         1 UNK         0.3000 
    211 H211       -5.0087  -25.5238  -49.3964 H         1 UNK         0.0600 
    212 H212       -5.1995  -25.9422  -52.4173 H         1 UNK         0.0600 
    213 H213       -6.3447  -26.4354  -51.1788 H         1 UNK         0.0600 
    214 H214       -4.7855  -27.2266  -51.2834 H         1 UNK         0.0600 
    215 H215       -7.0040  -24.5094  -51.2616 H         1 UNK         0.3000 
    216 H216       -7.2372  -21.8869  -50.2818 H         1 UNK         0.0600 
    217 H217       -9.1665  -23.3064  -50.9605 H         1 UNK         0.0600 
    218 H218       -8.6496  -23.2466  -52.6462 H         1 UNK         0.0600 
    219 H219       -9.2040  -21.7859  -51.8374 H         1 UNK         0.0600 
    220 H220       -6.9591  -19.8545  -51.1598 H         1 UNK         0.3000 
    221 H221       -4.7783  -19.3825  -52.8008 H         1 UNK         0.0600 
    222 H222       -5.5279  -16.9975  -52.7293 H         1 UNK         0.0600 
    223 H223       -7.0853  -17.5047  -52.0862 H         1 UNK         0.0600 
    224 H224       -5.6108  -17.7600  -51.1507 H         1 UNK         0.0600 
    225 H225       -8.1828  -19.5898  -53.7399 H         1 UNK         0.3000 
    226 H226       -7.9539  -18.5822  -56.3998 H         1 UNK         0.0600 
    227 H227      -10.1911  -19.6644  -56.6833 H         1 UNK         0.0600 
    228 H228       -9.9908  -20.5070  -55.1516 H         1 UNK         0.0600 
    229 H229      -10.1148  -18.7473  -55.1877 H         1 UNK         0.0600 
    230 H230       -7.1128  -21.6955  -55.0154 H         1 UNK         0.3000 
    231 H231       -6.8519  -23.0051  -57.6714 H         1 UNK         0.0600 
    232 H232       -6.3192  -25.0183  -56.3324 H         1 UNK         0.0600 
    233 H233       -7.8675  -24.3471  -55.8437 H         1 UNK         0.0600 
    234 H234       -6.4429  -24.1034  -54.8368 H         1 UNK         0.0600 
    235 H235       -4.9462  -22.1250  -54.7545 H         1 UNK         0.3000 
    236 H236       -2.4356  -22.9433  -55.6306 H         1 UNK         0.0600 
    237 H237       -3.0190  -22.4329  -53.2724 H         1 UNK         0.0600 
    238 H238       -1.5981  -21.5177  -53.7610 H         1 UNK         0.0600 
    239 H239       -3.1656  -20.7244  -53.6578 H         1 UNK         0.0600 
    240 H240       -3.9844  -19.7477  -56.0924 H         1 UNK         0.3000 
    241 H241       -1.7437  -18.8946  -57.8714 H         1 UNK         0.0600 
    242 H242       -4.8703  -19.9573  -59.9316 H         1 UNK         0.3800 
    243 H243       -4.2396  -20.7588  -58.5161 H         1 UNK         0.3800 
    244 H244       -3.8059  -17.1710  -56.4192 H         1 UNK         0.0800 
    245 H245       -2.6329  -16.5766  -57.5611 H         1 UNK         0.0800 
    246 H246       -3.2546  -16.3994  -54.0169 H         1 UNK         0.0800 
    247 H247       -3.1637  -18.1457  -54.0537 H         1 UNK         0.0800 
@<TRIPOS>BOND
     1    1    2 1    
     2    1  127 1    
     3    1  128 1    
     4    1  129 1    
     5    2    3 2    
     6    2    4 am   BACKBONE|DICT|INTERRES
     7    4    5 1    
     8    4  130 1    
     9    5    6 1    
    10    5   65 1    
    11    5  131 1    
    12    6    7 1    
    13    6  132 1    
    14    6  133 1    
    15    7    8 1    
    16    8    9 1    
    17    8  134 1    
    18    8  135 1    
    19    9   10 ar   
    20    9   14 ar   
    21   10   11 ar   
    22   10  136 1    
    23   11   12 ar   
    24   11  126 1    
    25   12   13 ar   
    26   12  137 1    
    27   13   14 ar   
    28   13   15 1    
    29   14  138 1    
    30   15   16 1    
    31   15  139 1    
    32   15  140 1    
    33   16   17 1    
    34   17   18 1    
    35   17  141 1    
    36   17  142 1    
    37   18   19 1    
    38   18   67 1    
    39   18  143 1    
    40   19   20 am   BACKBONE|DICT|INTERRES
    41   19  144 1    
    42   20   21 2    
    43   20   22 1    
    44   22   23 1    
    45   22   24 1    
    46   22  145 1    
    47   23  146 1    
    48   23  147 1    
    49   23  148 1    
    50   24   25 am   BACKBONE|DICT|INTERRES
    51   24  149 1    
    52   25   26 2    
    53   25   27 1    
    54   27   28 1    
    55   27   29 1    
    56   27  150 1    
    57   28  151 1    
    58   28  152 1    
    59   28  153 1    
    60   29   30 am   BACKBONE|DICT|INTERRES
    61   29  154 1    
    62   30   31 2    
    63   30   32 1    
    64   32   33 1    
    65   32   34 1    
    66   32  155 1    
    67   33  156 1    
    68   33  157 1    
    69   33  158 1    
    70   34   35 am   BACKBONE|DICT|INTERRES
    71   34  159 1    
    72   35   36 2    
    73   35   37 1    
    74   37   38 1    
    75   37   39 1    
    76   37  160 1    
    77   38  161 1    
    78   38  162 1    
    79   38  163 1    
    80   39   40 am   BACKBONE|DICT|INTERRES
    81   39  164 1    
    82   40   41 2    
    83   40   42 1    
    84   42   43 1    
    85   42   44 1    
    86   42  165 1    
    87   43  166 1    
    88   43  167 1    
    89   43  168 1    
    90   44   45 am   BACKBONE|DICT|INTERRES
    91   44  169 1    
    92   45   46 2    
    93   45   47 1    
    94   47   48 1    
    95   47   49 1    
    96   47  170 1    
    97   48  171 1    
    98   48  172 1    
    99   48  173 1    
   100   49   50 am   BACKBONE|DICT|INTERRES
   101   49  174 1    
   102   50   51 2    
   103   50   52 1    
   104   52   53 1    
   105   52   54 1    
   106   52  175 1    
   107   53  176 1    
   108   53  177 1    
   109   53  178 1    
   110   54   55 am   BACKBONE|DICT|INTERRES
   111   54  179 1    
   112   55   56 2    
   113   55   57 1    
   114   57   58 1    
   115   57   59 1    
   116   57  180 1    
   117   58  181 1    
   118   58  182 1    
   119   58  183 1    
   120   59   60 am   BACKBONE|DICT|INTERRES
   121   59  184 1    
   122   60   61 2    
   123   60   62 1    
   124   62   63 1    
   125   62   64 1    
   126   62  185 1    
   127   63  186 1    
   128   63  187 1    
   129   63  188 1    
   130   64   65 am   BACKBONE|DICT|INTERRES
   131   64  189 1    
   132   65   66 2    
   133   67   68 2    
   134   67   69 am   BACKBONE|DICT|INTERRES
   135   69   70 1    
   136   69  190 1    
   137   70   71 1    
   138   70   72 1    
   139   70  191 1    
   140   71  192 1    
   141   71  193 1    
   142   71  194 1    
   143   72   73 2    
   144   72   74 am   BACKBONE|DICT|INTERRES
   145   74   75 1    
   146   74  195 1    
   147   75   76 1    
   148   75   77 1    
   149   75  196 1    
   150   76  197 1    
   151   76  198 1    
   152   76  199 1    
   153   77   78 2    
   154   77   79 am   BACKBONE|DICT|INTERRES
   155   79   80 1    
   156   79  200 1    
   157   80   81 1    
   158   80   82 1    
   159   80  201 1    
   160   81  202 1    
   161   81  203 1    
   162   81  204 1    
   163   82   83 2    
   164   82   84 am   BACKBONE|DICT|INTERRES
   165   84   85 1    
   166   84  205 1    
   167   85   86 1    
   168   85   87 1    
   169   85  206 1    
   170   86  207 1    
   171   86  208 1    
   172   86  209 1    
   173   87   88 2    
   174   87   89 am   BACKBONE|DICT|INTERRES
   175   89   90 1    
   176   89  210 1    
   177   90   91 1    
   178   90   92 1    
   179   90  211 1    
   180   91  212 1    
   181   91  213 1    
   182   91  214 1    
   183   92   93 2    
   184   92   94 am   BACKBONE|DICT|INTERRES
   185   94   95 1    
   186   94  215 1    
   187   95   96 1    
   188   95   97 1    
   189   95  216 1    
   190   96  217 1    
   191   96  218 1    
   192   96  219 1    
   193   97   98 2    
   194   97   99 am   BACKBONE|DICT|INTERRES
   195   99  100 1    
   196   99  220 1    
   197  100  101 1    
   198  100  102 1    
   199  100  221 1    
   200  101  222 1    
   201  101  223 1    
   202  101  224 1    
   203  102  103 2    
   204  102  104 am   BACKBONE|DICT|INTERRES
   205  104  105 1    
   206  104  225 1    
   207  105  106 1    
   208  105  107 1    
   209  105  226 1    
   210  106  227 1    
   211  106  228 1    
   212  106  229 1    
   213  107  108 2    
   214  107  109 am   BACKBONE|DICT|INTERRES
   215  109  110 1    
   216  109  230 1    
   217  110  111 1    
   218  110  112 1    
   219  110  231 1    
   220  111  232 1    
   221  111  233 1    
   222  111  234 1    
   223  112  113 2    
   224  112  114 am   BACKBONE|DICT|INTERRES
   225  114  115 1    
   226  114  235 1    
   227  115  116 1    
   228  115  117 1    
   229  115  236 1    
   230  116  237 1    
   231  116  238 1    
   232  116  239 1    
   233  117  118 2    
   234  117  119 am   BACKBONE|DICT|INTERRES
   235  119  120 1    
   236  119  240 1    
   237  120  121 1    
   238  120  124 1    
   239  120  241 1    
   240  121  122 am   BACKBONE|DICT|INTERRES
   241  121  123 2    
   242  122  242 1    
   243  122  243 1    
   244  124  125 1    
   245  124  244 1    
   246  124  245 1    
   247  125  126 1    
   248  126  246 1    
   249  126  247 1    
@<TRIPOS>SUBSTRUCTURE
     1 UNK         1 GROUP             0       ****    0 ROOT    
