@<TRIPOS>MOLECULE
3R540
247   249    1
SMALL
USER_CHARGES


@<TRIPOS>ATOM
      1 CA         -1.6412  -11.4564  -49.3315 C.3       0 UNK        -0.1800 
      2 C          -0.2813  -10.7755  -49.2610 C.2       0 UNK         0.5000 
      3 O          -0.2106   -9.5478  -49.1952 O.2       0 UNK        -0.5000 
      4 N           0.7947  -11.5692  -49.2829 N.am      1 UNK        -0.5000 
      5 CA          2.1817  -11.1239  -49.1225 C.3       1 UNK         0.1400 
      6 C6          3.1875  -12.1325  -49.7421 C.3       23 UNK        -0.0398 
      7 S7          2.9372  -13.8697  -49.2315 S.3       23 UNK        -0.2404 
      8 C8          2.1849  -14.5551  -50.7419 C.3       23 UNK        -0.0205 
      9 C9          1.5968  -15.9350  -50.4959 C.ar      23 UNK        -0.0193 
     10 C10         2.3686  -17.0807  -50.7036 C.ar      23 UNK        -0.1150 
     11 C11         1.8264  -18.3497  -50.4813 C.ar      23 UNK        -0.0193 
     12 C12         0.5112  -18.4635  -50.0231 C.ar      23 UNK        -0.1150 
     13 C13        -0.2885  -17.3278  -49.8482 C.ar      23 UNK        -0.0193 
     14 C14         0.2684  -16.0669  -50.0818 C.ar      23 UNK        -0.1150 
     15 C15        -1.7518  -17.4182  -49.4185 C.3       23 UNK        -0.0205 
     16 S16        -2.5973  -18.9572  -49.9229 S.3       23 UNK        -0.2404 
     17 C17        -2.7100  -19.8937  -48.3616 C.3       23 UNK        -0.0398 
     18 CA         -1.8361  -21.1830  -48.3314 C.3       11 UNK         0.1400 
     19 N          -0.6568  -21.0326  -47.4736 N.am      11 UNK        -0.5000 
     20 C           0.2785  -21.9672  -47.2488 C.2       10 UNK         0.5000 
     21 O           0.3056  -23.0657  -47.8015 O.2       10 UNK        -0.5000 
     22 CA          1.3255  -21.6493  -46.1674 C.3       10 UNK         0.1400 
     23 CB          2.4380  -20.7495  -46.7267 C.3       10 UNK        -0.1800 
     24 N           0.7322  -21.0424  -44.9729 N.am      10 UNK        -0.5000 
     25 C          -0.1670  -21.6514  -44.1840 C.2       9 UNK         0.5000 
     26 O          -0.5575  -22.8047  -44.3591 O.2       9 UNK        -0.5000 
     27 CA         -0.7667  -20.8287  -43.0294 C.3       9 UNK         0.1400 
     28 CB          0.2097  -20.7546  -41.8467 C.3       9 UNK        -0.1800 
     29 N          -1.1560  -19.4796  -43.4380 N.am      9 UNK        -0.5000 
     30 C          -2.0963  -19.2046  -44.3542 C.2       8 UNK         0.5000 
     31 O          -2.7797  -20.0603  -44.9190 O.2       8 UNK        -0.5000 
     32 CA         -2.2542  -17.7256  -44.7537 C.3       8 UNK         0.1400 
     33 CB         -3.0799  -16.9569  -43.7119 C.3       8 UNK        -0.1800 
     34 N          -0.9689  -17.0545  -44.9531 N.am      8 UNK        -0.5000 
     35 C          -0.0327  -17.4350  -45.8349 C.2       7 UNK         0.5000 
     36 O          -0.1621  -18.3839  -46.6044 O.2       7 UNK        -0.5000 
     37 CA          1.2931  -16.6617  -45.8029 C.3       7 UNK         0.1400 
     38 CB          1.1282  -15.2834  -46.4622 C.3       7 UNK        -0.1800 
     39 N           1.7831  -16.5258  -44.4294 N.am      7 UNK        -0.5000 
     40 C           2.2242  -17.5545  -43.6874 C.2       6 UNK         0.5000 
     41 O           2.3483  -18.6997  -44.1189 O.2       6 UNK        -0.5000 
     42 CA          2.5246  -17.2818  -42.2023 C.3       6 UNK         0.1400 
     43 CB          4.0105  -16.9690  -41.9750 C.3       6 UNK        -0.1800 
     44 N           1.6987  -16.2040  -41.6604 N.am      6 UNK        -0.5000 
     45 C           0.3977  -16.3428  -41.3672 C.2       5 UNK         0.5000 
     46 O          -0.2157  -17.4041  -41.4823 O.2       5 UNK        -0.5000 
     47 CA         -0.3569  -15.0749  -40.9242 C.3       5 UNK         0.1400 
     48 CB         -0.2296  -14.8715  -39.4076 C.3       5 UNK        -0.1800 
     49 N           0.0983  -13.8666  -41.6155 N.am      5 UNK        -0.5000 
     50 C           0.0114  -13.6689  -42.9378 C.2       4 UNK         0.5000 
     51 O          -0.5060  -14.4805  -43.7042 O.2       4 UNK        -0.5000 
     52 CA          0.6201  -12.3717  -43.5088 C.3       4 UNK         0.1400 
     53 CB          0.7172  -11.2317  -42.4721 C.3       4 UNK        -0.1800 
     54 N           1.9262  -12.5714  -44.1485 N.am      4 UNK        -0.5000 
     55 C           3.0276  -13.1271  -43.6146 C.2       3 UNK         0.5000 
     56 O           3.0404  -13.7097  -42.5300 O.2       3 UNK        -0.5000 
     57 CA          4.3556  -12.9788  -44.3938 C.3       3 UNK         0.1400 
     58 CB          4.7380  -14.2684  -45.1388 C.3       3 UNK        -0.1800 
     59 N           4.3609  -11.8643  -45.3427 N.am      3 UNK        -0.5000 
     60 C           4.2911  -10.5685  -45.0084 C.2       2 UNK         0.5000 
     61 O           4.3534  -10.1628  -43.8472 O.2       2 UNK        -0.5000 
     62 CA          4.0942   -9.5487  -46.1507 C.3       2 UNK         0.1400 
     63 CB          5.3938   -8.7658  -46.3964 C.3       2 UNK        -0.1800 
     64 N           3.6285  -10.0959  -47.4331 N.am      2 UNK        -0.5000 
     65 C           2.5013  -10.7914  -47.6465 C.2       1 UNK         0.5000 
     66 O           1.7511  -11.1687  -46.7410 O.2       1 UNK        -0.5000 
     67 C          -2.6762  -22.4080  -47.9124 C.2       11 UNK         0.5000 
     68 O          -2.8892  -23.3081  -48.7237 O.2       11 UNK        -0.5000 
     69 N          -3.1089  -22.4237  -46.6427 N.am      12 UNK        -0.5000 
     70 CA         -3.9476  -23.4700  -46.0537 C.3       12 UNK         0.1400 
     71 CB         -4.3798  -23.0290  -44.6476 C.3       12 UNK        -0.1800 
     72 C          -3.2836  -24.8599  -46.0054 C.2       12 UNK         0.5000 
     73 O          -3.9825  -25.8684  -46.1108 O.2       12 UNK        -0.5000 
     74 N          -1.9548  -24.8982  -45.8430 N.am      13 UNK        -0.5000 
     75 CA         -1.1597  -26.1234  -45.8941 C.3       13 UNK         0.1400 
     76 CB          0.2280  -25.8608  -45.2892 C.3       13 UNK        -0.1800 
     77 C          -1.0321  -26.6756  -47.3251 C.2       13 UNK         0.5000 
     78 O          -1.1081  -27.8902  -47.5155 O.2       13 UNK        -0.5000 
     79 N          -0.8279  -25.7798  -48.2993 N.am      14 UNK        -0.5000 
     80 CA         -0.6269  -26.1184  -49.7058 C.3       14 UNK         0.1400 
     81 CB          0.0533  -24.9397  -50.4128 C.3       14 UNK        -0.1800 
     82 C          -1.9177  -26.5329  -50.4352 C.2       14 UNK         0.5000 
     83 O          -1.8571  -27.4287  -51.2792 O.2       14 UNK        -0.5000 
     84 N          -3.0522  -25.8995  -50.1114 N.am      15 UNK        -0.5000 
     85 CA         -4.3563  -26.2032  -50.6957 C.3       15 UNK         0.1400 
     86 CB         -4.6441  -25.2333  -51.8559 C.3       15 UNK        -0.1800 
     87 C          -5.4473  -26.0891  -49.6268 C.2       15 UNK         0.5000 
     88 O          -5.4479  -25.1306  -48.8553 O.2       15 UNK        -0.5000 
     89 N          -6.4117  -27.0192  -49.6490 N.am      16 UNK        -0.5000 
     90 CA         -7.5854  -27.0206  -48.7657 C.3       16 UNK         0.1400 
     91 CB         -8.3389  -28.3489  -48.9320 C.3       16 UNK        -0.1800 
     92 C          -8.5331  -25.8265  -49.0065 C.2       16 UNK         0.5000 
     93 O          -9.2267  -25.4001  -48.0831 O.2       16 UNK        -0.5000 
     94 N          -8.5149  -25.2902  -50.2347 N.am      17 UNK        -0.5000 
     95 CA         -9.2040  -24.0626  -50.6370 C.3       17 UNK         0.1400 
     96 CB         -9.3841  -24.0874  -52.1637 C.3       17 UNK        -0.1800 
     97 C          -8.4675  -22.7768  -50.2007 C.2       17 UNK         0.5000 
     98 O          -9.0074  -21.6870  -50.3942 O.2       17 UNK        -0.5000 
     99 N          -7.2547  -22.9171  -49.6436 N.am      18 UNK        -0.5000 
    100 CA        -6.3245  -21.8760  -49.2107 C.3       18 UNK         0.1400 
    101 CB        -6.8995  -21.0350  -48.0515 C.3       18 UNK        -0.1800 
    102 C         -5.8101  -21.0313  -50.3873 C.2       18 UNK         0.5000 
    103 O         -4.7537  -21.3436  -50.9316 O.2       18 UNK        -0.5000 
    104 N         -6.5705  -19.9988  -50.7741 N.am      19 UNK        -0.5000 
    105 CA        -6.2202  -18.9683  -51.7600 C.3       19 UNK         0.1400 
    106 CB        -7.3526  -17.9298  -51.7958 C.3       19 UNK        -0.1800 
    107 C         -5.9025  -19.4712  -53.1857 C.2       19 UNK         0.5000 
    108 O         -5.3685  -18.7046  -53.9879 O.2       19 UNK        -0.5000 
    109 N         -6.2284  -20.7357  -53.4821 N.am      20 UNK        -0.5000 
    110 CA        -5.8588  -21.4308  -54.7148 C.3       20 UNK         0.1400 
    111 CB        -6.6801  -22.7261  -54.8103 C.3       20 UNK        -0.1800 
    112 C         -4.3504  -21.7479  -54.8136 C.2       20 UNK         0.5000 
    113 O         -3.8510  -21.9439  -55.9229 O.2       20 UNK        -0.5000 
    114 N         -3.6570  -21.8206  -53.6692 N.am      21 UNK        -0.5000 
    115 CA        -2.2288  -22.1154  -53.5806 C.3       21 UNK         0.1400 
    116 CB        -1.8934  -22.4819  -52.1310 C.3       21 UNK        -0.1800 
    117 C         -1.3336  -20.9442  -54.0247 C.2       21 UNK         0.5000 
    118 O         -1.7454  -19.7837  -53.9673 O.2       21 UNK        -0.5000 
    119 N         -0.0936  -21.2905  -54.3956 N.am      22 UNK        -0.5000 
    120 CA         1.0410  -20.3778  -54.6375 C.3       22 UNK         0.1400 
    121 C          0.8943  -19.4375  -55.8740 C.2       22 UNK         0.5000 
    122 N         -0.0463  -19.6750  -56.7799 N.am      22 UNK        -0.7600 
    123 O          1.6690  -18.4991  -56.0408 O.2       22 UNK        -0.5000 
    124 C124        1.4834  -19.6145  -53.3546 C.3       23 UNK        -0.0398 
    125 S125        1.8418  -20.7283  -51.9466 S.3       23 UNK        -0.2404 
    126 C126        2.6522  -19.5979  -50.7636 C.3       23 UNK        -0.0205 
    127 H127       -1.5489  -12.5409  -49.3982 H         1 UNK         0.0600 
    128 H128       -2.1913  -11.1076  -50.2055 H         1 UNK         0.0600 
    129 H129       -2.2251  -11.2195  -48.4421 H         1 UNK         0.0600 
    130 H130        0.6722  -12.5709  -49.2853 H         1 UNK         0.3000 
    131 H131        2.2910  -10.1877  -49.6745 H         1 UNK         0.0600 
    132 H132        3.1193  -12.0742  -50.8293 H         1 UNK         0.0800 
    133 H133        4.2174  -11.8542  -49.5138 H         1 UNK         0.0800 
    134 H134        1.4043  -13.8844  -51.1043 H         1 UNK         0.0800 
    135 H135        2.9379  -14.6020  -51.5301 H         1 UNK         0.0800 
    136 H136        3.3891  -16.9819  -51.0463 H         1 UNK         0.1150 
    137 H137        0.1066  -19.4478  -49.8407 H         1 UNK         0.1150 
    138 H138       -0.3345  -15.1814  -49.9378 H         1 UNK         0.1150 
    139 H139       -1.8233  -17.2656  -48.3427 H         1 UNK         0.0800 
    140 H140       -2.3041  -16.5936  -49.8714 H         1 UNK         0.0800 
    141 H141       -3.7707  -20.1177  -48.2404 H         1 UNK         0.0800 
    142 H142       -2.4778  -19.2460  -47.5189 H         1 UNK         0.0800 
    143 H143       -1.4594  -21.3904  -49.3330 H         1 UNK         0.0600 
    144 H144       -0.5521  -20.1334  -47.0073 H         1 UNK         0.3000 
    145 H145        1.7811  -22.5935  -45.8623 H         1 UNK         0.0600 
    146 H146        3.2135  -20.5722  -45.9817 H         1 UNK         0.0600 
    147 H147        2.0557  -19.7811  -47.0494 H         1 UNK         0.0600 
    148 H148        2.9168  -21.2166  -47.5877 H         1 UNK         0.0600 
    149 H149        1.0333  -20.0998  -44.7483 H         1 UNK         0.3000 
    150 H150       -1.6687  -21.3424  -42.6905 H         1 UNK         0.0600 
    151 H151        0.4712  -21.7534  -41.4951 H         1 UNK         0.0600 
    152 H152       -0.2284  -20.2176  -41.0052 H         1 UNK         0.0600 
    153 H153        1.1364  -20.2512  -42.1207 H         1 UNK         0.0600 
    154 H154       -0.6770  -18.7093  -42.9838 H         1 UNK         0.3000 
    155 H155       -2.7927  -17.6915  -45.7023 H         1 UNK         0.0600 
    156 H156       -4.0604  -17.4151  -43.5766 H         1 UNK         0.0600 
    157 H157       -3.2420  -15.9244  -44.0218 H         1 UNK         0.0600 
    158 H158       -2.5887  -16.9395  -42.7390 H         1 UNK         0.0600 
    159 H159       -0.7892  -16.2310  -44.3845 H         1 UNK         0.3000 
    160 H160        2.0341  -17.2243  -46.3751 H         1 UNK         0.0600 
    161 H161        0.2931  -14.7162  -46.0562 H         1 UNK         0.0600 
    162 H162        0.9382  -15.3978  -47.5273 H         1 UNK         0.0600 
    163 H163        2.0205  -14.6727  -46.3594 H         1 UNK         0.0600 
    164 H164        1.6453  -15.6317  -43.9820 H         1 UNK         0.3000 
    165 H165        2.2983  -18.1970  -41.6517 H         1 UNK         0.0600 
    166 H166        4.2360  -16.8983  -40.9109 H         1 UNK         0.0600 
    167 H167        4.6432  -17.7550  -42.3893 H         1 UNK         0.0600 
    168 H168        4.3072  -16.0301  -42.4382 H         1 UNK         0.0600 
    169 H169        2.1239  -15.2833  -41.6114 H         1 UNK         0.3000 
    170 H170       -1.4127  -15.2189  -41.1627 H         1 UNK         0.0600 
    171 H171        0.8047  -14.6935  -39.1104 H         1 UNK         0.0600 
    172 H172       -0.8270  -14.0238  -39.0716 H         1 UNK         0.0600 
    173 H173       -0.5807  -15.7506  -38.8654 H         1 UNK         0.0600 
    174 H174        0.5654  -13.1691  -41.0548 H         1 UNK         0.3000 
    175 H175       -0.0579  -12.0410  -44.2970 H         1 UNK         0.0600 
    176 H176        1.4475  -11.4435  -41.6905 H         1 UNK         0.0600 
    177 H177        1.0161  -10.2995  -42.9520 H         1 UNK         0.0600 
    178 H178       -0.2455  -11.0509  -41.9919 H         1 UNK         0.0600 
    179 H179        2.0097  -12.1438  -45.0671 H         1 UNK         0.3000 
    180 H180        5.1284  -12.7871  -43.6465 H         1 UNK         0.0600 
    181 H181        5.7958  -14.2605  -45.4022 H         1 UNK         0.0600 
    182 H182        4.1775  -14.3902  -46.0639 H         1 UNK         0.0600 
    183 H183        4.5660  -15.1554  -44.5308 H         1 UNK         0.0600 
    184 H184        4.3022  -12.1027  -46.3213 H         1 UNK         0.3000 
    185 H185        3.3334   -8.8437  -45.8099 H         1 UNK         0.0600 
    186 H186        5.2416   -7.9610  -47.1159 H         1 UNK         0.0600 
    187 H187        5.7580   -8.3084  -45.4754 H         1 UNK         0.0600 
    188 H188        6.1856   -9.4127  -46.7764 H         1 UNK         0.0600 
    189 H189        4.1895   -9.8412  -48.2333 H         1 UNK         0.3000 
    190 H190       -2.8749  -21.6428  -46.0346 H         1 UNK         0.3000 
    191 H191       -4.8434  -23.5600  -46.6709 H         1 UNK         0.0600 
    192 H192       -4.9363  -22.0922  -44.6823 H         1 UNK         0.0600 
    193 H193       -3.5197  -22.8832  -43.9926 H         1 UNK         0.0600 
    194 H194       -5.0261  -23.7752  -44.1837 H         1 UNK         0.0600 
    195 H195       -1.4544  -24.0321  -45.6703 H         1 UNK         0.3000 
    196 H196       -1.6543  -26.8826  -45.2844 H         1 UNK         0.0600 
    197 H197        0.1501  -25.5473  -44.2480 H         1 UNK         0.0600 
    198 H198        0.7638  -25.0820  -45.8330 H         1 UNK         0.0600 
    199 H199        0.8423  -26.7617  -45.3128 H         1 UNK         0.0600 
    200 H200       -0.7516  -24.7964  -48.0584 H         1 UNK         0.3000 
    201 H201        0.0566  -26.9687  -49.7566 H         1 UNK         0.0600 
    202 H202        1.0679  -24.7932  -50.0423 H         1 UNK         0.0600 
    203 H203       -0.4951  -24.0152  -50.2384 H         1 UNK         0.0600 
    204 H204        0.1169  -25.0987  -51.4900 H         1 UNK         0.0600 
    205 H205       -3.0408  -25.1481  -49.4238 H         1 UNK         0.3000 
    206 H206       -4.3648  -27.2253  -51.0800 H         1 UNK         0.0600 
    207 H207       -4.6764  -24.1976  -51.5138 H         1 UNK         0.0600 
    208 H208       -3.8814  -25.3057  -52.6314 H         1 UNK         0.0600 
    209 H209       -5.6041  -25.4536  -52.3237 H         1 UNK         0.0600 
    210 H210       -6.3538  -27.7739  -50.3179 H         1 UNK         0.3000 
    211 H211       -7.2301  -26.9539  -47.7350 H         1 UNK         0.0600 
    212 H212       -8.7007  -28.4821  -49.9523 H         1 UNK         0.0600 
    213 H213       -9.2037  -28.3930  -48.2686 H         1 UNK         0.0600 
    214 H214       -7.7006  -29.1982  -48.6873 H         1 UNK         0.0600 
    215 H215       -7.9263  -25.7234  -50.9304 H         1 UNK         0.3000 
    216 H216      -10.1932  -24.0439  -50.1751 H         1 UNK         0.0600 
    217 H217       -9.9131  -23.1998  -52.5136 H         1 UNK         0.0600 
    218 H218       -9.9666  -24.9538  -52.4774 H         1 UNK         0.0600 
    219 H219       -8.4250  -24.1234  -52.6805 H         1 UNK         0.0600 
    220 H220       -6.8939  -23.8567  -49.5203 H         1 UNK         0.3000 
    221 H221       -5.4578  -22.4049  -48.8168 H         1 UNK         0.0600 
    222 H222       -7.8206  -20.5191  -48.3218 H         1 UNK         0.0600 
    223 H223       -7.1152  -21.6646  -47.1882 H         1 UNK         0.0600 
    224 H224       -6.1848  -20.2782  -47.7266 H         1 UNK         0.0600 
    225 H225       -7.4741  -19.9004  -50.3309 H         1 UNK         0.3000 
    226 H226       -5.3173  -18.4733  -51.3979 H         1 UNK         0.0600 
    227 H227       -7.5093  -17.4820  -50.8142 H         1 UNK         0.0600 
    228 H228       -7.1215  -17.1178  -52.4867 H         1 UNK         0.0600 
    229 H229       -8.2944  -18.3766  -52.1166 H         1 UNK         0.0600 
    230 H230       -6.6606  -21.2892  -52.7577 H         1 UNK         0.3000 
    231 H231       -6.1208  -20.7928  -55.5613 H         1 UNK         0.0600 
    232 H232       -6.4741  -23.2508  -55.7441 H         1 UNK         0.0600 
    233 H233       -7.7504  -22.5205  -54.7833 H         1 UNK         0.0600 
    234 H234       -6.4459  -23.4092  -53.9928 H         1 UNK         0.0600 
    235 H235       -4.1221  -21.6060  -52.7919 H         1 UNK         0.3000 
    236 H236       -2.0151  -22.9779  -54.2155 H         1 UNK         0.0600 
    237 H237       -2.1634  -21.6734  -51.4535 H         1 UNK         0.0600 
    238 H238       -2.4165  -23.3804  -51.8077 H         1 UNK         0.0600 
    239 H239       -0.8248  -22.6599  -52.0133 H         1 UNK         0.0600 
    240 H240        0.1428  -22.2718  -54.4189 H         1 UNK         0.3000 
    241 H241        1.8697  -21.0329  -54.9080 H         1 UNK         0.0600 
    242 H242       -0.6955  -20.4356  -56.6539 H         1 UNK         0.3800 
    243 H243       -0.1279  -19.0716  -57.5831 H         1 UNK         0.3800 
    244 H244        0.7118  -18.9043  -53.0534 H         1 UNK         0.0800 
    245 H245        2.3814  -19.0262  -53.5504 H         1 UNK         0.0800 
    246 H246        2.8224  -20.1291  -49.8270 H         1 UNK         0.0800 
    247 H247        3.6364  -19.3320  -51.1522 H         1 UNK         0.0800 
@<TRIPOS>BOND
     1    1    2 1    
     2    1  127 1    
     3    1  128 1    
     4    1  129 1    
     5    2    3 2    
     6    2    4 am   BACKBONE|DICT|INTERRES
     7    4    5 1    
     8    4  130 1    
     9    5    6 1    
    10    5   65 1    
    11    5  131 1    
    12    6    7 1    
    13    6  132 1    
    14    6  133 1    
    15    7    8 1    
    16    8    9 1    
    17    8  134 1    
    18    8  135 1    
    19    9   10 ar   
    20    9   14 ar   
    21   10   11 ar   
    22   10  136 1    
    23   11   12 ar   
    24   11  126 1    
    25   12   13 ar   
    26   12  137 1    
    27   13   14 ar   
    28   13   15 1    
    29   14  138 1    
    30   15   16 1    
    31   15  139 1    
    32   15  140 1    
    33   16   17 1    
    34   17   18 1    
    35   17  141 1    
    36   17  142 1    
    37   18   19 1    
    38   18   67 1    
    39   18  143 1    
    40   19   20 am   BACKBONE|DICT|INTERRES
    41   19  144 1    
    42   20   21 2    
    43   20   22 1    
    44   22   23 1    
    45   22   24 1    
    46   22  145 1    
    47   23  146 1    
    48   23  147 1    
    49   23  148 1    
    50   24   25 am   BACKBONE|DICT|INTERRES
    51   24  149 1    
    52   25   26 2    
    53   25   27 1    
    54   27   28 1    
    55   27   29 1    
    56   27  150 1    
    57   28  151 1    
    58   28  152 1    
    59   28  153 1    
    60   29   30 am   BACKBONE|DICT|INTERRES
    61   29  154 1    
    62   30   31 2    
    63   30   32 1    
    64   32   33 1    
    65   32   34 1    
    66   32  155 1    
    67   33  156 1    
    68   33  157 1    
    69   33  158 1    
    70   34   35 am   BACKBONE|DICT|INTERRES
    71   34  159 1    
    72   35   36 2    
    73   35   37 1    
    74   37   38 1    
    75   37   39 1    
    76   37  160 1    
    77   38  161 1    
    78   38  162 1    
    79   38  163 1    
    80   39   40 am   BACKBONE|DICT|INTERRES
    81   39  164 1    
    82   40   41 2    
    83   40   42 1    
    84   42   43 1    
    85   42   44 1    
    86   42  165 1    
    87   43  166 1    
    88   43  167 1    
    89   43  168 1    
    90   44   45 am   BACKBONE|DICT|INTERRES
    91   44  169 1    
    92   45   46 2    
    93   45   47 1    
    94   47   48 1    
    95   47   49 1    
    96   47  170 1    
    97   48  171 1    
    98   48  172 1    
    99   48  173 1    
   100   49   50 am   BACKBONE|DICT|INTERRES
   101   49  174 1    
   102   50   51 2    
   103   50   52 1    
   104   52   53 1    
   105   52   54 1    
   106   52  175 1    
   107   53  176 1    
   108   53  177 1    
   109   53  178 1    
   110   54   55 am   BACKBONE|DICT|INTERRES
   111   54  179 1    
   112   55   56 2    
   113   55   57 1    
   114   57   58 1    
   115   57   59 1    
   116   57  180 1    
   117   58  181 1    
   118   58  182 1    
   119   58  183 1    
   120   59   60 am   BACKBONE|DICT|INTERRES
   121   59  184 1    
   122   60   61 2    
   123   60   62 1    
   124   62   63 1    
   125   62   64 1    
   126   62  185 1    
   127   63  186 1    
   128   63  187 1    
   129   63  188 1    
   130   64   65 am   BACKBONE|DICT|INTERRES
   131   64  189 1    
   132   65   66 2    
   133   67   68 2    
   134   67   69 am   BACKBONE|DICT|INTERRES
   135   69   70 1    
   136   69  190 1    
   137   70   71 1    
   138   70   72 1    
   139   70  191 1    
   140   71  192 1    
   141   71  193 1    
   142   71  194 1    
   143   72   73 2    
   144   72   74 am   BACKBONE|DICT|INTERRES
   145   74   75 1    
   146   74  195 1    
   147   75   76 1    
   148   75   77 1    
   149   75  196 1    
   150   76  197 1    
   151   76  198 1    
   152   76  199 1    
   153   77   78 2    
   154   77   79 am   BACKBONE|DICT|INTERRES
   155   79   80 1    
   156   79  200 1    
   157   80   81 1    
   158   80   82 1    
   159   80  201 1    
   160   81  202 1    
   161   81  203 1    
   162   81  204 1    
   163   82   83 2    
   164   82   84 am   BACKBONE|DICT|INTERRES
   165   84   85 1    
   166   84  205 1    
   167   85   86 1    
   168   85   87 1    
   169   85  206 1    
   170   86  207 1    
   171   86  208 1    
   172   86  209 1    
   173   87   88 2    
   174   87   89 am   BACKBONE|DICT|INTERRES
   175   89   90 1    
   176   89  210 1    
   177   90   91 1    
   178   90   92 1    
   179   90  211 1    
   180   91  212 1    
   181   91  213 1    
   182   91  214 1    
   183   92   93 2    
   184   92   94 am   BACKBONE|DICT|INTERRES
   185   94   95 1    
   186   94  215 1    
   187   95   96 1    
   188   95   97 1    
   189   95  216 1    
   190   96  217 1    
   191   96  218 1    
   192   96  219 1    
   193   97   98 2    
   194   97   99 am   BACKBONE|DICT|INTERRES
   195   99  100 1    
   196   99  220 1    
   197  100  101 1    
   198  100  102 1    
   199  100  221 1    
   200  101  222 1    
   201  101  223 1    
   202  101  224 1    
   203  102  103 2    
   204  102  104 am   BACKBONE|DICT|INTERRES
   205  104  105 1    
   206  104  225 1    
   207  105  106 1    
   208  105  107 1    
   209  105  226 1    
   210  106  227 1    
   211  106  228 1    
   212  106  229 1    
   213  107  108 2    
   214  107  109 am   BACKBONE|DICT|INTERRES
   215  109  110 1    
   216  109  230 1    
   217  110  111 1    
   218  110  112 1    
   219  110  231 1    
   220  111  232 1    
   221  111  233 1    
   222  111  234 1    
   223  112  113 2    
   224  112  114 am   BACKBONE|DICT|INTERRES
   225  114  115 1    
   226  114  235 1    
   227  115  116 1    
   228  115  117 1    
   229  115  236 1    
   230  116  237 1    
   231  116  238 1    
   232  116  239 1    
   233  117  118 2    
   234  117  119 am   BACKBONE|DICT|INTERRES
   235  119  120 1    
   236  119  240 1    
   237  120  121 1    
   238  120  124 1    
   239  120  241 1    
   240  121  122 am   BACKBONE|DICT|INTERRES
   241  121  123 2    
   242  122  242 1    
   243  122  243 1    
   244  124  125 1    
   245  124  244 1    
   246  124  245 1    
   247  125  126 1    
   248  126  246 1    
   249  126  247 1    
@<TRIPOS>SUBSTRUCTURE
     1 UNK         1 GROUP             0       ****    0 ROOT    
