@<TRIPOS>MOLECULE
3R540
247   249    1
SMALL
USER_CHARGES


@<TRIPOS>ATOM
      1 CA          4.2186  -15.3307  -45.6567 C.3       0 UNK        -0.1800 
      2 C           2.7978  -15.8738  -45.6572 C.2       0 UNK         0.5000 
      3 O           2.3630  -16.4464  -44.6578 O.2       0 UNK        -0.5000 
      4 N           2.0845  -15.7202  -46.7786 N.am      1 UNK        -0.5000 
      5 CA          0.6947  -16.1453  -46.9447 C.3       1 UNK         0.1400 
      6 C6          0.2734  -16.2065  -48.4374 C.3       23 UNK        -0.0398 
      7 S7          1.0393  -17.5789  -49.3665 S.3       23 UNK        -0.2404 
      8 C8         -0.4570  -18.3058  -50.1034 C.3       23 UNK        -0.0205 
      9 C9         -0.1530  -19.4268  -51.0845 C.ar      23 UNK        -0.0193 
     10 C10         0.1401  -19.1281  -52.4181 C.ar      23 UNK        -0.1150 
     11 C11         0.3364  -20.1522  -53.3491 C.ar      23 UNK        -0.0193 
     12 C12         0.2640  -21.4838  -52.9316 C.ar      23 UNK        -0.1150 
     13 C13        -0.0308  -21.7962  -51.6027 C.ar      23 UNK        -0.0193 
     14 C14        -0.2324  -20.7631  -50.6817 C.ar      23 UNK        -0.1150 
     15 C15        -0.2002  -23.2488  -51.1844 C.3       23 UNK        -0.0205 
     16 S16         1.3820  -24.1246  -50.9557 S.3       23 UNK        -0.2404 
     17 C17         2.1531  -23.2456  -49.5545 C.3       23 UNK        -0.0398 
     18 CA          1.7525  -23.8205  -48.1706 C.3       11 UNK         0.1400 
     19 N           2.8177  -23.6502  -47.1803 N.am      11 UNK        -0.5000 
     20 C           2.8010  -24.1524  -45.9366 C.2       10 UNK         0.5000 
     21 O           1.9079  -24.8774  -45.4998 O.2       10 UNK        -0.5000 
     22 CA          3.9504  -23.7198  -45.0084 C.3       10 UNK         0.1400 
     23 CB          5.1317  -24.6946  -45.1207 C.3       10 UNK        -0.1800 
     24 N           4.4188  -22.3543  -45.2678 N.am      10 UNK        -0.5000 
     25 C           3.6646  -21.2559  -45.1311 C.2       9 UNK         0.5000 
     26 O           2.4753  -21.2763  -44.8021 O.2       9 UNK        -0.5000 
     27 CA          4.3379  -19.9108  -45.4509 C.3       9 UNK         0.1400 
     28 CB          3.7692  -19.3146  -46.7489 C.3       9 UNK        -0.1800 
     29 N           4.1146  -18.9755  -44.3557 N.am      9 UNK        -0.5000 
     30 C           4.7014  -19.0558  -43.1530 C.2       8 UNK         0.5000 
     31 O           5.6377  -19.8129  -42.8946 O.2       8 UNK        -0.5000 
     32 CA          4.1138  -18.1633  -42.0458 C.3       8 UNK         0.1400 
     33 CB          4.8427  -16.8131  -41.9796 C.3       8 UNK        -0.1800 
     34 N           2.6875  -17.9302  -42.2627 N.am      8 UNK        -0.5000 
     35 C           1.7210  -18.8200  -42.0032 C.2       7 UNK         0.5000 
     36 O           1.9190  -19.8917  -41.4287 O.2       7 UNK        -0.5000 
     37 CA          0.3012  -18.4277  -42.4696 C.3       7 UNK         0.1400 
     38 CB         -0.8039  -19.2897  -41.8273 C.3       7 UNK        -0.1800 
     39 N           0.0122  -16.9973  -42.3054 N.am      7 UNK        -0.5000 
     40 C           0.0845  -16.2920  -41.1632 C.2       6 UNK         0.5000 
     41 O           0.3638  -16.7687  -40.0628 O.2       6 UNK        -0.5000 
     42 CA         -0.2316  -14.7954  -41.2765 C.3       6 UNK         0.1400 
     43 CB          0.7894  -14.0746  -42.1742 C.3       6 UNK        -0.1800 
     44 N          -1.5853  -14.6254  -41.7979 N.am      6 UNK        -0.5000 
     45 C          -2.6894  -14.6331  -41.0354 C.2       5 UNK         0.5000 
     46 O          -2.6752  -14.6238  -39.8041 O.2       5 UNK        -0.5000 
     47 CA         -4.0392  -14.6924  -41.7736 C.3       5 UNK         0.1400 
     48 CB         -4.5522  -13.2775  -42.0801 C.3       5 UNK        -0.1800 
     49 N          -3.9345  -15.4727  -43.0092 N.am      5 UNK        -0.5000 
     50 C          -3.8749  -16.8145  -43.0341 C.2       4 UNK         0.5000 
     51 O          -4.0445  -17.5093  -42.0315 O.2       4 UNK        -0.5000 
     52 CA         -3.5141  -17.4995  -44.3701 C.3       4 UNK         0.1400 
     53 CB         -4.2293  -18.8510  -44.5780 C.3       4 UNK        -0.1800 
     54 N          -3.6359  -16.6265  -45.5405 N.am      4 UNK        -0.5000 
     55 C          -4.7526  -16.1162  -46.0830 C.2       3 UNK         0.5000 
     56 O          -5.8903  -16.3905  -45.7007 O.2       3 UNK        -0.5000 
     57 CA         -4.5430  -15.1055  -47.2374 C.3       3 UNK         0.1400 
     58 CB         -5.7333  -14.1384  -47.4038 C.3       3 UNK        -0.1800 
     59 N          -3.2794  -14.3553  -47.1407 N.am      3 UNK        -0.5000 
     60 C          -2.8832  -13.5822  -46.1161 C.2       2 UNK         0.5000 
     61 O          -3.5657  -13.3874  -45.1116 O.2       2 UNK        -0.5000 
     62 CA         -1.4498  -13.0136  -46.2007 C.3       2 UNK         0.1400 
     63 CB         -0.9866  -12.3687  -44.8806 C.3       2 UNK        -0.1800 
     64 N          -0.4751  -14.0154  -46.6553 N.am      2 UNK        -0.5000 
     65 C          -0.2533  -15.2351  -46.1365 C.2       1 UNK         0.5000 
     66 O          -0.7903  -15.6634  -45.1107 O.2       1 UNK        -0.5000 
     67 C           0.4295  -23.2049  -47.6745 C.2       11 UNK         0.5000 
     68 O          -0.6118  -23.8557  -47.7457 O.2       11 UNK        -0.5000 
     69 N           0.4992  -21.9733  -47.1478 N.am      12 UNK        -0.5000 
     70 CA         -0.6514  -21.2436  -46.6198 C.3       12 UNK         0.1400 
     71 CB         -0.2739  -19.7830  -46.3561 C.3       12 UNK        -0.1800 
     72 C          -1.2405  -21.8971  -45.3648 C.2       12 UNK         0.5000 
     73 O          -2.4621  -21.9906  -45.2594 O.2       12 UNK        -0.5000 
     74 N          -0.3652  -22.3793  -44.4737 N.am      13 UNK        -0.5000 
     75 CA         -0.7403  -23.1365  -43.2803 C.3       13 UNK         0.1400 
     76 CB          0.5083  -23.3701  -42.4170 C.3       13 UNK        -0.1800 
     77 C          -1.4397  -24.4709  -43.6076 C.2       13 UNK         0.5000 
     78 O          -2.3960  -24.8358  -42.9229 O.2       13 UNK        -0.5000 
     79 N          -0.9595  -25.1663  -44.6471 N.am      14 UNK        -0.5000 
     80 CA         -1.5012  -26.4432  -45.1054 C.3       14 UNK         0.1400 
     81 CB         -0.4443  -27.1689  -45.9536 C.3       14 UNK        -0.1800 
     82 C          -2.8166  -26.2922  -45.8904 C.2       14 UNK         0.5000 
     83 O          -3.7890  -26.9831  -45.5832 O.2       14 UNK        -0.5000 
     84 N          -2.8152  -25.4239  -46.9100 N.am      15 UNK        -0.5000 
     85 CA         -3.8888  -25.3252  -47.9022 C.3       15 UNK         0.1400 
     86 CB         -3.2728  -24.9060  -49.2478 C.3       15 UNK        -0.1800 
     87 C          -5.0112  -24.3437  -47.5222 C.2       15 UNK         0.5000 
     88 O          -6.0512  -24.3595  -48.1809 O.2       15 UNK        -0.5000 
     89 N          -4.7744  -23.4874  -46.5158 N.am      16 UNK        -0.5000 
     90 CA         -5.5608  -22.2890  -46.1864 C.3       16 UNK         0.1400 
     91 CB         -7.0104  -22.6345  -45.7838 C.3       16 UNK        -0.1800 
     92 C          -5.4598  -21.2258  -47.3045 C.2       16 UNK         0.5000 
     93 O          -6.4454  -20.5617  -47.6297 O.2       16 UNK        -0.5000 
     94 N          -4.2414  -21.1007  -47.8531 N.am      17 UNK        -0.5000 
     95 CA         -3.8094  -20.2328  -48.9525 C.3       17 UNK         0.1400 
     96 CB         -3.9906  -18.7422  -48.5893 C.3       17 UNK        -0.1800 
     97 C          -4.4048  -20.5987  -50.3285 C.2       17 UNK         0.5000 
     98 O          -5.1467  -21.5730  -50.4642 O.2       17 UNK        -0.5000 
     99 N          -4.0118  -19.8167  -51.3384 N.am      18 UNK        -0.5000 
    100 CA        -4.4130  -19.9388  -52.7370 C.3       18 UNK         0.1400 
    101 CB        -3.6331  -21.0679  -53.4334 C.3       18 UNK        -0.1800 
    102 C         -4.1937  -18.5815  -53.4174 C.2       18 UNK         0.5000 
    103 O         -5.1257  -18.0437  -54.0162 O.2       18 UNK        -0.5000 
    104 N         -2.9837  -18.0242  -53.2394 N.am      19 UNK        -0.5000 
    105 CA        -2.5685  -16.6656  -53.6058 C.3       19 UNK         0.1400 
    106 CB        -3.2184  -15.6406  -52.6495 C.3       19 UNK        -0.1800 
    107 C         -2.7981  -16.3611  -55.0994 C.2       19 UNK         0.5000 
    108 O         -2.0501  -16.8659  -55.9360 O.2       19 UNK        -0.5000 
    109 N         -3.8358  -15.5732  -55.4138 N.am      20 UNK        -0.5000 
    110 CA        -4.2427  -15.2021  -56.7717 C.3       20 UNK         0.1400 
    111 CB        -5.4119  -14.2094  -56.6897 C.3       20 UNK        -0.1800 
    112 C         -4.6156  -16.4018  -57.6657 C.2       20 UNK         0.5000 
    113 O         -4.4486  -16.3201  -58.8839 O.2       20 UNK        -0.5000 
    114 N         -5.0639  -17.5090  -57.0536 N.am      21 UNK        -0.5000 
    115 CA        -5.3617  -18.7728  -57.7335 C.3       21 UNK         0.1400 
    116 CB        -6.0775  -19.7181  -56.7572 C.3       21 UNK        -0.1800 
    117 C         -4.1197  -19.4584  -58.3422 C.2       21 UNK         0.5000 
    118 O         -4.2752  -20.2982  -59.2298 O.2       21 UNK        -0.5000 
    119 N         -2.9189  -19.0845  -57.8792 N.am      22 UNK        -0.5000 
    120 CA        -1.6296  -19.5352  -58.4272 C.3       22 UNK         0.1400 
    121 C         -1.2308  -18.8349  -59.7611 C.2       22 UNK         0.5000 
    122 N         -1.9387  -17.8086  -60.2221 N.am      22 UNK        -0.7600 
    123 O         -0.2612  -19.2376  -60.3980 O.2       22 UNK        -0.5000 
    124 C124       -0.4837  -19.4253  -57.3870 C.3       23 UNK        -0.0398 
    125 S125       -0.8790  -20.2551  -55.8127 S.3       23 UNK        -0.2404 
    126 C126        0.5789  -19.8253  -54.8138 C.3       23 UNK        -0.0205 
    127 H127        4.9277  -16.1395  -45.4803 H         1 UNK         0.0600 
    128 H128        4.3357  -14.5920  -44.8641 H         1 UNK         0.0600 
    129 H129        4.4720  -14.8566  -46.6051 H         1 UNK         0.0600 
    130 H130        2.5064  -15.2625  -47.5736 H         1 UNK         0.3000 
    131 H131        0.5982  -17.1460  -46.5230 H         1 UNK         0.0600 
    132 H132       -0.8112  -16.3029  -48.5139 H         1 UNK         0.0800 
    133 H133        0.5252  -15.2787  -48.9534 H         1 UNK         0.0800 
    134 H134       -1.0986  -18.6713  -49.3025 H         1 UNK         0.0800 
    135 H135       -1.0190  -17.5237  -50.6164 H         1 UNK         0.0800 
    136 H136        0.1980  -18.0965  -52.7343 H         1 UNK         0.1150 
    137 H137        0.4008  -22.2786  -53.6517 H         1 UNK         0.1150 
    138 H138       -0.4723  -21.0000  -49.6565 H         1 UNK         0.1150 
    139 H139       -0.8003  -23.3182  -50.2794 H         1 UNK         0.0800 
    140 H140       -0.7730  -23.7719  -51.9516 H         1 UNK         0.0800 
    141 H141        3.2278  -23.3646  -49.6987 H         1 UNK         0.0800 
    142 H142        1.9773  -22.1713  -49.6269 H         1 UNK         0.0800 
    143 H143        1.5957  -24.8969  -48.2715 H         1 UNK         0.0600 
    144 H144        3.5986  -23.0687  -47.4451 H         1 UNK         0.3000 
    145 H145        3.5752  -23.7537  -43.9834 H         1 UNK         0.0600 
    146 H146        5.9165  -24.4476  -44.4056 H         1 UNK         0.0600 
    147 H147        4.8144  -25.7174  -44.9121 H         1 UNK         0.0600 
    148 H148        5.5705  -24.6842  -46.1192 H         1 UNK         0.0600 
    149 H149        5.3877  -22.2551  -45.5349 H         1 UNK         0.3000 
    150 H150        5.4124  -20.0594  -45.5767 H         1 UNK         0.0600 
    151 H151        3.8958  -20.0016  -47.5864 H         1 UNK         0.0600 
    152 H152        4.2793  -18.3879  -47.0119 H         1 UNK         0.0600 
    153 H153        2.7048  -19.0933  -46.6630 H         1 UNK         0.0600 
    154 H154        3.3438  -18.3278  -44.4619 H         1 UNK         0.3000 
    155 H155        4.2499  -18.6744  -41.0904 H         1 UNK         0.0600 
    156 H156        4.4579  -16.1986  -41.1656 H         1 UNK         0.0600 
    157 H157        4.7320  -16.2486  -42.9052 H         1 UNK         0.0600 
    158 H158        5.9101  -16.9541  -41.8054 H         1 UNK         0.0600 
    159 H159        2.4433  -17.1121  -42.8124 H         1 UNK         0.3000 
    160 H160        0.2797  -18.6155  -43.5427 H         1 UNK         0.0600 
    161 H161       -0.8427  -19.1587  -40.7458 H         1 UNK         0.0600 
    162 H162       -0.6357  -20.3483  -42.0230 H         1 UNK         0.0600 
    163 H163       -1.7844  -19.0427  -42.2307 H         1 UNK         0.0600 
    164 H164       -0.1878  -16.4966  -43.1640 H         1 UNK         0.3000 
    165 H165       -0.1625  -14.3551  -40.2793 H         1 UNK         0.0600 
    166 H166        0.7727  -14.4421  -43.2003 H         1 UNK         0.0600 
    167 H167        0.6005  -13.0015  -42.1989 H         1 UNK         0.0600 
    168 H168        1.8034  -14.2150  -41.7975 H         1 UNK         0.0600 
    169 H169       -1.6955  -14.6608  -42.8011 H         1 UNK         0.3000 
    170 H170       -4.7657  -15.1752  -41.1163 H         1 UNK         0.0600 
    171 H171       -4.7765  -12.7408  -41.1577 H         1 UNK         0.0600 
    172 H172       -3.8152  -12.6873  -42.6252 H         1 UNK         0.0600 
    173 H173       -5.4670  -13.3058  -42.6724 H         1 UNK         0.0600 
    174 H174       -3.8150  -14.9444  -43.8676 H         1 UNK         0.3000 
    175 H175       -2.4492  -17.7211  -44.2902 H         1 UNK         0.0600 
    176 H176       -4.0277  -19.5343  -43.7522 H         1 UNK         0.0600 
    177 H177       -5.3108  -18.7377  -44.6496 H         1 UNK         0.0600 
    178 H178       -3.8795  -19.3432  -45.4837 H         1 UNK         0.0600 
    179 H179       -2.7524  -16.2735  -45.8823 H         1 UNK         0.3000 
    180 H180       -4.4762  -15.7018  -48.1484 H         1 UNK         0.0600 
    181 H181       -5.9056  -13.5497  -46.5022 H         1 UNK         0.0600 
    182 H182       -6.6537  -14.6821  -47.6199 H         1 UNK         0.0600 
    183 H183       -5.5666  -13.4465  -48.2293 H         1 UNK         0.0600 
    184 H184       -2.6512  -14.4546  -47.9247 H         1 UNK         0.3000 
    185 H185       -1.4730  -12.2315  -46.9608 H         1 UNK         0.0600 
    186 H186        0.0411  -12.0124  -44.9498 H         1 UNK         0.0600 
    187 H187       -1.6127  -11.5136  -44.6235 H         1 UNK         0.0600 
    188 H188       -1.0449  -13.0718  -44.0532 H         1 UNK         0.0600 
    189 H189        0.0452  -13.7518  -47.4800 H         1 UNK         0.3000 
    190 H190        1.4015  -21.5341  -47.0413 H         1 UNK         0.3000 
    191 H191       -1.4246  -21.2573  -47.3861 H         1 UNK         0.0600 
    192 H192        0.0984  -19.3173  -47.2649 H         1 UNK         0.0600 
    193 H193       -1.1364  -19.2068  -46.0189 H         1 UNK         0.0600 
    194 H194        0.5021  -19.6959  -45.5968 H         1 UNK         0.0600 
    195 H195        0.6250  -22.2240  -44.6312 H         1 UNK         0.3000 
    196 H196       -1.4438  -22.5290  -42.7077 H         1 UNK         0.0600 
    197 H197        0.2513  -23.8843  -41.4902 H         1 UNK         0.0600 
    198 H198        0.9833  -22.4272  -42.1458 H         1 UNK         0.0600 
    199 H199        1.2487  -23.9788  -42.9363 H         1 UNK         0.0600 
    200 H200       -0.1347  -24.8237  -45.1277 H         1 UNK         0.3000 
    201 H201       -1.7061  -27.0643  -44.2306 H         1 UNK         0.0600 
    202 H202        0.4546  -27.3713  -45.3710 H         1 UNK         0.0600 
    203 H203       -0.1501  -26.5810  -46.8241 H         1 UNK         0.0600 
    204 H204       -0.8208  -28.1268  -46.3143 H         1 UNK         0.0600 
    205 H205       -1.9724  -24.8861  -47.1058 H         1 UNK         0.3000 
    206 H206       -4.3442  -26.3088  -48.0363 H         1 UNK         0.0600 
    207 H207       -2.4536  -25.5656  -49.5353 H         1 UNK         0.0600 
    208 H208       -4.0152  -24.9413  -50.0461 H         1 UNK         0.0600 
    209 H209       -2.8881  -23.8865  -49.2102 H         1 UNK         0.0600 
    210 H210       -3.8884  -23.5620  -46.0307 H         1 UNK         0.3000 
    211 H211       -5.0884  -21.8477  -45.3081 H         1 UNK         0.0600 
    212 H212       -7.6032  -22.9771  -46.6319 H         1 UNK         0.0600 
    213 H213       -7.5143  -21.7594  -45.3722 H         1 UNK         0.0600 
    214 H214       -7.0333  -23.4115  -45.0199 H         1 UNK         0.0600 
    215 H215       -3.5387  -21.7316  -47.4974 H         1 UNK         0.3000 
    216 H216       -2.7410  -20.4125  -49.0561 H         1 UNK         0.0600 
    217 H217       -3.4687  -18.5073  -47.6632 H         1 UNK         0.0600 
    218 H218       -5.0403  -18.4780  -48.4603 H         1 UNK         0.0600 
    219 H219       -3.5831  -18.0799  -49.3528 H         1 UNK         0.0600 
    220 H220       -3.4511  -19.0045  -51.1295 H         1 UNK         0.3000 
    221 H221       -5.4805  -20.1649  -52.7839 H         1 UNK         0.0600 
    222 H222       -2.5571  -20.9393  -53.3231 H         1 UNK         0.0600 
    223 H223       -3.8927  -22.0412  -53.0173 H         1 UNK         0.0600 
    224 H224       -3.8518  -21.1022  -54.5008 H         1 UNK         0.0600 
    225 H225       -2.2534  -18.6043  -52.8520 H         1 UNK         0.3000 
    226 H226       -1.4901  -16.6128  -53.4535 H         1 UNK         0.0600 
    227 H227       -2.9146  -15.8256  -51.6192 H         1 UNK         0.0600 
    228 H228       -2.9109  -14.6231  -52.8948 H         1 UNK         0.0600 
    229 H229       -4.3079  -15.6769  -52.6798 H         1 UNK         0.0600 
    230 H230       -4.4203  -15.2364  -54.6627 H         1 UNK         0.3000 
    231 H231       -3.3966  -14.6975  -57.2425 H         1 UNK         0.0600 
    232 H232       -5.7246  -13.8904  -57.6850 H         1 UNK         0.0600 
    233 H233       -5.1314  -13.3131  -56.1363 H         1 UNK         0.0600 
    234 H234       -6.2799  -14.6511  -56.1985 H         1 UNK         0.0600 
    235 H235       -5.1480  -17.5078  -56.0421 H         1 UNK         0.3000 
    236 H236       -6.0464  -18.5537  -58.5554 H         1 UNK         0.0600 
    237 H237       -6.9718  -19.2549  -56.3401 H         1 UNK         0.0600 
    238 H238       -6.3894  -20.6346  -57.2594 H         1 UNK         0.0600 
    239 H239       -5.4299  -20.0041  -55.9295 H         1 UNK         0.0600 
    240 H240       -2.8606  -18.3814  -57.1516 H         1 UNK         0.3000 
    241 H241       -1.7332  -20.5940  -58.6716 H         1 UNK         0.0600 
    242 H242       -2.7431  -17.4596  -59.7173 H         1 UNK         0.3800 
    243 H243       -1.6681  -17.3721  -61.0893 H         1 UNK         0.3800 
    244 H244       -0.2563  -18.3780  -57.1826 H         1 UNK         0.0800 
    245 H245        0.4327  -19.8681  -57.7811 H         1 UNK         0.0800 
    246 H246        1.4477  -20.3757  -55.1774 H         1 UNK         0.0800 
    247 H247        0.8037  -18.7646  -54.9359 H         1 UNK         0.0800 
@<TRIPOS>BOND
     1    1    2 1    
     2    1  127 1    
     3    1  128 1    
     4    1  129 1    
     5    2    3 2    
     6    2    4 am   BACKBONE|DICT|INTERRES
     7    4    5 1    
     8    4  130 1    
     9    5    6 1    
    10    5   65 1    
    11    5  131 1    
    12    6    7 1    
    13    6  132 1    
    14    6  133 1    
    15    7    8 1    
    16    8    9 1    
    17    8  134 1    
    18    8  135 1    
    19    9   10 ar   
    20    9   14 ar   
    21   10   11 ar   
    22   10  136 1    
    23   11   12 ar   
    24   11  126 1    
    25   12   13 ar   
    26   12  137 1    
    27   13   14 ar   
    28   13   15 1    
    29   14  138 1    
    30   15   16 1    
    31   15  139 1    
    32   15  140 1    
    33   16   17 1    
    34   17   18 1    
    35   17  141 1    
    36   17  142 1    
    37   18   19 1    
    38   18   67 1    
    39   18  143 1    
    40   19   20 am   BACKBONE|DICT|INTERRES
    41   19  144 1    
    42   20   21 2    
    43   20   22 1    
    44   22   23 1    
    45   22   24 1    
    46   22  145 1    
    47   23  146 1    
    48   23  147 1    
    49   23  148 1    
    50   24   25 am   BACKBONE|DICT|INTERRES
    51   24  149 1    
    52   25   26 2    
    53   25   27 1    
    54   27   28 1    
    55   27   29 1    
    56   27  150 1    
    57   28  151 1    
    58   28  152 1    
    59   28  153 1    
    60   29   30 am   BACKBONE|DICT|INTERRES
    61   29  154 1    
    62   30   31 2    
    63   30   32 1    
    64   32   33 1    
    65   32   34 1    
    66   32  155 1    
    67   33  156 1    
    68   33  157 1    
    69   33  158 1    
    70   34   35 am   BACKBONE|DICT|INTERRES
    71   34  159 1    
    72   35   36 2    
    73   35   37 1    
    74   37   38 1    
    75   37   39 1    
    76   37  160 1    
    77   38  161 1    
    78   38  162 1    
    79   38  163 1    
    80   39   40 am   BACKBONE|DICT|INTERRES
    81   39  164 1    
    82   40   41 2    
    83   40   42 1    
    84   42   43 1    
    85   42   44 1    
    86   42  165 1    
    87   43  166 1    
    88   43  167 1    
    89   43  168 1    
    90   44   45 am   BACKBONE|DICT|INTERRES
    91   44  169 1    
    92   45   46 2    
    93   45   47 1    
    94   47   48 1    
    95   47   49 1    
    96   47  170 1    
    97   48  171 1    
    98   48  172 1    
    99   48  173 1    
   100   49   50 am   BACKBONE|DICT|INTERRES
   101   49  174 1    
   102   50   51 2    
   103   50   52 1    
   104   52   53 1    
   105   52   54 1    
   106   52  175 1    
   107   53  176 1    
   108   53  177 1    
   109   53  178 1    
   110   54   55 am   BACKBONE|DICT|INTERRES
   111   54  179 1    
   112   55   56 2    
   113   55   57 1    
   114   57   58 1    
   115   57   59 1    
   116   57  180 1    
   117   58  181 1    
   118   58  182 1    
   119   58  183 1    
   120   59   60 am   BACKBONE|DICT|INTERRES
   121   59  184 1    
   122   60   61 2    
   123   60   62 1    
   124   62   63 1    
   125   62   64 1    
   126   62  185 1    
   127   63  186 1    
   128   63  187 1    
   129   63  188 1    
   130   64   65 am   BACKBONE|DICT|INTERRES
   131   64  189 1    
   132   65   66 2    
   133   67   68 2    
   134   67   69 am   BACKBONE|DICT|INTERRES
   135   69   70 1    
   136   69  190 1    
   137   70   71 1    
   138   70   72 1    
   139   70  191 1    
   140   71  192 1    
   141   71  193 1    
   142   71  194 1    
   143   72   73 2    
   144   72   74 am   BACKBONE|DICT|INTERRES
   145   74   75 1    
   146   74  195 1    
   147   75   76 1    
   148   75   77 1    
   149   75  196 1    
   150   76  197 1    
   151   76  198 1    
   152   76  199 1    
   153   77   78 2    
   154   77   79 am   BACKBONE|DICT|INTERRES
   155   79   80 1    
   156   79  200 1    
   157   80   81 1    
   158   80   82 1    
   159   80  201 1    
   160   81  202 1    
   161   81  203 1    
   162   81  204 1    
   163   82   83 2    
   164   82   84 am   BACKBONE|DICT|INTERRES
   165   84   85 1    
   166   84  205 1    
   167   85   86 1    
   168   85   87 1    
   169   85  206 1    
   170   86  207 1    
   171   86  208 1    
   172   86  209 1    
   173   87   88 2    
   174   87   89 am   BACKBONE|DICT|INTERRES
   175   89   90 1    
   176   89  210 1    
   177   90   91 1    
   178   90   92 1    
   179   90  211 1    
   180   91  212 1    
   181   91  213 1    
   182   91  214 1    
   183   92   93 2    
   184   92   94 am   BACKBONE|DICT|INTERRES
   185   94   95 1    
   186   94  215 1    
   187   95   96 1    
   188   95   97 1    
   189   95  216 1    
   190   96  217 1    
   191   96  218 1    
   192   96  219 1    
   193   97   98 2    
   194   97   99 am   BACKBONE|DICT|INTERRES
   195   99  100 1    
   196   99  220 1    
   197  100  101 1    
   198  100  102 1    
   199  100  221 1    
   200  101  222 1    
   201  101  223 1    
   202  101  224 1    
   203  102  103 2    
   204  102  104 am   BACKBONE|DICT|INTERRES
   205  104  105 1    
   206  104  225 1    
   207  105  106 1    
   208  105  107 1    
   209  105  226 1    
   210  106  227 1    
   211  106  228 1    
   212  106  229 1    
   213  107  108 2    
   214  107  109 am   BACKBONE|DICT|INTERRES
   215  109  110 1    
   216  109  230 1    
   217  110  111 1    
   218  110  112 1    
   219  110  231 1    
   220  111  232 1    
   221  111  233 1    
   222  111  234 1    
   223  112  113 2    
   224  112  114 am   BACKBONE|DICT|INTERRES
   225  114  115 1    
   226  114  235 1    
   227  115  116 1    
   228  115  117 1    
   229  115  236 1    
   230  116  237 1    
   231  116  238 1    
   232  116  239 1    
   233  117  118 2    
   234  117  119 am   BACKBONE|DICT|INTERRES
   235  119  120 1    
   236  119  240 1    
   237  120  121 1    
   238  120  124 1    
   239  120  241 1    
   240  121  122 am   BACKBONE|DICT|INTERRES
   241  121  123 2    
   242  122  242 1    
   243  122  243 1    
   244  124  125 1    
   245  124  244 1    
   246  124  245 1    
   247  125  126 1    
   248  126  246 1    
   249  126  247 1    
@<TRIPOS>SUBSTRUCTURE
     1 UNK         1 GROUP             0       ****    0 ROOT    
