@<TRIPOS>MOLECULE
3R540
247   249    1
SMALL
USER_CHARGES


@<TRIPOS>ATOM
      1 CA         -4.6700  -14.9791  -43.4884 C.3       0 UNK        -0.1800 
      2 C          -4.0384  -14.7213  -44.8480 C.2       0 UNK         0.5000 
      3 O          -3.0718  -15.3899  -45.2093 O.2       0 UNK        -0.5000 
      4 N          -4.5640  -13.7422  -45.5979 N.am      1 UNK        -0.5000 
      5 CA         -4.1357  -13.3117  -46.9395 C.3       1 UNK         0.1400 
      6 C6         -4.1103  -14.4696  -47.9718 C.3       23 UNK        -0.0398 
      7 S7         -4.3064  -13.9080  -49.6986 S.3       23 UNK        -0.2404 
      8 C8         -2.7018  -14.3952  -50.4313 C.3       23 UNK        -0.0205 
      9 C9         -2.3934  -15.8961  -50.4497 C.ar      23 UNK        -0.0193 
     10 C10        -1.0873  -16.3029  -50.7438 C.ar      23 UNK        -0.1150 
     11 C11        -0.7364  -17.6591  -50.7570 C.ar      23 UNK        -0.0193 
     12 C12        -1.7059  -18.6113  -50.4380 C.ar      23 UNK        -0.1150 
     13 C13        -3.0116  -18.2255  -50.1292 C.ar      23 UNK        -0.0193 
     14 C14        -3.3566  -16.8743  -50.1690 C.ar      23 UNK        -0.1150 
     15 C15        -4.0399  -19.2608  -49.7026 C.3       23 UNK        -0.0205 
     16 S16        -4.4151  -19.1664  -47.9206 S.3       23 UNK        -0.2404 
     17 C17        -2.7814  -19.4318  -47.1546 C.3       23 UNK        -0.0398 
     18 CA         -2.3201  -20.9097  -47.1668 C.3       11 UNK         0.1400 
     19 N          -0.8694  -21.0266  -46.9942 N.am      11 UNK        -0.5000 
     20 C          -0.1720  -22.1709  -47.0481 C.2       10 UNK         0.5000 
     21 O          -0.6699  -23.2652  -47.3065 O.2       10 UNK        -0.5000 
     22 CA          1.3249  -22.0906  -46.7015 C.3       10 UNK         0.1400 
     23 CB          2.1362  -21.5811  -47.9022 C.3       10 UNK        -0.1800 
     24 N           1.5837  -21.2522  -45.5297 N.am      10 UNK        -0.5000 
     25 C           1.1251  -21.5066  -44.2946 C.2       9 UNK         0.5000 
     26 O           0.4889  -22.5168  -43.9959 O.2       9 UNK        -0.5000 
     27 CA          1.3556  -20.4194  -43.2284 C.3       9 UNK         0.1400 
     28 CB          2.7834  -20.4823  -42.6670 C.3       9 UNK        -0.1800 
     29 N           1.0814  -19.0770  -43.7415 N.am      9 UNK        -0.5000 
     30 C          -0.1180  -18.6643  -44.1768 C.2       8 UNK         0.5000 
     31 O          -1.1386  -19.3503  -44.1232 O.2       8 UNK        -0.5000 
     32 CA         -0.1710  -17.2749  -44.8304 C.3       8 UNK         0.1400 
     33 CB         -0.3117  -16.1798  -43.7639 C.3       8 UNK        -0.1800 
     34 N           1.0103  -17.0226  -45.6582 N.am      8 UNK        -0.5000 
     35 C           1.2415  -17.6215  -46.8356 C.2       7 UNK         0.5000 
     36 O           0.4656  -18.4235  -47.3524 O.2       7 UNK        -0.5000 
     37 CA          2.5837  -17.3174  -47.5298 C.3       7 UNK         0.1400 
     38 CB          2.4979  -16.0286  -48.3619 C.3       7 UNK        -0.1800 
     39 N           3.7008  -17.2106  -46.5924 N.am      7 UNK        -0.5000 
     40 C           4.1733  -18.2220  -45.8506 C.2       6 UNK         0.5000 
     41 O           3.7631  -19.3785  -45.9353 O.2       6 UNK        -0.5000 
     42 CA          5.2400  -17.8667  -44.7939 C.3       6 UNK         0.1400 
     43 CB          6.6502  -17.9982  -45.3874 C.3       6 UNK        -0.1800 
     44 N           5.0757  -16.5239  -44.2231 N.am      6 UNK        -0.5000 
     45 C           3.9753  -16.0953  -43.5890 C.2       5 UNK         0.5000 
     46 O           2.9869  -16.8096  -43.4037 O.2       5 UNK        -0.5000 
     47 CA          3.9621  -14.6117  -43.1658 C.3       5 UNK         0.1400 
     48 CB          4.0094  -13.7009  -44.4047 C.3       5 UNK        -0.1800 
     49 N           2.7743  -14.2663  -42.3811 N.am      5 UNK        -0.5000 
     50 C           2.5551  -14.6594  -41.1170 C.2       4 UNK         0.5000 
     51 O           3.3854  -15.2820  -40.4519 O.2       4 UNK        -0.5000 
     52 CA          1.1967  -14.2933  -40.4848 C.3       4 UNK         0.1400 
     53 CB          1.3140  -13.9714  -38.9835 C.3       4 UNK        -0.1800 
     54 N           0.5743  -13.1597  -41.1674 N.am      4 UNK        -0.5000 
     55 C          -0.6996  -13.0956  -41.5706 C.2       3 UNK         0.5000 
     56 O          -1.5235  -13.9939  -41.3969 O.2       3 UNK        -0.5000 
     57 CA         -1.1365  -11.8100  -42.3026 C.3       3 UNK         0.1400 
     58 CB         -0.3047  -10.5640  -41.9230 C.3       3 UNK        -0.1800 
     59 N          -1.1646  -11.9888  -43.7574 N.am      3 UNK        -0.5000 
     60 C          -0.1458  -12.3465  -44.5539 C.2       2 UNK         0.5000 
     61 O           0.9910  -12.5852  -44.1431 O.2       2 UNK        -0.5000 
     62 CA         -0.4685  -12.4788  -46.0541 C.3       2 UNK         0.1400 
     63 CB          0.5551  -13.3423  -46.8094 C.3       2 UNK        -0.1800 
     64 N          -1.7971  -13.0588  -46.2364 N.am      2 UNK        -0.5000 
     65 C          -2.8095  -12.5187  -46.9213 C.2       1 UNK         0.5000 
     66 O          -2.7435  -11.4298  -47.4928 O.2       1 UNK        -0.5000 
     67 C          -3.0990  -21.7656  -46.1474 C.2       11 UNK         0.5000 
     68 O          -3.9864  -22.5230  -46.5438 O.2       11 UNK        -0.5000 
     69 N          -2.7197  -21.6653  -44.8662 N.am      12 UNK        -0.5000 
     70 CA         -3.2853  -22.4488  -43.7699 C.3       12 UNK         0.1400 
     71 CB         -2.7492  -21.9199  -42.4309 C.3       12 UNK        -0.1800 
     72 C          -3.0177  -23.9577  -43.9167 C.2       12 UNK         0.5000 
     73 O          -3.9480  -24.7513  -43.7722 O.2       12 UNK        -0.5000 
     74 N          -1.7669  -24.3239  -44.2316 N.am      13 UNK        -0.5000 
     75 CA         -1.3240  -25.7072  -44.4229 C.3       13 UNK         0.1400 
     76 CB          0.2046  -25.7397  -44.5702 C.3       13 UNK        -0.1800 
     77 C          -1.9963  -26.4048  -45.6197 C.2       13 UNK         0.5000 
     78 O          -2.3596  -27.5768  -45.5146 O.2       13 UNK        -0.5000 
     79 N          -2.1675  -25.6692  -46.7253 N.am      14 UNK        -0.5000 
     80 CA         -2.8187  -26.1421  -47.9476 C.3       14 UNK         0.1400 
     81 CB         -2.3357  -25.2808  -49.1233 C.3       14 UNK        -0.1800 
     82 C          -4.3576  -26.1216  -47.8763 C.2       14 UNK         0.5000 
     83 O          -4.9981  -26.6136  -48.8047 O.2       14 UNK        -0.5000 
     84 N          -4.9262  -25.5264  -46.8166 N.am      15 UNK        -0.5000 
     85 CA         -6.3575  -25.2813  -46.6067 C.3       15 UNK         0.1400 
     86 CB         -7.1192  -26.6054  -46.3905 C.3       15 UNK        -0.1800 
     87 C          -6.9548  -24.4053  -47.7287 C.2       15 UNK         0.5000 
     88 O          -7.9685  -24.7586  -48.3326 O.2       15 UNK        -0.5000 
     89 N          -6.2647  -23.2902  -48.0023 N.am      16 UNK        -0.5000 
     90 CA         -6.5337  -22.2562  -49.0061 C.3       16 UNK         0.1400 
     91 CB         -7.9472  -21.6605  -48.8571 C.3       16 UNK        -0.1800 
     92 C          -6.2257  -22.6507  -50.4637 C.2       16 UNK         0.5000 
     93 O          -6.2307  -21.7689  -51.3233 O.2       16 UNK        -0.5000 
     94 N          -5.9069  -23.9260  -50.7354 N.am      17 UNK        -0.5000 
     95 CA         -5.6100  -24.4396  -52.0802 C.3       17 UNK         0.1400 
     96 CB         -5.4902  -25.9691  -52.0322 C.3       17 UNK        -0.1800 
     97 C          -4.3540  -23.8197  -52.7260 C.2       17 UNK         0.5000 
     98 O          -4.2622  -23.7672  -53.9529 O.2       17 UNK        -0.5000 
     99 N          -3.4341  -23.3113  -51.8930 N.am      18 UNK        -0.5000 
    100 CA        -2.2254  -22.5921  -52.3003 C.3       18 UNK         0.1400 
    101 CB        -1.3082  -22.4015  -51.0823 C.3       18 UNK        -0.1800 
    102 C         -2.4915  -21.2507  -53.0156 C.2       18 UNK         0.5000 
    103 O         -1.5700  -20.7254  -53.6376 O.2       18 UNK        -0.5000 
    104 N         -3.7346  -20.7410  -52.9780 N.am      19 UNK        -0.5000 
    105 CA        -4.1826  -19.5791  -53.7561 C.3       19 UNK         0.1400 
    106 CB        -5.6319  -19.2358  -53.3788 C.3       19 UNK        -0.1800 
    107 C         -4.0839  -19.7843  -55.2827 C.2       19 UNK         0.5000 
    108 O         -3.9539  -18.8050  -56.0171 O.2       19 UNK        -0.5000 
    109 N         -4.1303  -21.0477  -55.7320 N.am      20 UNK        -0.5000 
    110 CA        -3.9208  -21.4464  -57.1251 C.3       20 UNK         0.1400 
    111 CB        -4.5230  -22.8453  -57.3309 C.3       20 UNK        -0.1800 
    112 C         -2.4351  -21.4296  -57.5462 C.2       20 UNK         0.5000 
    113 O         -2.1512  -21.5292  -58.7409 O.2       20 UNK        -0.5000 
    114 N         -1.5220  -21.3202  -56.5734 N.am      21 UNK        -0.5000 
    115 CA        -0.0783  -21.2447  -56.7547 C.3       21 UNK         0.1400 
    116 CB         0.5683  -22.4592  -56.0563 C.3       21 UNK        -0.1800 
    117 C          0.4001  -19.8779  -56.2286 C.2       21 UNK         0.5000 
    118 O         -0.0891  -18.8499  -56.7009 O.2       21 UNK        -0.5000 
    119 N          1.3392  -19.8804  -55.2731 N.am      22 UNK        -0.5000 
    120 CA         1.9295  -18.6910  -54.6338 C.3       22 UNK         0.1400 
    121 C          2.8482  -17.8375  -55.5668 C.2       22 UNK         0.5000 
    122 N          3.3394  -18.3766  -56.6766 N.am      22 UNK        -0.7600 
    123 O          3.1466  -16.6816  -55.2795 O.2       22 UNK        -0.5000 
    124 C124        0.8760  -17.8491  -53.8519 C.3       23 UNK        -0.0398 
    125 S125        1.5602  -17.1446  -52.3118 S.3       23 UNK        -0.2404 
    126 C126        0.6919  -18.1208  -51.0386 C.3       23 UNK        -0.0205 
    127 H127       -5.0408  -16.0026  -43.4367 H         1 UNK         0.0600 
    128 H128       -5.5025  -14.3033  -43.2919 H         1 UNK         0.0600 
    129 H129       -3.9279  -14.8445  -42.7012 H         1 UNK         0.0600 
    130 H130       -5.3428  -13.2188  -45.2220 H         1 UNK         0.3000 
    131 H131       -4.9093  -12.6093  -47.2548 H         1 UNK         0.0600 
    132 H132       -4.9371  -15.1534  -47.7750 H         1 UNK         0.0800 
    133 H133       -3.2058  -15.0710  -47.8652 H         1 UNK         0.0800 
    134 H134       -1.9096  -13.8723  -49.8927 H         1 UNK         0.0800 
    135 H135       -2.6710  -14.0277  -51.4577 H         1 UNK         0.0800 
    136 H136       -0.3368  -15.5542  -50.9536 H         1 UNK         0.1150 
    137 H137       -1.4322  -19.6538  -50.3987 H         1 UNK         0.1150 
    138 H138       -4.3740  -16.5988  -49.9357 H         1 UNK         0.1150 
    139 H139       -4.9675  -19.0977  -50.2484 H         1 UNK         0.0800 
    140 H140       -3.7103  -20.2678  -49.9586 H         1 UNK         0.0800 
    141 H141       -2.8178  -19.0404  -46.1373 H         1 UNK         0.0800 
    142 H142       -2.0603  -18.8018  -47.6724 H         1 UNK         0.0800 
    143 H143       -2.5362  -21.3234  -48.1515 H         1 UNK         0.0600 
    144 H144       -0.3649  -20.1609  -46.8310 H         1 UNK         0.3000 
    145 H145        1.6658  -23.1009  -46.4672 H         1 UNK         0.0600 
    146 H146        3.2048  -21.5889  -47.6870 H         1 UNK         0.0600 
    147 H147        1.9754  -22.2124  -48.7771 H         1 UNK         0.0600 
    148 H148        1.8588  -20.5639  -48.1776 H         1 UNK         0.0600 
    149 H149        2.1564  -20.4264  -45.6790 H         1 UNK         0.3000 
    150 H150        0.6609  -20.6062  -42.4070 H         1 UNK         0.0600 
    151 H151        2.9735  -21.4498  -42.2009 H         1 UNK         0.0600 
    152 H152        2.9439  -19.7165  -41.9077 H         1 UNK         0.0600 
    153 H153        3.5319  -20.3438  -43.4460 H         1 UNK         0.0600 
    154 H154        1.8579  -18.4242  -43.7777 H         1 UNK         0.3000 
    155 H155       -1.0532  -17.2373  -45.4730 H         1 UNK         0.0600 
    156 H156        0.5156  -16.1810  -43.0562 H         1 UNK         0.0600 
    157 H157       -1.2289  -16.3159  -43.1895 H         1 UNK         0.0600 
    158 H158       -0.3641  -15.1935  -44.2191 H         1 UNK         0.0600 
    159 H159        1.7361  -16.4560  -45.2434 H         1 UNK         0.3000 
    160 H160        2.7918  -18.1469  -48.2086 H         1 UNK         0.0600 
    161 H161        2.5096  -15.1409  -47.7310 H         1 UNK         0.0600 
    162 H162        1.5848  -15.9946  -48.9576 H         1 UNK         0.0600 
    163 H163        3.3378  -15.9543  -49.0528 H         1 UNK         0.0600 
    164 H164        4.1039  -16.2947  -46.4643 H         1 UNK         0.3000 
    165 H165        5.1453  -18.5850  -43.9775 H         1 UNK         0.0600 
    166 H166        7.4150  -17.8384  -44.6272 H         1 UNK         0.0600 
    167 H167        6.8082  -18.9954  -45.8004 H         1 UNK         0.0600 
    168 H168        6.8183  -17.2796  -46.1906 H         1 UNK         0.0600 
    169 H169        5.8499  -15.8872  -44.3455 H         1 UNK         0.3000 
    170 H170        4.8479  -14.4228  -42.5561 H         1 UNK         0.0600 
    171 H171        4.9400  -13.8265  -44.9589 H         1 UNK         0.0600 
    172 H172        3.1879  -13.9132  -45.0898 H         1 UNK         0.0600 
    173 H173        3.9443  -12.6494  -44.1241 H         1 UNK         0.0600 
    174 H174        2.0414  -13.7713  -42.8797 H         1 UNK         0.3000 
    175 H175        0.5717  -15.1819  -40.5942 H         1 UNK         0.0600 
    176 H176        1.9679  -13.1165  -38.8078 H         1 UNK         0.0600 
    177 H177        0.3390  -13.7415  -38.5536 H         1 UNK         0.0600 
    178 H178        1.7187  -14.8178  -38.4274 H         1 UNK         0.0600 
    179 H179        1.1855  -12.3861  -41.3899 H         1 UNK         0.3000 
    180 H180       -2.1656  -11.6192  -41.9942 H         1 UNK         0.0600 
    181 H181       -0.7385   -9.6633  -42.3573 H         1 UNK         0.0600 
    182 H182        0.7275  -10.6276  -42.2683 H         1 UNK         0.0600 
    183 H183       -0.2850  -10.4208  -40.8419 H         1 UNK         0.0600 
    184 H184       -2.0649  -11.8523  -44.1937 H         1 UNK         0.3000 
    185 H185       -0.4310  -11.4691  -46.4671 H         1 UNK         0.0600 
    186 H186        0.3009  -13.4216  -47.8665 H         1 UNK         0.0600 
    187 H187        1.5551  -12.9116  -46.7480 H         1 UNK         0.0600 
    188 H188        0.6004  -14.3509  -46.4005 H         1 UNK         0.0600 
    189 H189       -1.9712  -13.9512  -45.7791 H         1 UNK         0.3000 
    190 H190       -2.0005  -20.9898  -44.6200 H         1 UNK         0.3000 
    191 H191       -4.3672  -22.3015  -43.7820 H         1 UNK         0.0600 
    192 H192       -3.1748  -22.4736  -41.5932 H         1 UNK         0.0600 
    193 H193       -3.0062  -20.8696  -42.2920 H         1 UNK         0.0600 
    194 H194       -1.6644  -22.0076  -42.3663 H         1 UNK         0.0600 
    195 H195       -1.0494  -23.6065  -44.3030 H         1 UNK         0.3000 
    196 H196       -1.5894  -26.2668  -43.5237 H         1 UNK         0.0600 
    197 H197        0.5368  -25.1599  -45.4321 H         1 UNK         0.0600 
    198 H198        0.6944  -25.3333  -43.6852 H         1 UNK         0.0600 
    199 H199        0.5646  -26.7609  -44.7011 H         1 UNK         0.0600 
    200 H200       -1.7865  -24.7264  -46.7542 H         1 UNK         0.3000 
    201 H201       -2.5132  -27.1737  -48.1341 H         1 UNK         0.0600 
    202 H202       -2.6410  -24.2406  -49.0038 H         1 UNK         0.0600 
    203 H203       -2.7382  -25.6403  -50.0703 H         1 UNK         0.0600 
    204 H204       -1.2490  -25.3047  -49.2062 H         1 UNK         0.0600 
    205 H205       -4.3110  -25.1331  -46.1162 H         1 UNK         0.3000 
    206 H206       -6.4374  -24.7009  -45.6862 H         1 UNK         0.0600 
    207 H207       -6.6770  -27.1847  -45.5799 H         1 UNK         0.0600 
    208 H208       -8.1597  -26.4159  -46.1243 H         1 UNK         0.0600 
    209 H209       -7.1202  -27.2278  -47.2856 H         1 UNK         0.0600 
    210 H210       -5.4293  -23.1154  -47.4430 H         1 UNK         0.3000 
    211 H211       -5.8291  -21.4614  -48.7730 H         1 UNK         0.0600 
    212 H212       -8.0669  -20.7828  -49.4935 H         1 UNK         0.0600 
    213 H213       -8.1358  -21.3436  -47.8315 H         1 UNK         0.0600 
    214 H214       -8.7231  -22.3719  -49.1401 H         1 UNK         0.0600 
    215 H215       -5.9289  -24.6031  -49.9842 H         1 UNK         0.3000 
    216 H216       -6.4584  -24.1880  -52.7199 H         1 UNK         0.0600 
    217 H217       -4.6290  -26.2883  -51.4458 H         1 UNK         0.0600 
    218 H218       -5.3720  -26.3817  -53.0350 H         1 UNK         0.0600 
    219 H219       -6.3803  -26.4235  -51.5965 H         1 UNK         0.0600 
    220 H220       -3.6036  -23.3922  -50.9027 H         1 UNK         0.3000 
    221 H221       -1.6951  -23.2202  -53.0191 H         1 UNK         0.0600 
    222 H222       -0.9211  -23.3570  -50.7304 H         1 UNK         0.0600 
    223 H223       -1.8314  -21.9287  -50.2536 H         1 UNK         0.0600 
    224 H224       -0.4440  -21.7822  -51.3269 H         1 UNK         0.0600 
    225 H225       -4.4512  -21.2283  -52.4528 H         1 UNK         0.3000 
    226 H226       -3.5446  -18.7330  -53.4919 H         1 UNK         0.0600 
    227 H227       -6.3071  -20.0679  -53.5824 H         1 UNK         0.0600 
    228 H228       -5.7243  -18.9817  -52.3257 H         1 UNK         0.0600 
    229 H229       -5.9908  -18.3761  -53.9461 H         1 UNK         0.0600 
    230 H230       -4.2424  -21.8004  -55.0632 H         1 UNK         0.3000 
    231 H231       -4.4537  -20.7475  -57.7731 H         1 UNK         0.0600 
    232 H232       -4.0136  -23.5948  -56.7240 H         1 UNK         0.0600 
    233 H233       -4.4425  -23.1572  -58.3729 H         1 UNK         0.0600 
    234 H234       -5.5809  -22.8632  -57.0679 H         1 UNK         0.0600 
    235 H235       -1.8387  -21.1622  -55.6234 H         1 UNK         0.3000 
    236 H236        0.1830  -21.2822  -57.8139 H         1 UNK         0.0600 
    237 H237        0.1915  -23.3917  -56.4772 H         1 UNK         0.0600 
    238 H238        1.6507  -22.4663  -56.1900 H         1 UNK         0.0600 
    239 H239        0.3566  -22.4755  -54.9861 H         1 UNK         0.0600 
    240 H240        1.6823  -20.7705  -54.9423 H         1 UNK         0.3000 
    241 H241        2.6175  -19.1143  -53.9012 H         1 UNK         0.0600 
    242 H242        3.9380  -17.8256  -57.2719 H         1 UNK         0.3800 
    243 H243        3.1197  -19.3267  -56.9287 H         1 UNK         0.3800 
    244 H244        0.0135  -18.4639  -53.5905 H         1 UNK         0.0800 
    245 H245        0.4769  -17.0436  -54.4704 H         1 UNK         0.0800 
    246 H246        0.7043  -19.1712  -51.3347 H         1 UNK         0.0800 
    247 H247        1.2562  -18.0654  -50.1097 H         1 UNK         0.0800 
@<TRIPOS>BOND
     1    1    2 1    
     2    1  127 1    
     3    1  128 1    
     4    1  129 1    
     5    2    3 2    
     6    2    4 am   BACKBONE|DICT|INTERRES
     7    4    5 1    
     8    4  130 1    
     9    5    6 1    
    10    5   65 1    
    11    5  131 1    
    12    6    7 1    
    13    6  132 1    
    14    6  133 1    
    15    7    8 1    
    16    8    9 1    
    17    8  134 1    
    18    8  135 1    
    19    9   10 ar   
    20    9   14 ar   
    21   10   11 ar   
    22   10  136 1    
    23   11   12 ar   
    24   11  126 1    
    25   12   13 ar   
    26   12  137 1    
    27   13   14 ar   
    28   13   15 1    
    29   14  138 1    
    30   15   16 1    
    31   15  139 1    
    32   15  140 1    
    33   16   17 1    
    34   17   18 1    
    35   17  141 1    
    36   17  142 1    
    37   18   19 1    
    38   18   67 1    
    39   18  143 1    
    40   19   20 am   BACKBONE|DICT|INTERRES
    41   19  144 1    
    42   20   21 2    
    43   20   22 1    
    44   22   23 1    
    45   22   24 1    
    46   22  145 1    
    47   23  146 1    
    48   23  147 1    
    49   23  148 1    
    50   24   25 am   BACKBONE|DICT|INTERRES
    51   24  149 1    
    52   25   26 2    
    53   25   27 1    
    54   27   28 1    
    55   27   29 1    
    56   27  150 1    
    57   28  151 1    
    58   28  152 1    
    59   28  153 1    
    60   29   30 am   BACKBONE|DICT|INTERRES
    61   29  154 1    
    62   30   31 2    
    63   30   32 1    
    64   32   33 1    
    65   32   34 1    
    66   32  155 1    
    67   33  156 1    
    68   33  157 1    
    69   33  158 1    
    70   34   35 am   BACKBONE|DICT|INTERRES
    71   34  159 1    
    72   35   36 2    
    73   35   37 1    
    74   37   38 1    
    75   37   39 1    
    76   37  160 1    
    77   38  161 1    
    78   38  162 1    
    79   38  163 1    
    80   39   40 am   BACKBONE|DICT|INTERRES
    81   39  164 1    
    82   40   41 2    
    83   40   42 1    
    84   42   43 1    
    85   42   44 1    
    86   42  165 1    
    87   43  166 1    
    88   43  167 1    
    89   43  168 1    
    90   44   45 am   BACKBONE|DICT|INTERRES
    91   44  169 1    
    92   45   46 2    
    93   45   47 1    
    94   47   48 1    
    95   47   49 1    
    96   47  170 1    
    97   48  171 1    
    98   48  172 1    
    99   48  173 1    
   100   49   50 am   BACKBONE|DICT|INTERRES
   101   49  174 1    
   102   50   51 2    
   103   50   52 1    
   104   52   53 1    
   105   52   54 1    
   106   52  175 1    
   107   53  176 1    
   108   53  177 1    
   109   53  178 1    
   110   54   55 am   BACKBONE|DICT|INTERRES
   111   54  179 1    
   112   55   56 2    
   113   55   57 1    
   114   57   58 1    
   115   57   59 1    
   116   57  180 1    
   117   58  181 1    
   118   58  182 1    
   119   58  183 1    
   120   59   60 am   BACKBONE|DICT|INTERRES
   121   59  184 1    
   122   60   61 2    
   123   60   62 1    
   124   62   63 1    
   125   62   64 1    
   126   62  185 1    
   127   63  186 1    
   128   63  187 1    
   129   63  188 1    
   130   64   65 am   BACKBONE|DICT|INTERRES
   131   64  189 1    
   132   65   66 2    
   133   67   68 2    
   134   67   69 am   BACKBONE|DICT|INTERRES
   135   69   70 1    
   136   69  190 1    
   137   70   71 1    
   138   70   72 1    
   139   70  191 1    
   140   71  192 1    
   141   71  193 1    
   142   71  194 1    
   143   72   73 2    
   144   72   74 am   BACKBONE|DICT|INTERRES
   145   74   75 1    
   146   74  195 1    
   147   75   76 1    
   148   75   77 1    
   149   75  196 1    
   150   76  197 1    
   151   76  198 1    
   152   76  199 1    
   153   77   78 2    
   154   77   79 am   BACKBONE|DICT|INTERRES
   155   79   80 1    
   156   79  200 1    
   157   80   81 1    
   158   80   82 1    
   159   80  201 1    
   160   81  202 1    
   161   81  203 1    
   162   81  204 1    
   163   82   83 2    
   164   82   84 am   BACKBONE|DICT|INTERRES
   165   84   85 1    
   166   84  205 1    
   167   85   86 1    
   168   85   87 1    
   169   85  206 1    
   170   86  207 1    
   171   86  208 1    
   172   86  209 1    
   173   87   88 2    
   174   87   89 am   BACKBONE|DICT|INTERRES
   175   89   90 1    
   176   89  210 1    
   177   90   91 1    
   178   90   92 1    
   179   90  211 1    
   180   91  212 1    
   181   91  213 1    
   182   91  214 1    
   183   92   93 2    
   184   92   94 am   BACKBONE|DICT|INTERRES
   185   94   95 1    
   186   94  215 1    
   187   95   96 1    
   188   95   97 1    
   189   95  216 1    
   190   96  217 1    
   191   96  218 1    
   192   96  219 1    
   193   97   98 2    
   194   97   99 am   BACKBONE|DICT|INTERRES
   195   99  100 1    
   196   99  220 1    
   197  100  101 1    
   198  100  102 1    
   199  100  221 1    
   200  101  222 1    
   201  101  223 1    
   202  101  224 1    
   203  102  103 2    
   204  102  104 am   BACKBONE|DICT|INTERRES
   205  104  105 1    
   206  104  225 1    
   207  105  106 1    
   208  105  107 1    
   209  105  226 1    
   210  106  227 1    
   211  106  228 1    
   212  106  229 1    
   213  107  108 2    
   214  107  109 am   BACKBONE|DICT|INTERRES
   215  109  110 1    
   216  109  230 1    
   217  110  111 1    
   218  110  112 1    
   219  110  231 1    
   220  111  232 1    
   221  111  233 1    
   222  111  234 1    
   223  112  113 2    
   224  112  114 am   BACKBONE|DICT|INTERRES
   225  114  115 1    
   226  114  235 1    
   227  115  116 1    
   228  115  117 1    
   229  115  236 1    
   230  116  237 1    
   231  116  238 1    
   232  116  239 1    
   233  117  118 2    
   234  117  119 am   BACKBONE|DICT|INTERRES
   235  119  120 1    
   236  119  240 1    
   237  120  121 1    
   238  120  124 1    
   239  120  241 1    
   240  121  122 am   BACKBONE|DICT|INTERRES
   241  121  123 2    
   242  122  242 1    
   243  122  243 1    
   244  124  125 1    
   245  124  244 1    
   246  124  245 1    
   247  125  126 1    
   248  126  246 1    
   249  126  247 1    
@<TRIPOS>SUBSTRUCTURE
     1 UNK         1 GROUP             0       ****    0 ROOT    
