@<TRIPOS>MOLECULE
3R540
247   249    1
SMALL
USER_CHARGES


@<TRIPOS>ATOM
      1 CA         -0.0708  -15.2295  -50.9864 C.3       0 UNK        -0.1800 
      2 C           0.4703  -14.8576  -49.6156 C.2       0 UNK         0.5000 
      3 O          -0.0406  -13.9410  -48.9742 O.2       0 UNK        -0.5000 
      4 N           1.4949  -15.5880  -49.1583 N.am      1 UNK        -0.5000 
      5 CA          2.2023  -15.4185  -47.8841 C.3       1 UNK         0.1400 
      6 C6          3.2930  -16.4976  -47.6696 C.3       23 UNK        -0.0398 
      7 S7          4.4894  -16.6795  -49.0429 S.3       23 UNK        -0.2404 
      8 C8          3.7154  -17.8521  -50.2201 C.3       23 UNK        -0.0205 
      9 C9          2.8704  -18.9332  -49.5593 C.ar      23 UNK        -0.0193 
     10 C10         1.4764  -18.8323  -49.5695 C.ar      23 UNK        -0.1150 
     11 C11         0.6885  -19.7822  -48.9201 C.ar      23 UNK        -0.0193 
     12 C12         1.2997  -20.8780  -48.3069 C.ar      23 UNK        -0.1150 
     13 C13         2.6937  -20.9997  -48.2980 C.ar      23 UNK        -0.0193 
     14 C14         3.4744  -20.0210  -48.9218 C.ar      23 UNK        -0.1150 
     15 C15         3.3550  -22.2073  -47.6500 C.3       23 UNK        -0.0205 
     16 S16         3.8287  -21.9310  -45.9141 S.3       23 UNK        -0.2404 
     17 C17         2.2209  -21.8939  -45.0504 C.3       23 UNK        -0.0398 
     18 CA          1.8032  -23.2467  -44.4225 C.3       11 UNK         0.1400 
     19 N           0.8122  -23.0434  -43.3594 N.am      11 UNK        -0.5000 
     20 C           0.3083  -24.0024  -42.5646 C.2       10 UNK         0.5000 
     21 O           0.7105  -25.1668  -42.5723 O.2       10 UNK        -0.5000 
     22 CA         -0.8179  -23.6154  -41.5801 C.3       10 UNK         0.1400 
     23 CB         -0.3243  -23.7203  -40.1278 C.3       10 UNK        -0.1800 
     24 N          -1.3511  -22.2696  -41.7878 N.am      10 UNK        -0.5000 
     25 C          -2.1554  -21.8844  -42.7886 C.2       9 UNK         0.5000 
     26 O          -2.6292  -22.6594  -43.6180 O.2       9 UNK        -0.5000 
     27 CA         -2.4635  -20.3727  -42.8907 C.3       9 UNK         0.1400 
     28 CB         -3.9108  -20.0824  -42.4659 C.3       9 UNK        -0.1800 
     29 N          -1.5563  -19.5297  -42.0989 N.am      9 UNK        -0.5000 
     30 C          -0.2470  -19.3903  -42.3429 C.2       8 UNK         0.5000 
     31 O           0.3206  -19.9216  -43.2997 O.2       8 UNK        -0.5000 
     32 CA          0.5687  -18.6161  -41.2924 C.3       8 UNK         0.1400 
     33 CB          0.8153  -19.5000  -40.0583 C.3       8 UNK        -0.1800 
     34 N           1.8632  -18.2231  -41.8436 N.am      8 UNK        -0.5000 
     35 C           2.0770  -17.0953  -42.5255 C.2       7 UNK         0.5000 
     36 O           1.2461  -16.1883  -42.6285 O.2       7 UNK        -0.5000 
     37 CA          3.4425  -16.9758  -43.2199 C.3       7 UNK         0.1400 
     38 CB          3.5614  -17.9862  -44.3748 C.3       7 UNK        -0.1800 
     39 N           3.5678  -15.6243  -43.7479 N.am      7 UNK        -0.5000 
     40 C           4.6349  -14.8249  -43.6469 C.2       6 UNK         0.5000 
     41 O           5.7266  -15.1868  -43.2072 O.2       6 UNK        -0.5000 
     42 CA          4.4392  -13.3636  -44.0959 C.3       6 UNK         0.1400 
     43 CB          4.9381  -13.1677  -45.5358 C.3       6 UNK        -0.1800 
     44 N           3.0329  -12.9680  -44.0271 N.am      6 UNK        -0.5000 
     45 C           2.3917  -12.5676  -42.9217 C.2       5 UNK         0.5000 
     46 O           2.9558  -12.3554  -41.8469 O.2       5 UNK        -0.5000 
     47 CA          0.8597  -12.4103  -43.0429 C.3       5 UNK         0.1400 
     48 CB          0.2672  -11.4128  -42.0259 C.3       5 UNK        -0.1800 
     49 N           0.4217  -12.1084  -44.4107 N.am      5 UNK        -0.5000 
     50 C           0.6652  -11.0017  -45.1294 C.2       4 UNK         0.5000 
     51 O           1.2496  -10.0101  -44.6919 O.2       4 UNK        -0.5000 
     52 CA          0.2070  -11.0124  -46.6028 C.3       4 UNK         0.1400 
     53 CB          1.4206  -11.1812  -47.5310 C.3       4 UNK        -0.1800 
     54 N          -0.7595  -12.0685  -46.9091 N.am      4 UNK        -0.5000 
     55 C          -2.0418  -12.0843  -46.5206 C.2       3 UNK         0.5000 
     56 O          -2.5806  -11.1708  -45.8952 O.2       3 UNK        -0.5000 
     57 CA         -2.8410  -13.3554  -46.8575 C.3       3 UNK         0.1400 
     58 CB         -3.4214  -13.2829  -48.2781 C.3       3 UNK        -0.1800 
     59 N          -2.0165  -14.5582  -46.7281 N.am      3 UNK        -0.5000 
     60 C          -1.7180  -15.1465  -45.5612 C.2       2 UNK         0.5000 
     61 O          -2.1432  -14.7581  -44.4737 O.2       2 UNK        -0.5000 
     62 CA         -0.7722  -16.3610  -45.6123 C.3       2 UNK         0.1400 
     63 CB         -1.5713  -17.6632  -45.7738 C.3       2 UNK        -0.1800 
     64 N           0.2333  -16.2627  -46.6730 N.am      2 UNK        -0.5000 
     65 C           1.2622  -15.4023  -46.6604 C.2       1 UNK         0.5000 
     66 O           1.4788  -14.6085  -45.7460 O.2       1 UNK        -0.5000 
     67 C           1.2643  -24.2448  -45.4745 C.2       11 UNK         0.5000 
     68 O           0.1675  -24.0423  -45.9964 O.2       11 UNK        -0.5000 
     69 N           2.0280  -25.3146  -45.7390 N.am      12 UNK        -0.5000 
     70 CA          1.5904  -26.5347  -46.4322 C.3       12 UNK         0.1400 
     71 CB          2.7627  -27.5275  -46.4675 C.3       12 UNK        -0.1800 
     72 C           1.0082  -26.3505  -47.8483 C.2       12 UNK         0.5000 
     73 O           0.1855  -27.1628  -48.2721 O.2       12 UNK        -0.5000 
     74 N           1.4341  -25.2941  -48.5506 N.am      13 UNK        -0.5000 
     75 CA          0.9722  -24.9434  -49.8949 C.3       13 UNK         0.1400 
     76 CB          2.0109  -24.0326  -50.5687 C.3       13 UNK        -0.1800 
     77 C          -0.4290  -24.2977  -49.9348 C.2       13 UNK         0.5000 
     78 O          -0.9477  -24.0986  -51.0334 O.2       13 UNK        -0.5000 
     79 N          -1.0329  -23.9909  -48.7745 N.am      14 UNK        -0.5000 
     80 CA         -2.3665  -23.3923  -48.6274 C.3       14 UNK         0.1400 
     81 CB         -2.4952  -22.8009  -47.2112 C.3       14 UNK        -0.1800 
     82 C          -3.5258  -24.3634  -48.9602 C.2       14 UNK         0.5000 
     83 O          -4.4496  -24.5318  -48.1614 O.2       14 UNK        -0.5000 
     84 N          -3.4564  -24.9933  -50.1365 N.am      15 UNK        -0.5000 
     85 CA         -4.4870  -25.8528  -50.7113 C.3       15 UNK         0.1400 
     86 CB         -3.8432  -26.6869  -51.8310 C.3       15 UNK        -0.1800 
     87 C          -5.6599  -25.0276  -51.2704 C.2       15 UNK         0.5000 
     88 O          -5.5124  -23.8286  -51.5173 O.2       15 UNK        -0.5000 
     89 N          -6.7894  -25.6978  -51.5344 N.am      16 UNK        -0.5000 
     90 CA         -7.9925  -25.1045  -52.1320 C.3       16 UNK         0.1400 
     91 CB         -9.1092  -26.1583  -52.1716 C.3       16 UNK        -0.1800 
     92 C          -7.7608  -24.5098  -53.5369 C.2       16 UNK         0.5000 
     93 O          -8.4085  -23.5274  -53.8960 O.2       16 UNK        -0.5000 
     94 N          -6.8124  -25.0864  -54.2881 N.am      17 UNK        -0.5000 
     95 CA         -6.3645  -24.5889  -55.5901 C.3       17 UNK         0.1400 
     96 CB         -5.5888  -25.7053  -56.3059 C.3       17 UNK        -0.1800 
     97 C          -5.4998  -23.3149  -55.4902 C.2       17 UNK         0.5000 
     98 O          -5.4436  -22.5486  -56.4523 O.2       17 UNK        -0.5000 
     99 N          -4.8437  -23.1082  -54.3398 N.am      18 UNK        -0.5000 
    100 CA        -3.9738  -21.9635  -54.0649 C.3       18 UNK         0.1400 
    101 CB        -2.8089  -22.4272  -53.1777 C.3       18 UNK        -0.1800 
    102 C         -4.7231  -20.8017  -53.3894 C.2       18 UNK         0.5000 
    103 O         -4.1528  -19.7182  -53.2631 O.2       18 UNK        -0.5000 
    104 N         -5.9780  -21.0271  -52.9714 N.am      19 UNK        -0.5000 
    105 CA        -6.8274  -20.1072  -52.2047 C.3       19 UNK         0.1400 
    106 CB        -8.1363  -20.8251  -51.8457 C.3       19 UNK        -0.1800 
    107 C         -7.1199  -18.7504  -52.8791 C.2       19 UNK         0.5000 
    108 O         -7.5472  -17.8204  -52.1957 O.2       19 UNK        -0.5000 
    109 N         -6.8650  -18.6437  -54.1907 N.am      20 UNK        -0.5000 
    110 CA        -6.8741  -17.3878  -54.9432 C.3       20 UNK         0.1400 
    111 CB        -6.7476  -17.7024  -56.4415 C.3       20 UNK        -0.1800 
    112 C         -5.7625  -16.4127  -54.4986 C.2       20 UNK         0.5000 
    113 O         -5.9578  -15.1995  -54.5822 O.2       20 UNK        -0.5000 
    114 N         -4.6337  -16.9573  -54.0239 N.am      21 UNK        -0.5000 
    115 CA        -3.5337  -16.2153  -53.4118 C.3       21 UNK         0.1400 
    116 CB        -2.1983  -16.7202  -53.9824 C.3       21 UNK        -0.1800 
    117 C         -3.5745  -16.3869  -51.8856 C.2       21 UNK         0.5000 
    118 O         -3.5269  -15.3958  -51.1569 O.2       21 UNK        -0.5000 
    119 N         -3.6943  -17.6397  -51.4293 N.am      22 UNK        -0.5000 
    120 CA        -3.7766  -18.0627  -50.0223 C.3       22 UNK         0.1400 
    121 C         -5.1367  -17.7162  -49.3414 C.2       22 UNK         0.5000 
    122 N         -5.6291  -16.4940  -49.4808 N.am      22 UNK        -0.7600 
    123 O         -5.7521  -18.5496  -48.6823 O.2       22 UNK        -0.5000 
    124 C124       -3.3837  -19.5582  -49.8604 C.3       23 UNK        -0.0398 
    125 S125       -1.6723  -19.9088  -50.3913 S.3       23 UNK        -0.2404 
    126 C126       -0.8132  -19.5786  -48.8272 C.3       23 UNK        -0.0205 
    127 H127       -0.6606  -14.4118  -51.4011 H         1 UNK         0.0600 
    128 H128       -0.7114  -16.1077  -50.9084 H         1 UNK         0.0600 
    129 H129        0.7391  -15.4516  -51.6813 H         1 UNK         0.0600 
    130 H130        1.8862  -16.3004  -49.7550 H         1 UNK         0.3000 
    131 H131        2.6920  -14.4442  -47.9302 H         1 UNK         0.0600 
    132 H132        3.8825  -16.2366  -46.7891 H         1 UNK         0.0800 
    133 H133        2.8517  -17.4658  -47.4345 H         1 UNK         0.0800 
    134 H134        3.1183  -17.2905  -50.9397 H         1 UNK         0.0800 
    135 H135        4.5056  -18.3254  -50.8048 H         1 UNK         0.0800 
    136 H136        0.9913  -18.0086  -50.0698 H         1 UNK         0.1150 
    137 H137        0.6890  -21.6301  -47.8278 H         1 UNK         0.1150 
    138 H138        4.5522  -20.1048  -48.9115 H         1 UNK         0.1150 
    139 H139        2.6942  -23.0674  -47.7078 H         1 UNK         0.0800 
    140 H140        4.2485  -22.4776  -48.2150 H         1 UNK         0.0800 
    141 H141        1.4333  -21.4824  -45.6793 H         1 UNK         0.0800 
    142 H142        2.3548  -21.1635  -44.2528 H         1 UNK         0.0800 
    143 H143        2.6812  -23.6850  -43.9435 H         1 UNK         0.0600 
    144 H144        0.4231  -22.1110  -43.2952 H         1 UNK         0.3000 
    145 H145       -1.6298  -24.3323  -41.7192 H         1 UNK         0.0600 
    146 H146        0.0414  -24.7243  -39.9087 H         1 UNK         0.0600 
    147 H147        0.4910  -23.0236  -39.9287 H         1 UNK         0.0600 
    148 H148       -1.1274  -23.5092  -39.4213 H         1 UNK         0.0600 
    149 H149       -1.0295  -21.5603  -41.1474 H         1 UNK         0.3000 
    150 H150       -2.3537  -20.0958  -43.9411 H         1 UNK         0.0600 
    151 H151       -4.0787  -20.3273  -41.4164 H         1 UNK         0.0600 
    152 H152       -4.6169  -20.6675  -43.0567 H         1 UNK         0.0600 
    153 H153       -4.1613  -19.0315  -42.6115 H         1 UNK         0.0600 
    154 H154       -1.9578  -19.0771  -41.2899 H         1 UNK         0.3000 
    155 H155        0.0049  -17.7318  -40.9874 H         1 UNK         0.0600 
    156 H156        1.3446  -20.4183  -40.3172 H         1 UNK         0.0600 
    157 H157       -0.1229  -19.7841  -39.5801 H         1 UNK         0.0600 
    158 H158        1.4087  -18.9729  -39.3109 H         1 UNK         0.0600 
    159 H159        2.5773  -18.9364  -41.8449 H         1 UNK         0.3000 
    160 H160        4.2218  -17.1675  -42.4794 H         1 UNK         0.0600 
    161 H161        2.7177  -17.9114  -45.0616 H         1 UNK         0.0600 
    162 H162        3.5837  -19.0097  -44.0003 H         1 UNK         0.0600 
    163 H163        4.4784  -17.8341  -44.9440 H         1 UNK         0.0600 
    164 H164        2.6938  -15.2215  -44.0691 H         1 UNK         0.3000 
    165 H165        5.0278  -12.7236  -43.4354 H         1 UNK         0.0600 
    166 H166        4.3866  -13.7883  -46.2419 H         1 UNK         0.0600 
    167 H167        5.9933  -13.4299  -45.6224 H         1 UNK         0.0600 
    168 H168        4.8335  -12.1293  -45.8507 H         1 UNK         0.0600 
    169 H169        2.4632  -13.1949  -44.8357 H         1 UNK         0.3000 
    170 H170        0.4443  -13.3929  -42.8133 H         1 UNK         0.0600 
    171 H171        0.4508  -11.7443  -41.0034 H         1 UNK         0.0600 
    172 H172        0.7032  -10.4190  -42.1280 H         1 UNK         0.0600 
    173 H173       -0.8122  -11.3214  -42.1471 H         1 UNK         0.0600 
    174 H174       -0.0265  -12.8746  -44.8944 H         1 UNK         0.3000 
    175 H175       -0.2580  -10.0470  -46.8124 H         1 UNK         0.0600 
    176 H176        1.1236  -11.1486  -48.5795 H         1 UNK         0.0600 
    177 H177        2.1493  -10.3849  -47.3741 H         1 UNK         0.0600 
    178 H178        1.9287  -12.1301  -47.3569 H         1 UNK         0.0600 
    179 H179       -0.4252  -12.8323  -47.4917 H         1 UNK         0.3000 
    180 H180       -3.6762  -13.4224  -46.1570 H         1 UNK         0.0600 
    181 H181       -2.6400  -13.2196  -49.0361 H         1 UNK         0.0600 
    182 H182       -4.0616  -12.4076  -48.3936 H         1 UNK         0.0600 
    183 H183       -4.0283  -14.1607  -48.4992 H         1 UNK         0.0600 
    184 H184       -1.5680  -14.8861  -47.5723 H         1 UNK         0.3000 
    185 H185       -0.2501  -16.4107  -44.6575 H         1 UNK         0.0600 
    186 H186       -0.9141  -18.5335  -45.7848 H         1 UNK         0.0600 
    187 H187       -2.2641  -17.7933  -44.9416 H         1 UNK         0.0600 
    188 H188       -2.1625  -17.6655  -46.6897 H         1 UNK         0.0600 
    189 H189        0.1289  -16.8769  -47.4653 H         1 UNK         0.3000 
    190 H190        2.9240  -25.3811  -45.2779 H         1 UNK         0.3000 
    191 H191        0.7970  -26.9734  -45.8237 H         1 UNK         0.0600 
    192 H192        3.6128  -27.1245  -47.0194 H         1 UNK         0.0600 
    193 H193        2.4720  -28.4623  -46.9491 H         1 UNK         0.0600 
    194 H194        3.1013  -27.7761  -45.4615 H         1 UNK         0.0600 
    195 H195        2.1116  -24.6836  -48.1230 H         1 UNK         0.3000 
    196 H196        0.9132  -25.8632  -50.4808 H         1 UNK         0.0600 
    197 H197        1.7736  -23.8906  -51.6238 H         1 UNK         0.0600 
    198 H198        3.0123  -24.4605  -50.5180 H         1 UNK         0.0600 
    199 H199        2.0392  -23.0444  -50.1133 H         1 UNK         0.0600 
    200 H200       -0.5485  -24.1949  -47.9063 H         1 UNK         0.3000 
    201 H201       -2.4398  -22.5669  -49.3367 H         1 UNK         0.0600 
    202 H202       -3.4065  -22.2101  -47.1131 H         1 UNK         0.0600 
    203 H203       -2.5281  -23.5839  -46.4523 H         1 UNK         0.0600 
    204 H204       -1.6568  -22.1509  -46.9663 H         1 UNK         0.0600 
    205 H205       -2.6635  -24.7672  -50.7309 H         1 UNK         0.3000 
    206 H206       -4.8651  -26.5224  -49.9361 H         1 UNK         0.0600 
    207 H207       -3.4623  -26.0552  -52.6350 H         1 UNK         0.0600 
    208 H208       -4.5587  -27.3834  -52.2695 H         1 UNK         0.0600 
    209 H209       -3.0105  -27.2788  -51.4502 H         1 UNK         0.0600 
    210 H210       -6.8366  -26.6832  -51.3178 H         1 UNK         0.3000 
    211 H211       -8.3162  -24.2886  -51.4826 H         1 UNK         0.0600 
    212 H212       -8.8313  -27.0171  -52.7839 H         1 UNK         0.0600 
    213 H213      -10.0262  -25.7401  -52.5893 H         1 UNK         0.0600 
    214 H214       -9.3461  -26.5205  -51.1710 H         1 UNK         0.0600 
    215 H215       -6.3377  -25.8985  -53.9226 H         1 UNK         0.3000 
    216 H216       -7.2442  -24.3453  -56.1898 H         1 UNK         0.0600 
    217 H217       -5.2603  -25.3813  -57.2944 H         1 UNK         0.0600 
    218 H218       -6.2098  -26.5903  -56.4456 H         1 UNK         0.0600 
    219 H219       -4.7009  -26.0018  -55.7458 H         1 UNK         0.0600 
    220 H220       -4.9933  -23.7416  -53.5643 H         1 UNK         0.3000 
    221 H221       -3.5549  -21.5849  -54.9994 H         1 UNK         0.0600 
    222 H222       -3.1508  -22.7420  -52.1915 H         1 UNK         0.0600 
    223 H223       -2.2720  -23.2620  -53.6282 H         1 UNK         0.0600 
    224 H224       -2.0877  -21.6229  -53.0272 H         1 UNK         0.0600 
    225 H225       -6.3522  -21.9545  -53.1135 H         1 UNK         0.3000 
    226 H226       -6.3022  -19.8871  -51.2744 H         1 UNK         0.0600 
    227 H227       -7.9429  -21.7493  -51.3008 H         1 UNK         0.0600 
    228 H228       -8.7647  -20.2001  -51.2099 H         1 UNK         0.0600 
    229 H229       -8.7143  -21.0722  -52.7368 H         1 UNK         0.0600 
    230 H230       -6.5315  -19.4633  -54.6763 H         1 UNK         0.3000 
    231 H231       -7.8348  -16.8971  -54.7741 H         1 UNK         0.0600 
    232 H232       -5.8114  -18.2146  -56.6677 H         1 UNK         0.0600 
    233 H233       -6.7738  -16.7881  -57.0358 H         1 UNK         0.0600 
    234 H234       -7.5677  -18.3343  -56.7829 H         1 UNK         0.0600 
    235 H235       -4.5757  -17.9686  -53.9560 H         1 UNK         0.3000 
    236 H236       -3.6159  -15.1495  -53.6346 H         1 UNK         0.0600 
    237 H237       -1.3578  -16.1816  -53.5438 H         1 UNK         0.0600 
    238 H238       -2.0467  -17.7828  -53.7867 H         1 UNK         0.0600 
    239 H239       -2.1524  -16.5707  -55.0611 H         1 UNK         0.0600 
    240 H240       -3.7454  -18.3963  -52.1072 H         1 UNK         0.3000 
    241 H241       -3.0371  -17.4827  -49.4678 H         1 UNK         0.0600 
    242 H242       -6.5125  -16.2535  -49.0611 H         1 UNK         0.3800 
    243 H243       -5.1125  -15.8124  -50.0252 H         1 UNK         0.3800 
    244 H244       -4.0553  -20.1930  -50.4386 H         1 UNK         0.0800 
    245 H245       -3.4949  -19.8793  -48.8233 H         1 UNK         0.0800 
    246 H246       -1.2329  -20.2000  -48.0375 H         1 UNK         0.0800 
    247 H247       -1.0063  -18.5462  -48.5397 H         1 UNK         0.0800 
@<TRIPOS>BOND
     1    1    2 1    
     2    1  127 1    
     3    1  128 1    
     4    1  129 1    
     5    2    3 2    
     6    2    4 am   BACKBONE|DICT|INTERRES
     7    4    5 1    
     8    4  130 1    
     9    5    6 1    
    10    5   65 1    
    11    5  131 1    
    12    6    7 1    
    13    6  132 1    
    14    6  133 1    
    15    7    8 1    
    16    8    9 1    
    17    8  134 1    
    18    8  135 1    
    19    9   10 ar   
    20    9   14 ar   
    21   10   11 ar   
    22   10  136 1    
    23   11   12 ar   
    24   11  126 1    
    25   12   13 ar   
    26   12  137 1    
    27   13   14 ar   
    28   13   15 1    
    29   14  138 1    
    30   15   16 1    
    31   15  139 1    
    32   15  140 1    
    33   16   17 1    
    34   17   18 1    
    35   17  141 1    
    36   17  142 1    
    37   18   19 1    
    38   18   67 1    
    39   18  143 1    
    40   19   20 am   BACKBONE|DICT|INTERRES
    41   19  144 1    
    42   20   21 2    
    43   20   22 1    
    44   22   23 1    
    45   22   24 1    
    46   22  145 1    
    47   23  146 1    
    48   23  147 1    
    49   23  148 1    
    50   24   25 am   BACKBONE|DICT|INTERRES
    51   24  149 1    
    52   25   26 2    
    53   25   27 1    
    54   27   28 1    
    55   27   29 1    
    56   27  150 1    
    57   28  151 1    
    58   28  152 1    
    59   28  153 1    
    60   29   30 am   BACKBONE|DICT|INTERRES
    61   29  154 1    
    62   30   31 2    
    63   30   32 1    
    64   32   33 1    
    65   32   34 1    
    66   32  155 1    
    67   33  156 1    
    68   33  157 1    
    69   33  158 1    
    70   34   35 am   BACKBONE|DICT|INTERRES
    71   34  159 1    
    72   35   36 2    
    73   35   37 1    
    74   37   38 1    
    75   37   39 1    
    76   37  160 1    
    77   38  161 1    
    78   38  162 1    
    79   38  163 1    
    80   39   40 am   BACKBONE|DICT|INTERRES
    81   39  164 1    
    82   40   41 2    
    83   40   42 1    
    84   42   43 1    
    85   42   44 1    
    86   42  165 1    
    87   43  166 1    
    88   43  167 1    
    89   43  168 1    
    90   44   45 am   BACKBONE|DICT|INTERRES
    91   44  169 1    
    92   45   46 2    
    93   45   47 1    
    94   47   48 1    
    95   47   49 1    
    96   47  170 1    
    97   48  171 1    
    98   48  172 1    
    99   48  173 1    
   100   49   50 am   BACKBONE|DICT|INTERRES
   101   49  174 1    
   102   50   51 2    
   103   50   52 1    
   104   52   53 1    
   105   52   54 1    
   106   52  175 1    
   107   53  176 1    
   108   53  177 1    
   109   53  178 1    
   110   54   55 am   BACKBONE|DICT|INTERRES
   111   54  179 1    
   112   55   56 2    
   113   55   57 1    
   114   57   58 1    
   115   57   59 1    
   116   57  180 1    
   117   58  181 1    
   118   58  182 1    
   119   58  183 1    
   120   59   60 am   BACKBONE|DICT|INTERRES
   121   59  184 1    
   122   60   61 2    
   123   60   62 1    
   124   62   63 1    
   125   62   64 1    
   126   62  185 1    
   127   63  186 1    
   128   63  187 1    
   129   63  188 1    
   130   64   65 am   BACKBONE|DICT|INTERRES
   131   64  189 1    
   132   65   66 2    
   133   67   68 2    
   134   67   69 am   BACKBONE|DICT|INTERRES
   135   69   70 1    
   136   69  190 1    
   137   70   71 1    
   138   70   72 1    
   139   70  191 1    
   140   71  192 1    
   141   71  193 1    
   142   71  194 1    
   143   72   73 2    
   144   72   74 am   BACKBONE|DICT|INTERRES
   145   74   75 1    
   146   74  195 1    
   147   75   76 1    
   148   75   77 1    
   149   75  196 1    
   150   76  197 1    
   151   76  198 1    
   152   76  199 1    
   153   77   78 2    
   154   77   79 am   BACKBONE|DICT|INTERRES
   155   79   80 1    
   156   79  200 1    
   157   80   81 1    
   158   80   82 1    
   159   80  201 1    
   160   81  202 1    
   161   81  203 1    
   162   81  204 1    
   163   82   83 2    
   164   82   84 am   BACKBONE|DICT|INTERRES
   165   84   85 1    
   166   84  205 1    
   167   85   86 1    
   168   85   87 1    
   169   85  206 1    
   170   86  207 1    
   171   86  208 1    
   172   86  209 1    
   173   87   88 2    
   174   87   89 am   BACKBONE|DICT|INTERRES
   175   89   90 1    
   176   89  210 1    
   177   90   91 1    
   178   90   92 1    
   179   90  211 1    
   180   91  212 1    
   181   91  213 1    
   182   91  214 1    
   183   92   93 2    
   184   92   94 am   BACKBONE|DICT|INTERRES
   185   94   95 1    
   186   94  215 1    
   187   95   96 1    
   188   95   97 1    
   189   95  216 1    
   190   96  217 1    
   191   96  218 1    
   192   96  219 1    
   193   97   98 2    
   194   97   99 am   BACKBONE|DICT|INTERRES
   195   99  100 1    
   196   99  220 1    
   197  100  101 1    
   198  100  102 1    
   199  100  221 1    
   200  101  222 1    
   201  101  223 1    
   202  101  224 1    
   203  102  103 2    
   204  102  104 am   BACKBONE|DICT|INTERRES
   205  104  105 1    
   206  104  225 1    
   207  105  106 1    
   208  105  107 1    
   209  105  226 1    
   210  106  227 1    
   211  106  228 1    
   212  106  229 1    
   213  107  108 2    
   214  107  109 am   BACKBONE|DICT|INTERRES
   215  109  110 1    
   216  109  230 1    
   217  110  111 1    
   218  110  112 1    
   219  110  231 1    
   220  111  232 1    
   221  111  233 1    
   222  111  234 1    
   223  112  113 2    
   224  112  114 am   BACKBONE|DICT|INTERRES
   225  114  115 1    
   226  114  235 1    
   227  115  116 1    
   228  115  117 1    
   229  115  236 1    
   230  116  237 1    
   231  116  238 1    
   232  116  239 1    
   233  117  118 2    
   234  117  119 am   BACKBONE|DICT|INTERRES
   235  119  120 1    
   236  119  240 1    
   237  120  121 1    
   238  120  124 1    
   239  120  241 1    
   240  121  122 am   BACKBONE|DICT|INTERRES
   241  121  123 2    
   242  122  242 1    
   243  122  243 1    
   244  124  125 1    
   245  124  244 1    
   246  124  245 1    
   247  125  126 1    
   248  126  246 1    
   249  126  247 1    
@<TRIPOS>SUBSTRUCTURE
     1 UNK         1 GROUP             0       ****    0 ROOT    
