@<TRIPOS>MOLECULE
3R540
247   249    1
SMALL
USER_CHARGES


@<TRIPOS>ATOM
      1 CA          1.4508   -9.0429  -47.9477 C.3       0 UNK        -0.1800 
      2 C           0.8988  -10.4597  -47.8839 C.2       0 UNK         0.5000 
      3 O           1.3437  -11.2558  -47.0565 O.2       0 UNK        -0.5000 
      4 N          -0.0791  -10.7774  -48.7420 N.am      1 UNK        -0.5000 
      5 CA         -0.7462  -12.0819  -48.8413 C.3       1 UNK         0.1400 
      6 C6         -1.2810  -12.3202  -50.2795 C.3       23 UNK        -0.0398 
      7 S7         -1.4403  -14.0931  -50.6764 S.3       23 UNK        -0.2404 
      8 C8          0.1030  -14.3859  -51.5944 C.3       23 UNK        -0.0205 
      9 C9          0.3449  -15.8741  -51.7806 C.ar      23 UNK        -0.0193 
     10 C10        -0.0324  -16.5180  -52.9637 C.ar      23 UNK        -0.1150 
     11 C11         0.1676  -17.8940  -53.1136 C.ar      23 UNK        -0.0193 
     12 C12         0.7490  -18.6222  -52.0733 C.ar      23 UNK        -0.1150 
     13 C13         1.1194  -17.9919  -50.8828 C.ar      23 UNK        -0.0193 
     14 C14         0.9282  -16.6142  -50.7486 C.ar      23 UNK        -0.1150 
     15 C15         1.6938  -18.7962  -49.7284 C.3       23 UNK        -0.0205 
     16 S16         0.4345  -19.8842  -48.9843 S.3       23 UNK        -0.2404 
     17 C17         0.7764  -21.4702  -49.8158 C.3       23 UNK        -0.0398 
     18 CA          0.4096  -22.7232  -48.9815 C.3       11 UNK         0.1400 
     19 N           0.9757  -22.6750  -47.6251 N.am      11 UNK        -0.5000 
     20 C           1.3589  -23.7317  -46.8948 C.2       10 UNK         0.5000 
     21 O           1.2312  -24.8935  -47.2835 O.2       10 UNK        -0.5000 
     22 CA          1.9211  -23.4447  -45.4881 C.3       10 UNK         0.1400 
     23 CB          2.7774  -24.5989  -44.9276 C.3       10 UNK        -0.1800 
     24 N           2.6344  -22.1698  -45.4044 N.am      10 UNK        -0.5000 
     25 C           3.7682  -21.8091  -46.0218 C.2       9 UNK         0.5000 
     26 O           4.4093  -22.5401  -46.7774 O.2       9 UNK        -0.5000 
     27 CA          4.2678  -20.3759  -45.7511 C.3       9 UNK         0.1400 
     28 CB          3.8499  -19.4479  -46.9004 C.3       9 UNK        -0.1800 
     29 N           3.7686  -19.8203  -44.4903 N.am      9 UNK        -0.5000 
     30 C           4.1497  -20.2226  -43.2698 C.2       8 UNK         0.5000 
     31 O           5.0346  -21.0553  -43.0690 O.2       8 UNK        -0.5000 
     32 CA          3.3895  -19.6179  -42.0741 C.3       8 UNK         0.1400 
     33 CB          3.9521  -18.2354  -41.7109 C.3       8 UNK        -0.1800 
     34 N           1.9468  -19.5175  -42.3111 N.am      8 UNK        -0.5000 
     35 C           1.1222  -20.5674  -42.4432 C.2       7 UNK         0.5000 
     36 O           1.4854  -21.7390  -42.3424 O.2       7 UNK        -0.5000 
     37 CA         -0.3485  -20.2664  -42.7844 C.3       7 UNK         0.1400 
     38 CB         -1.1464  -19.9064  -41.5229 C.3       7 UNK        -0.1800 
     39 N          -0.4868  -19.2008  -43.7752 N.am      7 UNK        -0.5000 
     40 C          -0.1013  -19.3009  -45.0547 C.2       6 UNK         0.5000 
     41 O           0.3386  -20.3362  -45.5557 O.2       6 UNK        -0.5000 
     42 CA         -0.2066  -18.0255  -45.9086 C.3       6 UNK         0.1400 
     43 CB         -1.6311  -17.8536  -46.4527 C.3       6 UNK        -0.1800 
     44 N           0.1851  -16.8207  -45.1801 N.am      6 UNK        -0.5000 
     45 C           1.4156  -16.5848  -44.7054 C.2       5 UNK         0.5000 
     46 O           2.3663  -17.3504  -44.8562 O.2       5 UNK        -0.5000 
     47 CA          1.5983  -15.3075  -43.8697 C.3       5 UNK         0.1400 
     48 CB          1.7733  -14.0751  -44.7707 C.3       5 UNK        -0.1800 
     49 N           0.4806  -15.0997  -42.9488 N.am      5 UNK        -0.5000 
     50 C           0.2162  -15.8855  -41.8948 C.2       4 UNK         0.5000 
     51 O           0.9132  -16.8444  -41.5647 O.2       4 UNK        -0.5000 
     52 CA         -1.0664  -15.5720  -41.1041 C.3       4 UNK         0.1400 
     53 CB         -0.8122  -14.4575  -40.0784 C.3       4 UNK        -0.1800 
     54 N          -2.1795  -15.1880  -41.9731 N.am      4 UNK        -0.5000 
     55 C          -2.7854  -16.0140  -42.8380 C.2       3 UNK         0.5000 
     56 O          -2.4909  -17.2012  -42.9731 O.2       3 UNK        -0.5000 
     57 CA         -3.8685  -15.3896  -43.7378 C.3       3 UNK         0.1400 
     58 CB         -5.2134  -15.3314  -42.9981 C.3       3 UNK        -0.1800 
     59 N          -3.5191  -14.0466  -44.2129 N.am      3 UNK        -0.5000 
     60 C          -2.4491  -13.7610  -44.9660 C.2       2 UNK         0.5000 
     61 O          -1.6382  -14.6082  -45.3456 O.2       2 UNK        -0.5000 
     62 CA         -2.2096  -12.2740  -45.2782 C.3       2 UNK         0.1400 
     63 CB         -1.4926  -11.5943  -44.1006 C.3       2 UNK        -0.1800 
     64 N          -1.3917  -12.1037  -46.4761 N.am      2 UNK        -0.5000 
     65 C          -1.8194  -12.2478  -47.7355 C.2       1 UNK         0.5000 
     66 O          -2.9989  -12.4565  -48.0260 O.2       1 UNK        -0.5000 
     67 C          -1.1048  -23.0471  -48.9750 C.2       11 UNK         0.5000 
     68 O          -1.8777  -22.4513  -49.7304 O.2       11 UNK        -0.5000 
     69 N          -1.4921  -23.9950  -48.1098 N.am      12 UNK        -0.5000 
     70 CA         -2.8551  -24.4268  -47.7806 C.3       12 UNK         0.1400 
     71 CB         -3.5505  -25.0725  -48.9938 C.3       12 UNK        -0.1800 
     72 C          -3.6950  -23.3516  -47.0513 C.2       12 UNK         0.5000 
     73 O          -4.9205  -23.4710  -46.9740 O.2       12 UNK        -0.5000 
     74 N          -2.9929  -22.3637  -46.4721 N.am      13 UNK        -0.5000 
     75 CA         -3.4486  -21.3535  -45.5151 C.3       13 UNK         0.1400 
     76 CB         -3.5873  -22.0076  -44.1222 C.3       13 UNK        -0.1800 
     77 C          -4.7073  -20.5778  -45.9584 C.2       13 UNK         0.5000 
     78 O          -4.9140  -20.3619  -47.1543 O.2       13 UNK        -0.5000 
     79 N          -5.5282  -20.1693  -44.9829 N.am      14 UNK        -0.5000 
     80 CA         -6.8079  -19.4899  -45.1833 C.3       14 UNK         0.1400 
     81 CB         -7.2431  -18.8618  -43.8513 C.3       14 UNK        -0.1800 
     82 C          -7.9138  -20.4181  -45.7245 C.2       14 UNK         0.5000 
     83 O          -8.9129  -19.9160  -46.2383 O.2       14 UNK        -0.5000 
     84 N          -7.7229  -21.7417  -45.6066 N.am      15 UNK        -0.5000 
     85 CA         -8.6482  -22.7688  -46.0872 C.3       15 UNK         0.1400 
     86 CB         -8.2230  -24.1427  -45.5456 C.3       15 UNK        -0.1800 
     87 C          -8.7528  -22.7816  -47.6219 C.2       15 UNK         0.5000 
     88 O          -9.8630  -22.7489  -48.1546 O.2       15 UNK        -0.5000 
     89 N          -7.5969  -22.7834  -48.3002 N.am      16 UNK        -0.5000 
     90 CA         -7.5101  -22.6233  -49.7550 C.3       16 UNK         0.1400 
     91 CB         -6.2926  -23.3951  -50.2697 C.3       16 UNK        -0.1800 
     92 C          -7.4128  -21.1455  -50.1795 C.2       16 UNK         0.5000 
     93 O          -7.5774  -20.8505  -51.3634 O.2       16 UNK        -0.5000 
     94 N          -7.1373  -20.2596  -49.2116 N.am      17 UNK        -0.5000 
     95 CA         -6.9094  -18.8203  -49.3463 C.3       17 UNK         0.1400 
     96 CB         -8.1664  -18.0985  -49.8774 C.3       17 UNK        -0.1800 
     97 C          -5.6278  -18.5180  -50.1470 C.2       17 UNK         0.5000 
     98 O          -5.6669  -17.7287  -51.0917 O.2       17 UNK        -0.5000 
     99 N          -4.5236  -19.1526  -49.7188 N.am      18 UNK        -0.5000 
    100 CA        -3.1530  -19.0375  -50.2289 C.3       18 UNK         0.1400 
    101 CB        -2.6360  -17.6012  -50.0197 C.3       18 UNK        -0.1800 
    102 C         -3.0466  -19.4937  -51.6977 C.2       18 UNK         0.5000 
    103 O         -3.1775  -18.6746  -52.6099 O.2       18 UNK        -0.5000 
    104 N         -2.8618  -20.8043  -51.9053 N.am      19 UNK        -0.5000 
    105 CA        -2.9710  -21.4234  -53.2277 C.3       19 UNK         0.1400 
    106 CB        -4.3118  -22.1688  -53.3243 C.3       19 UNK        -0.1800 
    107 C         -1.8139  -22.3730  -53.5618 C.2       19 UNK         0.5000 
    108 O         -1.2710  -22.2829  -54.6631 O.2       19 UNK        -0.5000 
    109 N         -1.4768  -23.2913  -52.6436 N.am      20 UNK        -0.5000 
    110 CA        -0.7190  -24.5112  -52.9616 C.3       20 UNK         0.1400 
    111 CB        -0.7252  -25.4579  -51.7529 C.3       20 UNK        -0.1800 
    112 C          0.7164  -24.2938  -53.4796 C.2       20 UNK         0.5000 
    113 O          1.2053  -25.1158  -54.2555 O.2       20 UNK        -0.5000 
    114 N          1.3557  -23.1880  -53.0761 N.am      21 UNK        -0.5000 
    115 CA         2.6955  -22.8079  -53.5362 C.3       21 UNK         0.1400 
    116 CB         3.3371  -21.8520  -52.5188 C.3       21 UNK        -0.1800 
    117 C          2.7079  -22.1916  -54.9504 C.2       21 UNK         0.5000 
    118 O          3.7763  -22.1250  -55.5600 O.2       21 UNK        -0.5000 
    119 N          1.5418  -21.7587  -55.4481 N.am      22 UNK        -0.5000 
    120 CA         1.3646  -21.1695  -56.7864 C.3       22 UNK         0.1400 
    121 C          0.9109  -22.2031  -57.8595 C.2       22 UNK         0.5000 
    122 N          0.7355  -23.4784  -57.5315 N.am      22 UNK        -0.7600 
    123 O          0.7322  -21.8468  -59.0212 O.2       22 UNK        -0.5000 
    124 C124        0.4253  -19.9343  -56.7554 C.3       23 UNK        -0.0398 
    125 S125        1.0318  -18.6217  -55.6371 S.3       23 UNK        -0.2404 
    126 C126       -0.2775  -18.6114  -54.3769 C.3       23 UNK        -0.0205 
    127 H127        1.3014   -8.5394  -46.9926 H         1 UNK         0.0600 
    128 H128        0.9639   -8.4522  -48.7240 H         1 UNK         0.0600 
    129 H129        2.5199   -9.0667  -48.1584 H         1 UNK         0.0600 
    130 H130       -0.4268  -10.0646  -49.3679 H         1 UNK         0.3000 
    131 H131        0.0116  -12.8450  -48.6479 H         1 UNK         0.0600 
    132 H132       -2.2415  -11.8271  -50.4384 H         1 UNK         0.0800 
    133 H133       -0.6051  -11.8748  -51.0110 H         1 UNK         0.0800 
    134 H134        0.9420  -13.9448  -51.0536 H         1 UNK         0.0800 
    135 H135        0.0544  -13.8813  -52.5607 H         1 UNK         0.0800 
    136 H136       -0.4952  -15.9535  -53.7608 H         1 UNK         0.1150 
    137 H137        0.8854  -19.6862  -52.1833 H         1 UNK         0.1150 
    138 H138        1.2016  -16.1191  -49.8273 H         1 UNK         0.1150 
    139 H139        2.0615  -18.1230  -48.9530 H         1 UNK         0.0800 
    140 H140        2.5606  -19.3645  -50.0666 H         1 UNK         0.0800 
    141 H141        1.8440  -21.5142  -50.0257 H         1 UNK         0.0800 
    142 H142        0.2793  -21.4769  -50.7859 H         1 UNK         0.0800 
    143 H143        0.8770  -23.5649  -49.4953 H         1 UNK         0.0600 
    144 H144        1.0410  -21.7540  -47.2061 H         1 UNK         0.3000 
    145 H145        1.0520  -23.3385  -44.8372 H         1 UNK         0.0600 
    146 H146        3.1527  -24.3610  -43.9320 H         1 UNK         0.0600 
    147 H147        2.1917  -25.5148  -44.8416 H         1 UNK         0.0600 
    148 H148        3.6333  -24.8180  -45.5665 H         1 UNK         0.0600 
    149 H149        2.1655  -21.4580  -44.8590 H         1 UNK         0.3000 
    150 H150        5.3584  -20.4055  -45.7087 H         1 UNK         0.0600 
    151 H151        4.1996  -19.8263  -47.8618 H         1 UNK         0.0600 
    152 H152        4.2644  -18.4478  -46.7721 H         1 UNK         0.0600 
    153 H153        2.7651  -19.3552  -46.9556 H         1 UNK         0.0600 
    154 H154        3.0899  -19.0660  -44.5661 H         1 UNK         0.3000 
    155 H155        3.5415  -20.2783  -41.2177 H         1 UNK         0.0600 
    156 H156        5.0226  -18.2898  -41.5095 H         1 UNK         0.0600 
    157 H157        3.4726  -17.8380  -40.8162 H         1 UNK         0.0600 
    158 H158        3.8054  -17.5154  -42.5161 H         1 UNK         0.0600 
    159 H159        1.5584  -18.5805  -42.3516 H         1 UNK         0.3000 
    160 H160       -0.7795  -21.1753  -43.2081 H         1 UNK         0.0600 
    161 H161       -0.7793  -18.9894  -41.0615 H         1 UNK         0.0600 
    162 H162       -1.0787  -20.7001  -40.7780 H         1 UNK         0.0600 
    163 H163       -2.2025  -19.7643  -41.7524 H         1 UNK         0.0600 
    164 H164       -0.9107  -18.3347  -43.4579 H         1 UNK         0.3000 
    165 H165        0.4777  -18.1249  -46.7510 H         1 UNK         0.0600 
    166 H166       -2.3686  -17.7973  -45.6521 H         1 UNK         0.0600 
    167 H167       -1.7110  -16.9401  -47.0413 H         1 UNK         0.0600 
    168 H168       -1.9064  -18.6888  -47.0980 H         1 UNK         0.0600 
    169 H169       -0.5284  -16.1056  -45.0625 H         1 UNK         0.3000 
    170 H170        2.5079  -15.4234  -43.2767 H         1 UNK         0.0600 
    171 H171        2.6360  -14.1946  -45.4273 H         1 UNK         0.0600 
    172 H172        0.9049  -13.9050  -45.4067 H         1 UNK         0.0600 
    173 H173        1.9381  -13.1734  -44.1810 H         1 UNK         0.0600 
    174 H174       -0.1715  -14.3674  -43.1828 H         1 UNK         0.3000 
    175 H175       -1.3535  -16.4760  -40.5628 H         1 UNK         0.0600 
    176 H176        0.0046  -14.7251  -39.4068 H         1 UNK         0.0600 
    177 H177       -0.5458  -13.5163  -40.5611 H         1 UNK         0.0600 
    178 H178       -1.6937  -14.2811  -39.4617 H         1 UNK         0.0600 
    179 H179       -2.4880  -14.2284  -41.9252 H         1 UNK         0.3000 
    180 H180       -3.9834  -16.0369  -44.6098 H         1 UNK         0.0600 
    181 H181       -5.4665  -16.2994  -42.5657 H         1 UNK         0.0600 
    182 H182       -5.1938  -14.6088  -42.1815 H         1 UNK         0.0600 
    183 H183       -6.0231  -15.0540  -43.6734 H         1 UNK         0.0600 
    184 H184       -4.1348  -13.2969  -43.9320 H         1 UNK         0.3000 
    185 H185       -3.1740  -11.7865  -45.4354 H         1 UNK         0.0600 
    186 H186       -2.0773  -11.6716  -43.1832 H         1 UNK         0.0600 
    187 H187       -0.5170  -12.0425  -43.9084 H         1 UNK         0.0600 
    188 H188       -1.3379  -10.5329  -44.2955 H         1 UNK         0.0600 
    189 H189       -0.4017  -11.9310  -46.3370 H         1 UNK         0.3000 
    190 H190       -0.7532  -24.4591  -47.5920 H         1 UNK         0.3000 
    191 H191       -2.7337  -25.2188  -47.0401 H         1 UNK         0.0600 
    192 H192       -3.6283  -24.3904  -49.8384 H         1 UNK         0.0600 
    193 H193       -4.5542  -25.4118  -48.7381 H         1 UNK         0.0600 
    194 H194       -2.9980  -25.9493  -49.3307 H         1 UNK         0.0600 
    195 H195       -2.0019  -22.3519  -46.6608 H         1 UNK         0.3000 
    196 H196       -2.6517  -20.6137  -45.4565 H         1 UNK         0.0600 
    197 H197       -3.7108  -21.2620  -43.3360 H         1 UNK         0.0600 
    198 H198       -2.6959  -22.5821  -43.8698 H         1 UNK         0.0600 
    199 H199       -4.4374  -22.6900  -44.0797 H         1 UNK         0.0600 
    200 H200       -5.2805  -20.3786  -44.0266 H         1 UNK         0.3000 
    201 H201       -6.6621  -18.6869  -45.9083 H         1 UNK         0.0600 
    202 H202       -8.1634  -18.2880  -43.9708 H         1 UNK         0.0600 
    203 H203       -7.4245  -19.6198  -43.0881 H         1 UNK         0.0600 
    204 H204       -6.4830  -18.1802  -43.4724 H         1 UNK         0.0600 
    205 H205       -6.8635  -22.0683  -45.1906 H         1 UNK         0.3000 
    206 H206       -9.6389  -22.5413  -45.6879 H         1 UNK         0.0600 
    207 H207       -8.2286  -24.1550  -44.4556 H         1 UNK         0.0600 
    208 H208       -8.9073  -24.9225  -45.8824 H         1 UNK         0.0600 
    209 H209       -7.2221  -24.4196  -45.8781 H         1 UNK         0.0600 
    210 H210       -6.7205  -22.8617  -47.7918 H         1 UNK         0.3000 
    211 H211       -8.3991  -23.0476  -50.2266 H         1 UNK         0.0600 
    212 H212       -6.2739  -23.3989  -51.3593 H         1 UNK         0.0600 
    213 H213       -6.3191  -24.4346  -49.9450 H         1 UNK         0.0600 
    214 H214       -5.3646  -22.9418  -49.9203 H         1 UNK         0.0600 
    215 H215       -6.9651  -20.6342  -48.2893 H         1 UNK         0.3000 
    216 H216       -6.7292  -18.4461  -48.3380 H         1 UNK         0.0600 
    217 H217       -8.0327  -17.0165  -49.8494 H         1 UNK         0.0600 
    218 H218       -9.0401  -18.3332  -49.2690 H         1 UNK         0.0600 
    219 H219       -8.3915  -18.3711  -50.9088 H         1 UNK         0.0600 
    220 H220       -4.6305  -19.7591  -48.9083 H         1 UNK         0.3000 
    221 H221       -2.5406  -19.7039  -49.6199 H         1 UNK         0.0600 
    222 H222       -1.5614  -17.5574  -50.1758 H         1 UNK         0.0600 
    223 H223       -3.0946  -16.8893  -50.7066 H         1 UNK         0.0600 
    224 H224       -2.8356  -17.2496  -49.0097 H         1 UNK         0.0600 
    225 H225       -2.6945  -21.4151  -51.1094 H         1 UNK         0.3000 
    226 H226       -2.9671  -20.6605  -54.0095 H         1 UNK         0.0600 
    227 H227       -4.4549  -22.5903  -54.3203 H         1 UNK         0.0600 
    228 H228       -4.3625  -22.9909  -52.6100 H         1 UNK         0.0600 
    229 H229       -5.1518  -21.5010  -53.1293 H         1 UNK         0.0600 
    230 H230       -1.9305  -23.2657  -51.7396 H         1 UNK         0.3000 
    231 H231       -1.2623  -25.0126  -53.7656 H         1 UNK         0.0600 
    232 H232       -1.7414  -25.6664  -51.4193 H         1 UNK         0.0600 
    233 H233       -0.1680  -25.0498  -50.9126 H         1 UNK         0.0600 
    234 H234       -0.2678  -26.4149  -52.0078 H         1 UNK         0.0600 
    235 H235        0.8673  -22.5410  -52.4787 H         1 UNK         0.3000 
    236 H236        3.3157  -23.7062  -53.5764 H         1 UNK         0.0600 
    237 H237        3.4352  -22.3264  -51.5427 H         1 UNK         0.0600 
    238 H238        4.3411  -21.5645  -52.8342 H         1 UNK         0.0600 
    239 H239        2.7613  -20.9354  -52.4013 H         1 UNK         0.0600 
    240 H240        0.6866  -21.9042  -54.9232 H         1 UNK         0.3000 
    241 H241        2.3328  -20.8101  -57.1396 H         1 UNK         0.0600 
    242 H242        0.8843  -23.7902  -56.5841 H         1 UNK         0.3800 
    243 H243        0.4483  -24.1375  -58.2378 H         1 UNK         0.3800 
    244 H244        0.3419  -19.4950  -57.7509 H         1 UNK         0.0800 
    245 H245       -0.5859  -20.2319  -56.4733 H         1 UNK         0.0800 
    246 H246       -0.5546  -19.6363  -54.1306 H         1 UNK         0.0800 
    247 H247       -1.1742  -18.1405  -54.7830 H         1 UNK         0.0800 
@<TRIPOS>BOND
     1    1    2 1    
     2    1  127 1    
     3    1  128 1    
     4    1  129 1    
     5    2    3 2    
     6    2    4 am   BACKBONE|DICT|INTERRES
     7    4    5 1    
     8    4  130 1    
     9    5    6 1    
    10    5   65 1    
    11    5  131 1    
    12    6    7 1    
    13    6  132 1    
    14    6  133 1    
    15    7    8 1    
    16    8    9 1    
    17    8  134 1    
    18    8  135 1    
    19    9   10 ar   
    20    9   14 ar   
    21   10   11 ar   
    22   10  136 1    
    23   11   12 ar   
    24   11  126 1    
    25   12   13 ar   
    26   12  137 1    
    27   13   14 ar   
    28   13   15 1    
    29   14  138 1    
    30   15   16 1    
    31   15  139 1    
    32   15  140 1    
    33   16   17 1    
    34   17   18 1    
    35   17  141 1    
    36   17  142 1    
    37   18   19 1    
    38   18   67 1    
    39   18  143 1    
    40   19   20 am   BACKBONE|DICT|INTERRES
    41   19  144 1    
    42   20   21 2    
    43   20   22 1    
    44   22   23 1    
    45   22   24 1    
    46   22  145 1    
    47   23  146 1    
    48   23  147 1    
    49   23  148 1    
    50   24   25 am   BACKBONE|DICT|INTERRES
    51   24  149 1    
    52   25   26 2    
    53   25   27 1    
    54   27   28 1    
    55   27   29 1    
    56   27  150 1    
    57   28  151 1    
    58   28  152 1    
    59   28  153 1    
    60   29   30 am   BACKBONE|DICT|INTERRES
    61   29  154 1    
    62   30   31 2    
    63   30   32 1    
    64   32   33 1    
    65   32   34 1    
    66   32  155 1    
    67   33  156 1    
    68   33  157 1    
    69   33  158 1    
    70   34   35 am   BACKBONE|DICT|INTERRES
    71   34  159 1    
    72   35   36 2    
    73   35   37 1    
    74   37   38 1    
    75   37   39 1    
    76   37  160 1    
    77   38  161 1    
    78   38  162 1    
    79   38  163 1    
    80   39   40 am   BACKBONE|DICT|INTERRES
    81   39  164 1    
    82   40   41 2    
    83   40   42 1    
    84   42   43 1    
    85   42   44 1    
    86   42  165 1    
    87   43  166 1    
    88   43  167 1    
    89   43  168 1    
    90   44   45 am   BACKBONE|DICT|INTERRES
    91   44  169 1    
    92   45   46 2    
    93   45   47 1    
    94   47   48 1    
    95   47   49 1    
    96   47  170 1    
    97   48  171 1    
    98   48  172 1    
    99   48  173 1    
   100   49   50 am   BACKBONE|DICT|INTERRES
   101   49  174 1    
   102   50   51 2    
   103   50   52 1    
   104   52   53 1    
   105   52   54 1    
   106   52  175 1    
   107   53  176 1    
   108   53  177 1    
   109   53  178 1    
   110   54   55 am   BACKBONE|DICT|INTERRES
   111   54  179 1    
   112   55   56 2    
   113   55   57 1    
   114   57   58 1    
   115   57   59 1    
   116   57  180 1    
   117   58  181 1    
   118   58  182 1    
   119   58  183 1    
   120   59   60 am   BACKBONE|DICT|INTERRES
   121   59  184 1    
   122   60   61 2    
   123   60   62 1    
   124   62   63 1    
   125   62   64 1    
   126   62  185 1    
   127   63  186 1    
   128   63  187 1    
   129   63  188 1    
   130   64   65 am   BACKBONE|DICT|INTERRES
   131   64  189 1    
   132   65   66 2    
   133   67   68 2    
   134   67   69 am   BACKBONE|DICT|INTERRES
   135   69   70 1    
   136   69  190 1    
   137   70   71 1    
   138   70   72 1    
   139   70  191 1    
   140   71  192 1    
   141   71  193 1    
   142   71  194 1    
   143   72   73 2    
   144   72   74 am   BACKBONE|DICT|INTERRES
   145   74   75 1    
   146   74  195 1    
   147   75   76 1    
   148   75   77 1    
   149   75  196 1    
   150   76  197 1    
   151   76  198 1    
   152   76  199 1    
   153   77   78 2    
   154   77   79 am   BACKBONE|DICT|INTERRES
   155   79   80 1    
   156   79  200 1    
   157   80   81 1    
   158   80   82 1    
   159   80  201 1    
   160   81  202 1    
   161   81  203 1    
   162   81  204 1    
   163   82   83 2    
   164   82   84 am   BACKBONE|DICT|INTERRES
   165   84   85 1    
   166   84  205 1    
   167   85   86 1    
   168   85   87 1    
   169   85  206 1    
   170   86  207 1    
   171   86  208 1    
   172   86  209 1    
   173   87   88 2    
   174   87   89 am   BACKBONE|DICT|INTERRES
   175   89   90 1    
   176   89  210 1    
   177   90   91 1    
   178   90   92 1    
   179   90  211 1    
   180   91  212 1    
   181   91  213 1    
   182   91  214 1    
   183   92   93 2    
   184   92   94 am   BACKBONE|DICT|INTERRES
   185   94   95 1    
   186   94  215 1    
   187   95   96 1    
   188   95   97 1    
   189   95  216 1    
   190   96  217 1    
   191   96  218 1    
   192   96  219 1    
   193   97   98 2    
   194   97   99 am   BACKBONE|DICT|INTERRES
   195   99  100 1    
   196   99  220 1    
   197  100  101 1    
   198  100  102 1    
   199  100  221 1    
   200  101  222 1    
   201  101  223 1    
   202  101  224 1    
   203  102  103 2    
   204  102  104 am   BACKBONE|DICT|INTERRES
   205  104  105 1    
   206  104  225 1    
   207  105  106 1    
   208  105  107 1    
   209  105  226 1    
   210  106  227 1    
   211  106  228 1    
   212  106  229 1    
   213  107  108 2    
   214  107  109 am   BACKBONE|DICT|INTERRES
   215  109  110 1    
   216  109  230 1    
   217  110  111 1    
   218  110  112 1    
   219  110  231 1    
   220  111  232 1    
   221  111  233 1    
   222  111  234 1    
   223  112  113 2    
   224  112  114 am   BACKBONE|DICT|INTERRES
   225  114  115 1    
   226  114  235 1    
   227  115  116 1    
   228  115  117 1    
   229  115  236 1    
   230  116  237 1    
   231  116  238 1    
   232  116  239 1    
   233  117  118 2    
   234  117  119 am   BACKBONE|DICT|INTERRES
   235  119  120 1    
   236  119  240 1    
   237  120  121 1    
   238  120  124 1    
   239  120  241 1    
   240  121  122 am   BACKBONE|DICT|INTERRES
   241  121  123 2    
   242  122  242 1    
   243  122  243 1    
   244  124  125 1    
   245  124  244 1    
   246  124  245 1    
   247  125  126 1    
   248  126  246 1    
   249  126  247 1    
@<TRIPOS>SUBSTRUCTURE
     1 UNK         1 GROUP             0       ****    0 ROOT    
