@<TRIPOS>MOLECULE
3R540
247   249    1
SMALL
USER_CHARGES


@<TRIPOS>ATOM
      1 CA         -3.6693  -10.1014  -42.3204 C.3       0 UNK        -0.1800 
      2 C          -2.7672  -10.4584  -43.4926 C.2       0 UNK         0.5000 
      3 O          -1.7147   -9.8435  -43.6655 O.2       0 UNK        -0.5000 
      4 N          -3.1663  -11.4596  -44.2893 N.am      1 UNK        -0.5000 
      5 CA         -2.4450  -11.9559  -45.4710 C.3       1 UNK         0.1400 
      6 C6         -3.2604  -13.0051  -46.2679 C.3       23 UNK        -0.0398 
      7 S7         -3.8896  -14.3869  -45.2487 S.3       23 UNK        -0.2404 
      8 C8         -5.1338  -15.1065  -46.3635 C.3       23 UNK        -0.0205 
      9 C9         -4.5433  -16.2099  -47.2269 C.ar      23 UNK        -0.0193 
     10 C10        -3.9123  -15.9101  -48.4391 C.ar      23 UNK        -0.1150 
     11 C11        -3.3809  -16.9340  -49.2293 C.ar      23 UNK        -0.0193 
     12 C12        -3.4913  -18.2578  -48.8014 C.ar      23 UNK        -0.1150 
     13 C13        -4.1381  -18.5764  -47.6065 C.ar      23 UNK        -0.0193 
     14 C14        -4.6480  -17.5418  -46.8147 C.ar      23 UNK        -0.1150 
     15 C15        -4.2197  -20.0390  -47.1864 C.3       23 UNK        -0.0205 
     16 S16        -5.7216  -20.4834  -46.2454 S.3       23 UNK        -0.2404 
     17 C17        -5.6079  -22.3018  -46.0591 C.3       23 UNK        -0.0398 
     18 CA         -4.1776  -22.8934  -45.9973 C.3       11 UNK         0.1400 
     19 N          -3.3923  -22.3522  -44.8788 N.am      11 UNK        -0.5000 
     20 C          -2.0725  -22.5157  -44.7190 C.2       10 UNK         0.5000 
     21 O          -1.3913  -23.2485  -45.4378 O.2       10 UNK        -0.5000 
     22 CA         -1.4070  -21.7018  -43.5953 C.3       10 UNK         0.1400 
     23 CB         -0.2051  -22.4416  -42.9838 C.3       10 UNK        -0.1800 
     24 N          -0.9629  -20.4188  -44.1342 N.am      10 UNK        -0.5000 
     25 C          -1.7684  -19.3669  -44.3479 C.2       9 UNK         0.5000 
     26 O          -2.9353  -19.3274  -43.9566 O.2       9 UNK        -0.5000 
     27 CA         -1.2020  -18.1665  -45.1376 C.3       9 UNK         0.1400 
     28 CB         -0.9913  -16.9584  -44.2142 C.3       9 UNK        -0.1800 
     29 N           0.0461  -18.4605  -45.8452 N.am      9 UNK        -0.5000 
     30 C           0.1455  -19.2699  -46.9121 C.2       8 UNK         0.5000 
     31 O          -0.8209  -19.7997  -47.4576 O.2       8 UNK        -0.5000 
     32 CA          1.5609  -19.5911  -47.4323 C.3       8 UNK         0.1400 
     33 CB          1.8286  -18.8992  -48.7771 C.3       8 UNK        -0.1800 
     34 N           2.6329  -19.2731  -46.4830 N.am      8 UNK        -0.5000 
     35 C           2.8330  -19.9354  -45.3321 C.2       7 UNK         0.5000 
     36 O           2.1176  -20.8648  -44.9593 O.2       7 UNK        -0.5000 
     37 CA          3.9964  -19.4831  -44.4269 C.3       7 UNK         0.1400 
     38 CB          5.2162  -20.3949  -44.6282 C.3       7 UNK        -0.1800 
     39 N           4.4067  -18.0924  -44.6241 N.am      7 UNK        -0.5000 
     40 C           3.6470  -17.0194  -44.3698 C.2       6 UNK         0.5000 
     41 O           2.4949  -17.0885  -43.9375 O.2       6 UNK        -0.5000 
     42 CA          4.2479  -15.6340  -44.6904 C.3       6 UNK         0.1400 
     43 CB          5.7308  -15.6602  -45.1259 C.3       6 UNK        -0.1800 
     44 N           3.4337  -14.9301  -45.6853 N.am      6 UNK        -0.5000 
     45 C           3.1079  -15.3807  -46.9069 C.2       5 UNK         0.5000 
     46 O           3.5382  -16.4328  -47.3808 O.2       5 UNK        -0.5000 
     47 CA          2.1241  -14.5352  -47.7350 C.3       5 UNK         0.1400 
     48 CB          0.6919  -15.0716  -47.5734 C.3       5 UNK        -0.1800 
     49 N           2.1305  -13.1159  -47.3817 N.am      5 UNK        -0.5000 
     50 C           3.0846  -12.2412  -47.7271 C.2       4 UNK         0.5000 
     51 O           4.1082  -12.5529  -48.3363 O.2       4 UNK        -0.5000 
     52 CA          2.8538  -10.7722  -47.3360 C.3       4 UNK         0.1400 
     53 CB          1.8735  -10.1053  -48.3143 C.3       4 UNK        -0.1800 
     54 N           2.3215  -10.6584  -45.9782 N.am      4 UNK        -0.5000 
     55 C           2.9701  -10.1081  -44.9421 C.2       3 UNK         0.5000 
     56 O           4.0898   -9.6015  -45.0255 O.2       3 UNK        -0.5000 
     57 CA          2.2571  -10.1237  -43.5725 C.3       3 UNK         0.1400 
     58 CB          1.5535   -8.7820  -43.3199 C.3       3 UNK        -0.1800 
     59 N           1.2825  -11.2074  -43.4320 N.am      3 UNK        -0.5000 
     60 C           1.5977  -12.5107  -43.4143 C.2       2 UNK         0.5000 
     61 O           2.7552  -12.9255  -43.4373 O.2       2 UNK        -0.5000 
     62 CA          0.4417  -13.5306  -43.4274 C.3       2 UNK         0.1400 
     63 CB          0.2119  -14.1018  -42.0210 C.3       2 UNK        -0.1800 
     64 N          -0.8274  -13.0101  -43.9428 N.am      2 UNK        -0.5000 
     65 C          -1.0282  -12.4762  -45.1567 C.2       1 UNK         0.5000 
     66 O          -0.1380  -12.3382  -45.9958 O.2       1 UNK        -0.5000 
     67 C          -4.2118  -24.4336  -46.0758 C.2       11 UNK         0.5000 
     68 O          -4.5094  -24.9626  -47.1469 O.2       11 UNK        -0.5000 
     69 N          -3.8497  -25.1276  -44.9882 N.am      12 UNK        -0.5000 
     70 CA         -3.6168  -26.5728  -44.9681 C.3       12 UNK         0.1400 
     71 CB         -3.3786  -27.0273  -43.5206 C.3       12 UNK        -0.1800 
     72 C          -2.4419  -27.0009  -45.8721 C.2       12 UNK         0.5000 
     73 O          -2.5305  -28.0412  -46.5243 O.2       12 UNK        -0.5000 
     74 N          -1.3870  -26.1731  -45.9380 N.am      13 UNK        -0.5000 
     75 CA         -0.2347  -26.3728  -46.8223 C.3       13 UNK         0.1400 
     76 CB          0.9557  -25.5494  -46.3061 C.3       13 UNK        -0.1800 
     77 C          -0.5544  -26.0061  -48.2840 C.2       13 UNK         0.5000 
     78 O           0.0512  -26.5634  -49.1991 O.2       13 UNK        -0.5000 
     79 N          -1.5238  -25.1011  -48.4739 N.am      14 UNK        -0.5000 
     80 CA         -2.0588  -24.6896  -49.7725 C.3       14 UNK         0.1400 
     81 CB         -2.6021  -23.2552  -49.6504 C.3       14 UNK        -0.1800 
     82 C          -3.1623  -25.6322  -50.2938 C.2       14 UNK         0.5000 
     83 O          -3.7443  -25.3398  -51.3382 O.2       14 UNK        -0.5000 
     84 N          -3.4806  -26.7000  -49.5435 N.am      15 UNK        -0.5000 
     85 CA         -4.5295  -27.6942  -49.8067 C.3       15 UNK         0.1400 
     86 CB         -4.1370  -28.5748  -51.0109 C.3       15 UNK        -0.1800 
     87 C          -5.9367  -27.0721  -49.9563 C.2       15 UNK         0.5000 
     88 O          -6.7513  -27.5655  -50.7376 O.2       15 UNK        -0.5000 
     89 N          -6.1729  -25.9706  -49.2271 N.am      16 UNK        -0.5000 
     90 CA         -7.3525  -25.0991  -49.2488 C.3       16 UNK         0.1400 
     91 CB         -8.6148  -25.8652  -48.8033 C.3       16 UNK        -0.1800 
     92 C          -7.5708  -24.3304  -50.5733 C.2       16 UNK         0.5000 
     93 O          -8.5911  -23.6528  -50.7055 O.2       16 UNK        -0.5000 
     94 N          -6.6230  -24.4094  -51.5201 N.am      17 UNK        -0.5000 
     95 CA         -6.6873  -23.7181  -52.8109 C.3       17 UNK         0.1400 
     96 CB         -5.8952  -24.5213  -53.8532 C.3       17 UNK        -0.1800 
     97 C          -6.1658  -22.2712  -52.7359 C.2       17 UNK         0.5000 
     98 O          -6.4885  -21.4722  -53.6160 O.2       17 UNK        -0.5000 
     99 N          -5.3696  -21.9663  -51.6987 N.am      18 UNK        -0.5000 
    100 CA        -4.7429  -20.6817  -51.3568 C.3       18 UNK         0.1400 
    101 CB        -5.7988  -19.5864  -51.1078 C.3       18 UNK        -0.1800 
    102 C         -3.6670  -20.2251  -52.3598 C.2       18 UNK         0.5000 
    103 O         -2.4949  -20.1071  -51.9950 O.2       18 UNK        -0.5000 
    104 N         -4.0722  -20.0225  -53.6186 N.am      19 UNK        -0.5000 
    105 CA        -3.2252  -19.6073  -54.7390 C.3       19 UNK         0.1400 
    106 CB        -4.1103  -19.3600  -55.9689 C.3       19 UNK        -0.1800 
    107 C         -2.1066  -20.6122  -55.0717 C.2       19 UNK         0.5000 
    108 O         -1.0679  -20.2094  -55.5939 O.2       19 UNK        -0.5000 
    109 N         -2.3155  -21.8888  -54.7202 N.am      20 UNK        -0.5000 
    110 CA        -1.3309  -22.9653  -54.8301 C.3       20 UNK         0.1400 
    111 CB        -2.0036  -24.2958  -54.4619 C.3       20 UNK        -0.1800 
    112 C         -0.0740  -22.7442  -53.9645 C.2       20 UNK         0.5000 
    113 O          0.9941  -23.2358  -54.3313 O.2       20 UNK        -0.5000 
    114 N         -0.2158  -22.0107  -52.8506 N.am      21 UNK        -0.5000 
    115 CA         0.8936  -21.6231  -51.9833 C.3       21 UNK         0.1400 
    116 CB         0.4841  -21.7859  -50.5134 C.3       21 UNK        -0.1800 
    117 C          1.3499  -20.1846  -52.2731 C.2       21 UNK         0.5000 
    118 O          2.5558  -19.9489  -52.3576 O.2       21 UNK        -0.5000 
    119 N          0.3971  -19.2500  -52.4121 N.am      22 UNK        -0.5000 
    120 CA         0.6900  -17.8219  -52.6388 C.3       22 UNK         0.1400 
    121 C          1.2248  -17.4753  -54.0588 C.2       22 UNK         0.5000 
    122 N          0.9942  -18.2842  -55.0845 N.am      22 UNK        -0.7600 
    123 O          1.8741  -16.4475  -54.2318 O.2       22 UNK        -0.5000 
    124 C124       -0.5034  -16.9054  -52.2709 C.3       23 UNK        -0.0398 
    125 S125       -0.9282  -16.9958  -50.5004 S.3       23 UNK        -0.2404 
    126 C126       -2.7091  -16.6348  -50.5595 C.3       23 UNK        -0.0205 
    127 H127       -3.1288  -10.2222  -41.3815 H         1 UNK         0.0600 
    128 H128       -4.5579  -10.7321  -42.2856 H         1 UNK         0.0600 
    129 H129       -3.9915   -9.0631  -42.3986 H         1 UNK         0.0600 
    130 H130       -4.0313  -11.9400  -44.0838 H         1 UNK         0.3000 
    131 H131       -2.3044  -11.0948  -46.1278 H         1 UNK         0.0600 
    132 H132       -2.6742  -13.4105  -47.0950 H         1 UNK         0.0800 
    133 H133       -4.1128  -12.5047  -46.7288 H         1 UNK         0.0800 
    134 H134       -5.5834  -14.3349  -46.9899 H         1 UNK         0.0800 
    135 H135       -5.9475  -15.5086  -45.7579 H         1 UNK         0.0800 
    136 H136       -3.8366  -14.8829  -48.7658 H         1 UNK         0.1150 
    137 H137       -3.0577  -19.0428  -49.4047 H         1 UNK         0.1150 
    138 H138       -5.1245  -17.7693  -45.8718 H         1 UNK         0.1150 
    139 H139       -3.3328  -20.2602  -46.5971 H         1 UNK         0.0800 
    140 H140       -4.1751  -20.6724  -48.0721 H         1 UNK         0.0800 
    141 H141       -6.1558  -22.7310  -46.8996 H         1 UNK         0.0800 
    142 H142       -6.1679  -22.5818  -45.1653 H         1 UNK         0.0800 
    143 H143       -3.6514  -22.6025  -46.9055 H         1 UNK         0.0600 
    144 H144       -3.8715  -21.6935  -44.2791 H         1 UNK         0.3000 
    145 H145       -2.1362  -21.5341  -42.7998 H         1 UNK         0.0600 
    146 H146        0.2560  -21.8549  -42.1894 H         1 UNK         0.0600 
    147 H147       -0.5148  -23.3929  -42.5497 H         1 UNK         0.0600 
    148 H148        0.5631  -22.6577  -43.7271 H         1 UNK         0.0600 
    149 H149       -0.0222  -20.3978  -44.5093 H         1 UNK         0.3000 
    150 H150       -1.9489  -17.8884  -45.8824 H         1 UNK         0.0600 
    151 H151       -0.2136  -17.1457  -43.4732 H         1 UNK         0.0600 
    152 H152       -1.9075  -16.7115  -43.6762 H         1 UNK         0.0600 
    153 H153       -0.7127  -16.0754  -44.7858 H         1 UNK         0.0600 
    154 H154        0.8940  -18.0854  -45.4406 H         1 UNK         0.3000 
    155 H155        1.5872  -20.6687  -47.6062 H         1 UNK         0.0600 
    156 H156        1.8626  -17.8170  -48.6843 H         1 UNK         0.0600 
    157 H157        1.0387  -19.1250  -49.4923 H         1 UNK         0.0600 
    158 H158        2.7705  -19.2296  -49.2148 H         1 UNK         0.0600 
    159 H159        3.2241  -18.4819  -46.7127 H         1 UNK         0.3000 
    160 H160        3.6601  -19.5867  -43.3932 H         1 UNK         0.0600 
    161 H161        5.6146  -20.3156  -45.6405 H         1 UNK         0.0600 
    162 H162        4.9548  -21.4406  -44.4594 H         1 UNK         0.0600 
    163 H163        6.0159  -20.1453  -43.9306 H         1 UNK         0.0600 
    164 H164        5.3279  -17.9451  -45.0102 H         1 UNK         0.3000 
    165 H165        4.1901  -15.0614  -43.7649 H         1 UNK         0.0600 
    166 H166        6.1023  -14.6480  -45.2862 H         1 UNK         0.0600 
    167 H167        5.8836  -16.2139  -46.0528 H         1 UNK         0.0600 
    168 H168        6.3599  -16.1112  -44.3574 H         1 UNK         0.0600 
    169 H169        3.0334  -14.0570  -45.3697 H         1 UNK         0.3000 
    170 H170        2.4076  -14.6327  -48.7850 H         1 UNK         0.0600 
    171 H171        0.6217  -16.1221  -47.8513 H         1 UNK         0.0600 
    172 H172        0.3480  -14.9873  -46.5436 H         1 UNK         0.0600 
    173 H173       -0.0092  -14.5256  -48.2049 H         1 UNK         0.0600 
    174 H174        1.3007  -12.7782  -46.8975 H         1 UNK         0.3000 
    175 H175        3.8132  -10.2575  -47.4198 H         1 UNK         0.0600 
    176 H176        0.8863  -10.5680  -48.2761 H         1 UNK         0.0600 
    177 H177        1.7542   -9.0457  -48.0879 H         1 UNK         0.0600 
    178 H178        2.2334  -10.1802  -49.3412 H         1 UNK         0.0600 
    179 H179        1.4106  -11.0731  -45.8157 H         1 UNK         0.3000 
    180 H180        3.0222  -10.2580  -42.8049 H         1 UNK         0.0600 
    181 H181        0.7764   -8.5911  -44.0612 H         1 UNK         0.0600 
    182 H182        2.2619   -7.9539  -43.3661 H         1 UNK         0.0600 
    183 H183        1.0891   -8.7582  -42.3340 H         1 UNK         0.0600 
    184 H184        0.3058  -10.9398  -43.4297 H         1 UNK         0.3000 
    185 H185        0.7512  -14.3482  -44.0807 H         1 UNK         0.0600 
    186 H186       -0.1098  -13.3292  -41.3215 H         1 UNK         0.0600 
    187 H187       -0.5469  -14.8843  -42.0303 H         1 UNK         0.0600 
    188 H188        1.1269  -14.5451  -41.6256 H         1 UNK         0.0600 
    189 H189       -1.6205  -13.0641  -43.3204 H         1 UNK         0.3000 
    190 H190       -3.6229  -24.6173  -44.1475 H         1 UNK         0.3000 
    191 H191       -4.5184  -27.0650  -45.3390 H         1 UNK         0.0600 
    192 H192       -3.2213  -28.1056  -43.4712 H         1 UNK         0.0600 
    193 H193       -4.2362  -26.7961  -42.8885 H         1 UNK         0.0600 
    194 H194       -2.5010  -26.5470  -43.0860 H         1 UNK         0.0600 
    195 H195       -1.4095  -25.2959  -45.4289 H         1 UNK         0.3000 
    196 H196        0.0466  -27.4278  -46.7960 H         1 UNK         0.0600 
    197 H197        0.7602  -24.4777  -46.3542 H         1 UNK         0.0600 
    198 H198        1.1923  -25.8011  -45.2722 H         1 UNK         0.0600 
    199 H199        1.8490  -25.7437  -46.9009 H         1 UNK         0.0600 
    200 H200       -1.9592  -24.6980  -47.6572 H         1 UNK         0.3000 
    201 H201       -1.2510  -24.6920  -50.5068 H         1 UNK         0.0600 
    202 H202       -3.5830  -23.2319  -49.1756 H         1 UNK         0.0600 
    203 H203       -2.7035  -22.8058  -50.6381 H         1 UNK         0.0600 
    204 H204       -1.9375  -22.6151  -49.0698 H         1 UNK         0.0600 
    205 H205       -2.9764  -26.8250  -48.6769 H         1 UNK         0.3000 
    206 H206       -4.5724  -28.3347  -48.9246 H         1 UNK         0.0600 
    207 H207       -3.1463  -29.0084  -50.8750 H         1 UNK         0.0600 
    208 H208       -4.8367  -29.4017  -51.1376 H         1 UNK         0.0600 
    209 H209       -4.1294  -28.0062  -51.9414 H         1 UNK         0.0600 
    210 H210       -5.4374  -25.6658  -48.5920 H         1 UNK         0.3000 
    211 H211       -7.1586  -24.3337  -48.4969 H         1 UNK         0.0600 
    212 H212       -9.4538  -25.1846  -48.6541 H         1 UNK         0.0600 
    213 H213       -8.4486  -26.3833  -47.8589 H         1 UNK         0.0600 
    214 H214       -8.9247  -26.6039  -49.5427 H         1 UNK         0.0600 
    215 H215       -5.7983  -24.9762  -51.3529 H         1 UNK         0.3000 
    216 H216       -7.7265  -23.6753  -53.1441 H         1 UNK         0.0600 
    217 H217       -4.8386  -24.5821  -53.5971 H         1 UNK         0.0600 
    218 H218       -5.9671  -24.0616  -54.8397 H         1 UNK         0.0600 
    219 H219       -6.2767  -25.5389  -53.9396 H         1 UNK         0.0600 
    220 H220       -5.1617  -22.7261  -51.0676 H         1 UNK         0.3000 
    221 H221       -4.2259  -20.8488  -50.4128 H         1 UNK         0.0600 
    222 H222       -6.4503  -19.8551  -50.2762 H         1 UNK         0.0600 
    223 H223       -6.4276  -19.4083  -51.9799 H         1 UNK         0.0600 
    224 H224       -5.3305  -18.6352  -50.8569 H         1 UNK         0.0600 
    225 H225       -5.0442  -20.2322  -53.8297 H         1 UNK         0.3000 
    226 H226       -2.7463  -18.6658  -54.4633 H         1 UNK         0.0600 
    227 H227       -4.6409  -20.2643  -56.2698 H         1 UNK         0.0600 
    228 H228       -4.8521  -18.5860  -55.7711 H         1 UNK         0.0600 
    229 H229       -3.5144  -19.0283  -56.8203 H         1 UNK         0.0600 
    230 H230       -3.2019  -22.1249  -54.3012 H         1 UNK         0.3000 
    231 H231       -1.0087  -23.0183  -55.8721 H         1 UNK         0.0600 
    232 H232       -2.3656  -24.2893  -53.4334 H         1 UNK         0.0600 
    233 H233       -1.3046  -25.1277  -54.5569 H         1 UNK         0.0600 
    234 H234       -2.8481  -24.5072  -55.1178 H         1 UNK         0.0600 
    235 H235       -1.1185  -21.6032  -52.6405 H         1 UNK         0.3000 
    236 H236        1.7503  -22.2794  -52.1510 H         1 UNK         0.0600 
    237 H237        0.2123  -22.8174  -50.2965 H         1 UNK         0.0600 
    238 H238        1.3141  -21.5360  -49.8538 H         1 UNK         0.0600 
    239 H239       -0.3585  -21.1451  -50.2494 H         1 UNK         0.0600 
    240 H240       -0.5776  -19.5009  -52.2885 H         1 UNK         0.3000 
    241 H241        1.5026  -17.5581  -51.9582 H         1 UNK         0.0600 
    242 H242        1.3604  -18.0383  -55.9900 H         1 UNK         0.3800 
    243 H243        0.3965  -19.1005  -55.0026 H         1 UNK         0.3800 
    244 H244       -1.3729  -17.1678  -52.8751 H         1 UNK         0.0800 
    245 H245       -0.2766  -15.8613  -52.4942 H         1 UNK         0.0800 
    246 H246       -3.1808  -17.2414  -51.3335 H         1 UNK         0.0800 
    247 H247       -2.8555  -15.5923  -50.8454 H         1 UNK         0.0800 
@<TRIPOS>BOND
     1    1    2 1    
     2    1  127 1    
     3    1  128 1    
     4    1  129 1    
     5    2    3 2    
     6    2    4 am   BACKBONE|DICT|INTERRES
     7    4    5 1    
     8    4  130 1    
     9    5    6 1    
    10    5   65 1    
    11    5  131 1    
    12    6    7 1    
    13    6  132 1    
    14    6  133 1    
    15    7    8 1    
    16    8    9 1    
    17    8  134 1    
    18    8  135 1    
    19    9   10 ar   
    20    9   14 ar   
    21   10   11 ar   
    22   10  136 1    
    23   11   12 ar   
    24   11  126 1    
    25   12   13 ar   
    26   12  137 1    
    27   13   14 ar   
    28   13   15 1    
    29   14  138 1    
    30   15   16 1    
    31   15  139 1    
    32   15  140 1    
    33   16   17 1    
    34   17   18 1    
    35   17  141 1    
    36   17  142 1    
    37   18   19 1    
    38   18   67 1    
    39   18  143 1    
    40   19   20 am   BACKBONE|DICT|INTERRES
    41   19  144 1    
    42   20   21 2    
    43   20   22 1    
    44   22   23 1    
    45   22   24 1    
    46   22  145 1    
    47   23  146 1    
    48   23  147 1    
    49   23  148 1    
    50   24   25 am   BACKBONE|DICT|INTERRES
    51   24  149 1    
    52   25   26 2    
    53   25   27 1    
    54   27   28 1    
    55   27   29 1    
    56   27  150 1    
    57   28  151 1    
    58   28  152 1    
    59   28  153 1    
    60   29   30 am   BACKBONE|DICT|INTERRES
    61   29  154 1    
    62   30   31 2    
    63   30   32 1    
    64   32   33 1    
    65   32   34 1    
    66   32  155 1    
    67   33  156 1    
    68   33  157 1    
    69   33  158 1    
    70   34   35 am   BACKBONE|DICT|INTERRES
    71   34  159 1    
    72   35   36 2    
    73   35   37 1    
    74   37   38 1    
    75   37   39 1    
    76   37  160 1    
    77   38  161 1    
    78   38  162 1    
    79   38  163 1    
    80   39   40 am   BACKBONE|DICT|INTERRES
    81   39  164 1    
    82   40   41 2    
    83   40   42 1    
    84   42   43 1    
    85   42   44 1    
    86   42  165 1    
    87   43  166 1    
    88   43  167 1    
    89   43  168 1    
    90   44   45 am   BACKBONE|DICT|INTERRES
    91   44  169 1    
    92   45   46 2    
    93   45   47 1    
    94   47   48 1    
    95   47   49 1    
    96   47  170 1    
    97   48  171 1    
    98   48  172 1    
    99   48  173 1    
   100   49   50 am   BACKBONE|DICT|INTERRES
   101   49  174 1    
   102   50   51 2    
   103   50   52 1    
   104   52   53 1    
   105   52   54 1    
   106   52  175 1    
   107   53  176 1    
   108   53  177 1    
   109   53  178 1    
   110   54   55 am   BACKBONE|DICT|INTERRES
   111   54  179 1    
   112   55   56 2    
   113   55   57 1    
   114   57   58 1    
   115   57   59 1    
   116   57  180 1    
   117   58  181 1    
   118   58  182 1    
   119   58  183 1    
   120   59   60 am   BACKBONE|DICT|INTERRES
   121   59  184 1    
   122   60   61 2    
   123   60   62 1    
   124   62   63 1    
   125   62   64 1    
   126   62  185 1    
   127   63  186 1    
   128   63  187 1    
   129   63  188 1    
   130   64   65 am   BACKBONE|DICT|INTERRES
   131   64  189 1    
   132   65   66 2    
   133   67   68 2    
   134   67   69 am   BACKBONE|DICT|INTERRES
   135   69   70 1    
   136   69  190 1    
   137   70   71 1    
   138   70   72 1    
   139   70  191 1    
   140   71  192 1    
   141   71  193 1    
   142   71  194 1    
   143   72   73 2    
   144   72   74 am   BACKBONE|DICT|INTERRES
   145   74   75 1    
   146   74  195 1    
   147   75   76 1    
   148   75   77 1    
   149   75  196 1    
   150   76  197 1    
   151   76  198 1    
   152   76  199 1    
   153   77   78 2    
   154   77   79 am   BACKBONE|DICT|INTERRES
   155   79   80 1    
   156   79  200 1    
   157   80   81 1    
   158   80   82 1    
   159   80  201 1    
   160   81  202 1    
   161   81  203 1    
   162   81  204 1    
   163   82   83 2    
   164   82   84 am   BACKBONE|DICT|INTERRES
   165   84   85 1    
   166   84  205 1    
   167   85   86 1    
   168   85   87 1    
   169   85  206 1    
   170   86  207 1    
   171   86  208 1    
   172   86  209 1    
   173   87   88 2    
   174   87   89 am   BACKBONE|DICT|INTERRES
   175   89   90 1    
   176   89  210 1    
   177   90   91 1    
   178   90   92 1    
   179   90  211 1    
   180   91  212 1    
   181   91  213 1    
   182   91  214 1    
   183   92   93 2    
   184   92   94 am   BACKBONE|DICT|INTERRES
   185   94   95 1    
   186   94  215 1    
   187   95   96 1    
   188   95   97 1    
   189   95  216 1    
   190   96  217 1    
   191   96  218 1    
   192   96  219 1    
   193   97   98 2    
   194   97   99 am   BACKBONE|DICT|INTERRES
   195   99  100 1    
   196   99  220 1    
   197  100  101 1    
   198  100  102 1    
   199  100  221 1    
   200  101  222 1    
   201  101  223 1    
   202  101  224 1    
   203  102  103 2    
   204  102  104 am   BACKBONE|DICT|INTERRES
   205  104  105 1    
   206  104  225 1    
   207  105  106 1    
   208  105  107 1    
   209  105  226 1    
   210  106  227 1    
   211  106  228 1    
   212  106  229 1    
   213  107  108 2    
   214  107  109 am   BACKBONE|DICT|INTERRES
   215  109  110 1    
   216  109  230 1    
   217  110  111 1    
   218  110  112 1    
   219  110  231 1    
   220  111  232 1    
   221  111  233 1    
   222  111  234 1    
   223  112  113 2    
   224  112  114 am   BACKBONE|DICT|INTERRES
   225  114  115 1    
   226  114  235 1    
   227  115  116 1    
   228  115  117 1    
   229  115  236 1    
   230  116  237 1    
   231  116  238 1    
   232  116  239 1    
   233  117  118 2    
   234  117  119 am   BACKBONE|DICT|INTERRES
   235  119  120 1    
   236  119  240 1    
   237  120  121 1    
   238  120  124 1    
   239  120  241 1    
   240  121  122 am   BACKBONE|DICT|INTERRES
   241  121  123 2    
   242  122  242 1    
   243  122  243 1    
   244  124  125 1    
   245  124  244 1    
   246  124  245 1    
   247  125  126 1    
   248  126  246 1    
   249  126  247 1    
@<TRIPOS>SUBSTRUCTURE
     1 UNK         1 GROUP             0       ****    0 ROOT    
