@<TRIPOS>MOLECULE
3R540
247   249    1
SMALL
USER_CHARGES


@<TRIPOS>ATOM
      1 CA         -1.7359  -15.3129  -40.1889 C.3       0 UNK        -0.1800 
      2 C          -0.8921  -14.1939  -40.7834 C.2       0 UNK         0.5000 
      3 O          -0.1479  -13.5347  -40.0566 O.2       0 UNK        -0.5000 
      4 N          -1.0177  -13.9687  -42.0964 N.am      1 UNK        -0.5000 
      5 CA         -0.2488  -12.9827  -42.8591 C.3       1 UNK         0.1400 
      6 C6         -0.8973  -12.6732  -44.2344 C.3       23 UNK        -0.0398 
      7 S7         -1.2575  -14.1393  -45.2720 S.3       23 UNK        -0.2404 
      8 C8         -3.0755  -14.0643  -45.2940 C.3       23 UNK        -0.0205 
      9 C9         -3.6803  -15.1369  -46.1836 C.ar      23 UNK        -0.0193 
     10 C10        -3.9770  -14.8567  -47.5201 C.ar      23 UNK        -0.1150 
     11 C11        -4.5592  -15.8296  -48.3391 C.ar      23 UNK        -0.0193 
     12 C12        -4.8557  -17.0881  -47.8052 C.ar      23 UNK        -0.1150 
     13 C13        -4.5701  -17.3776  -46.4662 C.ar      23 UNK        -0.0193 
     14 C14        -3.9775  -16.3987  -45.6631 C.ar      23 UNK        -0.1150 
     15 C15        -4.9192  -18.7368  -45.8773 C.3       23 UNK        -0.0205 
     16 S16        -3.8688  -20.0456  -46.5693 S.3       23 UNK        -0.2404 
     17 C17        -3.9073  -21.2882  -45.2363 C.3       23 UNK        -0.0398 
     18 CA         -3.2121  -22.5936  -45.6804 C.3       11 UNK         0.1400 
     19 N          -1.7893  -22.4052  -46.0100 N.am      11 UNK        -0.5000 
     20 C          -0.9862  -23.3271  -46.5628 C.2       10 UNK         0.5000 
     21 O          -1.3683  -24.4583  -46.8627 O.2       10 UNK        -0.5000 
     22 CA          0.4790  -22.9407  -46.8158 C.3       10 UNK         0.1400 
     23 CB          0.6548  -22.4167  -48.2489 C.3       10 UNK        -0.1800 
     24 N           0.9471  -21.9320  -45.8672 N.am      10 UNK        -0.5000 
     25 C           1.4207  -22.1962  -44.6421 C.2       9 UNK         0.5000 
     26 O           1.5611  -23.3355  -44.1971 O.2       9 UNK        -0.5000 
     27 CA          1.7850  -20.9867  -43.7569 C.3       9 UNK         0.1400 
     28 CB          3.2531  -20.5879  -43.9691 C.3       9 UNK        -0.1800 
     29 N           0.9358  -19.8193  -43.9989 N.am      9 UNK        -0.5000 
     30 C          -0.3652  -19.7469  -43.6848 C.2       8 UNK         0.5000 
     31 O          -0.9767  -20.6413  -43.0996 O.2       8 UNK        -0.5000 
     32 CA         -1.1255  -18.4841  -44.1401 C.3       8 UNK         0.1400 
     33 CB         -1.1144  -17.4230  -43.0316 C.3       8 UNK        -0.1800 
     34 N          -0.6367  -17.8785  -45.3833 N.am      8 UNK        -0.5000 
     35 C          -0.4745  -18.5102  -46.5559 C.2       7 UNK         0.5000 
     36 O          -0.6475  -19.7172  -46.7075 O.2       7 UNK        -0.5000 
     37 CA          0.0025  -17.6747  -47.7543 C.3       7 UNK         0.1400 
     38 CB         -1.1822  -17.2878  -48.6466 C.3       7 UNK        -0.1800 
     39 N           0.7238  -16.4631  -47.3692 N.am      7 UNK        -0.5000 
     40 C           1.9427  -16.4379  -46.8138 C.2       6 UNK         0.5000 
     41 O           2.5726  -17.4553  -46.5197 O.2       6 UNK        -0.5000 
     42 CA          2.5444  -15.0474  -46.5159 C.3       6 UNK         0.1400 
     43 CB          4.0753  -15.0164  -46.7050 C.3       6 UNK        -0.1800 
     44 N           1.9018  -13.9410  -47.2417 N.am      6 UNK        -0.5000 
     45 C           1.8930  -13.7394  -48.5704 C.2       5 UNK         0.5000 
     46 O           2.4398  -14.4757  -49.3906 O.2       5 UNK        -0.5000 
     47 CA          1.1661  -12.4793  -49.0504 C.3       5 UNK         0.1400 
     48 CB         -0.3625  -12.6230  -48.9156 C.3       5 UNK        -0.1800 
     49 N           1.6557  -11.3274  -48.2975 N.am      5 UNK        -0.5000 
     50 C           1.5906  -10.0531  -48.6971 C.2       4 UNK         0.5000 
     51 O           1.0473   -9.6881  -49.7404 O.2       4 UNK        -0.5000 
     52 CA          2.2463   -9.0045  -47.7772 C.3       4 UNK         0.1400 
     53 CB          1.1816   -8.3216  -46.9049 C.3       4 UNK        -0.1800 
     54 N           3.2848   -9.5550  -46.9019 N.am      4 UNK        -0.5000 
     55 C           4.5030   -9.9547  -47.2847 C.2       3 UNK         0.5000 
     56 O           4.8864   -9.9334  -48.4545 O.2       3 UNK        -0.5000 
     57 CA          5.4573  -10.4700  -46.1848 C.3       3 UNK         0.1400 
     58 CB          6.1137   -9.2964  -45.4328 C.3       3 UNK        -0.1800 
     59 N           4.8751  -11.4442  -45.2460 N.am      3 UNK        -0.5000 
     60 C           3.8854  -11.2735  -44.3595 C.2       2 UNK         0.5000 
     61 O           3.2661  -10.2168  -44.2045 O.2       2 UNK        -0.5000 
     62 CA          3.5051  -12.4942  -43.5113 C.3       2 UNK         0.1400 
     63 CB          4.3257  -12.5513  -42.2127 C.3       2 UNK        -0.1800 
     64 N           2.0866  -12.3793  -43.2004 N.am      2 UNK        -0.5000 
     65 C           1.2326  -13.3885  -43.0118 C.2       1 UNK         0.5000 
     66 O           1.5627  -14.5769  -43.0016 O.2       1 UNK        -0.5000 
     67 C          -3.4616  -23.7445  -44.6822 C.2       11 UNK         0.5000 
     68 O          -4.5151  -24.3784  -44.7478 O.2       11 UNK        -0.5000 
     69 N          -2.4623  -24.0540  -43.8441 N.am      12 UNK        -0.5000 
     70 CA         -2.4242  -25.2288  -42.9692 C.3       12 UNK         0.1400 
     71 CB         -1.2155  -25.0984  -42.0300 C.3       12 UNK        -0.1800 
     72 C          -2.3739  -26.5765  -43.7263 C.2       12 UNK         0.5000 
     73 O          -2.7475  -27.6002  -43.1535 O.2       12 UNK        -0.5000 
     74 N          -1.9324  -26.5555  -44.9912 N.am      13 UNK        -0.5000 
     75 CA         -1.8426  -27.6984  -45.9000 C.3       13 UNK         0.1400 
     76 CB         -0.3880  -27.8218  -46.3904 C.3       13 UNK        -0.1800 
     77 C          -2.8390  -27.5383  -47.0667 C.2       13 UNK         0.5000 
     78 O          -2.5167  -27.8812  -48.2065 O.2       13 UNK        -0.5000 
     79 N          -4.0265  -26.9863  -46.7691 N.am      14 UNK        -0.5000 
     80 CA         -5.1327  -26.7165  -47.6977 C.3       14 UNK         0.1400 
     81 CB         -5.7487  -28.0353  -48.2104 C.3       14 UNK        -0.1800 
     82 C          -4.7265  -25.7618  -48.8391 C.2       14 UNK         0.5000 
     83 O          -5.0458  -26.0073  -50.0034 O.2       14 UNK        -0.5000 
     84 N          -3.9811  -24.7093  -48.4748 N.am      15 UNK        -0.5000 
     85 CA         -3.3698  -23.7071  -49.3558 C.3       15 UNK         0.1400 
     86 CB         -4.4471  -22.8702  -50.0749 C.3       15 UNK        -0.1800 
     87 C          -2.3315  -24.3367  -50.3028 C.2       15 UNK         0.5000 
     88 O          -2.2757  -23.9786  -51.4774 O.2       15 UNK        -0.5000 
     89 N          -1.5533  -25.2943  -49.7759 N.am      16 UNK        -0.5000 
     90 CA         -0.6198  -26.1680  -50.4965 C.3       16 UNK         0.1400 
     91 CB          0.6357  -25.3857  -50.9340 C.3       16 UNK        -0.1800 
     92 C          -1.3133  -26.9177  -51.6550 C.2       16 UNK         0.5000 
     93 O          -0.8218  -26.9121  -52.7844 O.2       16 UNK        -0.5000 
     94 N          -2.4756  -27.5085  -51.3394 N.am      17 UNK        -0.5000 
     95 CA         -3.4276  -28.1431  -52.2561 C.3       17 UNK         0.1400 
     96 CB         -2.8264  -29.4201  -52.8800 C.3       17 UNK        -0.1800 
     97 C          -3.9838  -27.1510  -53.3026 C.2       17 UNK         0.5000 
     98 O          -3.8874  -27.3943  -54.5072 O.2       17 UNK        -0.5000 
     99 N          -4.5643  -26.0499  -52.8029 N.am      18 UNK        -0.5000 
    100 CA        -5.2399  -24.9766  -53.5442 C.3       18 UNK         0.1400 
    101 CB        -6.5220  -25.5093  -54.2179 C.3       18 UNK        -0.1800 
    102 C         -4.3316  -24.1931  -54.5189 C.2       18 UNK         0.5000 
    103 O         -4.8132  -23.6911  -55.5364 O.2       18 UNK        -0.5000 
    104 N         -3.0405  -24.0823  -54.1879 N.am      19 UNK        -0.5000 
    105 CA        -2.0478  -23.3178  -54.9398 C.3       19 UNK         0.1400 
    106 CB        -0.6914  -24.0335  -54.8541 C.3       19 UNK        -0.1800 
    107 C         -1.9349  -21.8782  -54.4101 C.2       19 UNK         0.5000 
    108 O         -1.9098  -20.9348  -55.2014 O.2       19 UNK        -0.5000 
    109 N         -1.8967  -21.7235  -53.0800 N.am      20 UNK        -0.5000 
    110 CA        -1.7512  -20.4528  -52.3653 C.3       20 UNK         0.1400 
    111 CB        -1.0352  -20.7140  -51.0272 C.3       20 UNK        -0.1800 
    112 C         -3.1073  -19.7386  -52.1872 C.2       20 UNK         0.5000 
    113 O         -3.4676  -19.3476  -51.0771 O.2       20 UNK        -0.5000 
    114 N         -3.8500  -19.6013  -53.2916 N.am      21 UNK        -0.5000 
    115 CA        -5.1821  -18.9947  -53.3413 C.3       21 UNK         0.1400 
    116 CB        -5.9076  -19.5257  -54.5881 C.3       21 UNK        -0.1800 
    117 C         -5.1605  -17.4514  -53.3369 C.2       21 UNK         0.5000 
    118 O         -6.2176  -16.8393  -53.1812 O.2       21 UNK        -0.5000 
    119 N         -3.9741  -16.8565  -53.5263 N.am      22 UNK        -0.5000 
    120 CA        -3.7129  -15.4061  -53.6103 C.3       22 UNK         0.1400 
    121 C         -4.2314  -14.7294  -54.9178 C.2       22 UNK         0.5000 
    122 N         -4.5987  -15.4762  -55.9523 N.am      22 UNK        -0.7600 
    123 O         -4.2732  -13.5057  -55.0147 O.2       22 UNK        -0.5000 
    124 C124       -4.1266  -14.6122  -52.3369 C.3       23 UNK        -0.0398 
    125 S125       -3.3925  -15.2587  -50.7943 S.3       23 UNK        -0.2404 
    126 C126       -4.8905  -15.5043  -49.7883 C.3       23 UNK        -0.0205 
    127 H127       -2.2549  -14.9606  -39.2975 H         1 UNK         0.0600 
    128 H128       -1.0998  -16.1516  -39.9059 H         1 UNK         0.0600 
    129 H129       -2.4852  -15.6732  -40.8940 H         1 UNK         0.0600 
    130 H130       -1.6155  -14.5633  -42.6496 H         1 UNK         0.3000 
    131 H131       -0.2629  -12.0549  -42.2825 H         1 UNK         0.0600 
    132 H132       -0.2737  -11.9902  -44.8138 H         1 UNK         0.0800 
    133 H133       -1.8229  -12.1222  -44.0627 H         1 UNK         0.0800 
    134 H134       -3.3922  -13.0798  -45.6425 H         1 UNK         0.0800 
    135 H135       -3.4571  -14.1669  -44.2770 H         1 UNK         0.0800 
    136 H136       -3.7516  -13.8811  -47.9277 H         1 UNK         0.1150 
    137 H137       -5.3078  -17.8461  -48.4295 H         1 UNK         0.1150 
    138 H138       -3.7591  -16.6134  -44.6272 H         1 UNK         0.1150 
    139 H139       -4.8115  -18.7178  -44.7917 H         1 UNK         0.0800 
    140 H140       -5.9655  -18.9682  -46.0809 H         1 UNK         0.0800 
    141 H141       -4.9521  -21.4751  -44.9802 H         1 UNK         0.0800 
    142 H142       -3.4333  -20.8808  -44.3427 H         1 UNK         0.0800 
    143 H143       -3.7086  -22.8966  -46.5992 H         1 UNK         0.0600 
    144 H144       -1.4222  -21.4674  -45.8905 H         1 UNK         0.3000 
    145 H145        1.0818  -23.8453  -46.7109 H         1 UNK         0.0600 
    146 H146        0.1028  -21.4927  -48.4158 H         1 UNK         0.0600 
    147 H147        1.7041  -22.2243  -48.4722 H         1 UNK         0.0600 
    148 H148        0.2938  -23.1406  -48.9782 H         1 UNK         0.0600 
    149 H149        0.7735  -20.9676  -46.1286 H         1 UNK         0.3000 
    150 H150        1.6598  -21.2893  -42.7151 H         1 UNK         0.0600 
    151 H151        3.9187  -21.4319  -43.7834 H         1 UNK         0.0600 
    152 H152        3.5464  -19.7877  -43.2893 H         1 UNK         0.0600 
    153 H153        3.4331  -20.2442  -44.9888 H         1 UNK         0.0600 
    154 H154        1.3537  -19.0460  -44.4976 H         1 UNK         0.3000 
    155 H155       -2.1610  -18.7780  -44.3151 H         1 UNK         0.0600 
    156 H156       -1.4774  -17.8362  -42.0897 H         1 UNK         0.0600 
    157 H157       -1.7596  -16.5838  -43.2868 H         1 UNK         0.0600 
    158 H158       -0.1105  -17.0334  -42.8563 H         1 UNK         0.0600 
    159 H159       -0.4647  -16.8840  -45.3607 H         1 UNK         0.3000 
    160 H160        0.6767  -18.3039  -48.3390 H         1 UNK         0.0600 
    161 H161       -0.8455  -16.8381  -49.5807 H         1 UNK         0.0600 
    162 H162       -1.8327  -16.5728  -48.1461 H         1 UNK         0.0600 
    163 H163       -1.7907  -18.1566  -48.9029 H         1 UNK         0.0600 
    164 H164        0.2664  -15.5846  -47.5614 H         1 UNK         0.3000 
    165 H165        2.3432  -14.8680  -45.4618 H         1 UNK         0.0600 
    166 H166        4.3646  -15.3206  -47.7112 H         1 UNK         0.0600 
    167 H167        4.4778  -14.0199  -46.5306 H         1 UNK         0.0600 
    168 H168        4.5687  -15.6936  -46.0069 H         1 UNK         0.0600 
    169 H169        1.3559  -13.3146  -46.6682 H         1 UNK         0.3000 
    170 H170        1.4126  -12.3420  -50.1056 H         1 UNK         0.0600 
    171 H171       -0.6768  -12.6685  -47.8730 H         1 UNK         0.0600 
    172 H172       -0.8794  -11.7829  -49.3792 H         1 UNK         0.0600 
    173 H173       -0.7178  -13.5300  -49.4071 H         1 UNK         0.0600 
    174 H174        2.1880  -11.5295  -47.4643 H         1 UNK         0.3000 
    175 H175        2.7043   -8.2468  -48.4164 H         1 UNK         0.0600 
    176 H176        0.7027   -9.0299  -46.2274 H         1 UNK         0.0600 
    177 H177        1.6177   -7.5243  -46.3028 H         1 UNK         0.0600 
    178 H178        0.3996   -7.8733  -47.5193 H         1 UNK         0.0600 
    179 H179        3.0728   -9.6102  -45.9078 H         1 UNK         0.3000 
    180 H180        6.2556  -11.0068  -46.7001 H         1 UNK         0.0600 
    181 H181        5.3824   -8.6968  -44.8902 H         1 UNK         0.0600 
    182 H182        6.6291   -8.6303  -46.1259 H         1 UNK         0.0600 
    183 H183        6.8529   -9.6528  -44.7153 H         1 UNK         0.0600 
    184 H184        5.3060  -12.3571  -45.2866 H         1 UNK         0.3000 
    185 H185        3.6844  -13.3990  -44.0943 H         1 UNK         0.0600 
    186 H186        4.0515  -13.4183  -41.6115 H         1 UNK         0.0600 
    187 H187        5.3925  -12.6277  -42.4265 H         1 UNK         0.0600 
    188 H188        4.1743  -11.6598  -41.6027 H         1 UNK         0.0600 
    189 H189        1.7494  -11.4243  -43.2281 H         1 UNK         0.3000 
    190 H190       -1.6332  -23.4765  -43.8590 H         1 UNK         0.3000 
    191 H191       -3.3328  -25.2274  -42.3637 H         1 UNK         0.0600 
    192 H192       -0.2768  -25.0734  -42.5855 H         1 UNK         0.0600 
    193 H193       -1.2757  -24.1882  -41.4328 H         1 UNK         0.0600 
    194 H194       -1.1651  -25.9387  -41.3363 H         1 UNK         0.0600 
    195 H195       -1.6795  -25.6649  -45.4084 H         1 UNK         0.3000 
    196 H196       -2.1068  -28.6227  -45.3831 H         1 UNK         0.0600 
    197 H197        0.3009  -27.9300  -45.5527 H         1 UNK         0.0600 
    198 H198       -0.0811  -26.9465  -46.9644 H         1 UNK         0.0600 
    199 H199       -0.2601  -28.6968  -47.0289 H         1 UNK         0.0600 
    200 H200       -4.1829  -26.7009  -45.8115 H         1 UNK         0.3000 
    201 H201       -5.8990  -26.1949  -47.1225 H         1 UNK         0.0600 
    202 H202       -6.6433  -27.8432  -48.8040 H         1 UNK         0.0600 
    203 H203       -6.0422  -28.6809  -47.3828 H         1 UNK         0.0600 
    204 H204       -5.0539  -28.5921  -48.8400 H         1 UNK         0.0600 
    205 H205       -3.7064  -24.6602  -47.5046 H         1 UNK         0.3000 
    206 H206       -2.8084  -23.0151  -48.7309 H         1 UNK         0.0600 
    207 H207       -5.0835  -22.3554  -49.3552 H         1 UNK         0.0600 
    208 H208       -5.0879  -23.4799  -50.7081 H         1 UNK         0.0600 
    209 H209       -3.9975  -22.1063  -50.7069 H         1 UNK         0.0600 
    210 H210       -1.6705  -25.4998  -48.7913 H         1 UNK         0.3000 
    211 H211       -0.2992  -26.9345  -49.7893 H         1 UNK         0.0600 
    212 H212        1.1775  -25.0024  -50.0704 H         1 UNK         0.0600 
    213 H213        1.3273  -26.0261  -51.4825 H         1 UNK         0.0600 
    214 H214        0.3882  -24.5421  -51.5778 H         1 UNK         0.0600 
    215 H215       -2.7715  -27.4564  -50.3709 H         1 UNK         0.3000 
    216 H216       -4.2777  -28.4497  -51.6447 H         1 UNK         0.0600 
    217 H217       -3.5724  -29.9503  -53.4729 H         1 UNK         0.0600 
    218 H218       -1.9862  -29.1977  -53.5383 H         1 UNK         0.0600 
    219 H219       -2.4762  -30.1070  -52.1096 H         1 UNK         0.0600 
    220 H220       -4.6102  -25.9660  -51.7886 H         1 UNK         0.3000 
    221 H221       -5.5548  -24.2504  -52.7960 H         1 UNK         0.0600 
    222 H222       -6.2951  -26.1997  -55.0308 H         1 UNK         0.0600 
    223 H223       -7.1558  -26.0311  -53.5009 H         1 UNK         0.0600 
    224 H224       -7.1137  -24.6946  -54.6367 H         1 UNK         0.0600 
    225 H225       -2.7387  -24.4542  -53.2923 H         1 UNK         0.3000 
    226 H226       -2.3344  -23.2700  -55.9924 H         1 UNK         0.0600 
    227 H227       -0.7519  -25.0394  -55.2702 H         1 UNK         0.0600 
    228 H228        0.0734  -23.4931  -55.4132 H         1 UNK         0.0600 
    229 H229       -0.3467  -24.1227  -53.8237 H         1 UNK         0.0600 
    230 H230       -1.9864  -22.5550  -52.4984 H         1 UNK         0.3000 
    231 H231       -1.1139  -19.7886  -52.9526 H         1 UNK         0.0600 
    232 H232       -0.8094  -19.7781  -50.5154 H         1 UNK         0.0600 
    233 H233       -0.0900  -21.2354  -51.1792 H         1 UNK         0.0600 
    234 H234       -1.6441  -21.3154  -50.3527 H         1 UNK         0.0600 
    235 H235       -3.4697  -19.9529  -54.1629 H         1 UNK         0.3000 
    236 H236       -5.7440  -19.3128  -52.4605 H         1 UNK         0.0600 
    237 H237       -5.9833  -20.6134  -54.5666 H         1 UNK         0.0600 
    238 H238       -6.9230  -19.1320  -54.6495 H         1 UNK         0.0600 
    239 H239       -5.3895  -19.2444  -55.5056 H         1 UNK         0.0600 
    240 H240       -3.1687  -17.4514  -53.6484 H         1 UNK         0.3000 
    241 H241       -2.6281  -15.3253  -53.6853 H         1 UNK         0.0600 
    242 H242       -4.5594  -16.4810  -55.9003 H         1 UNK         0.3800 
    243 H243       -4.9215  -15.0295  -56.7965 H         1 UNK         0.3800 
    244 H244       -3.8078  -13.5722  -52.4218 H         1 UNK         0.0800 
    245 H245       -5.2131  -14.5799  -52.2489 H         1 UNK         0.0800 
    246 H246       -5.4984  -14.5988  -49.8132 H         1 UNK         0.0800 
    247 H247       -5.4920  -16.2969  -50.2366 H         1 UNK         0.0800 
@<TRIPOS>BOND
     1    1    2 1    
     2    1  127 1    
     3    1  128 1    
     4    1  129 1    
     5    2    3 2    
     6    2    4 am   BACKBONE|DICT|INTERRES
     7    4    5 1    
     8    4  130 1    
     9    5    6 1    
    10    5   65 1    
    11    5  131 1    
    12    6    7 1    
    13    6  132 1    
    14    6  133 1    
    15    7    8 1    
    16    8    9 1    
    17    8  134 1    
    18    8  135 1    
    19    9   10 ar   
    20    9   14 ar   
    21   10   11 ar   
    22   10  136 1    
    23   11   12 ar   
    24   11  126 1    
    25   12   13 ar   
    26   12  137 1    
    27   13   14 ar   
    28   13   15 1    
    29   14  138 1    
    30   15   16 1    
    31   15  139 1    
    32   15  140 1    
    33   16   17 1    
    34   17   18 1    
    35   17  141 1    
    36   17  142 1    
    37   18   19 1    
    38   18   67 1    
    39   18  143 1    
    40   19   20 am   BACKBONE|DICT|INTERRES
    41   19  144 1    
    42   20   21 2    
    43   20   22 1    
    44   22   23 1    
    45   22   24 1    
    46   22  145 1    
    47   23  146 1    
    48   23  147 1    
    49   23  148 1    
    50   24   25 am   BACKBONE|DICT|INTERRES
    51   24  149 1    
    52   25   26 2    
    53   25   27 1    
    54   27   28 1    
    55   27   29 1    
    56   27  150 1    
    57   28  151 1    
    58   28  152 1    
    59   28  153 1    
    60   29   30 am   BACKBONE|DICT|INTERRES
    61   29  154 1    
    62   30   31 2    
    63   30   32 1    
    64   32   33 1    
    65   32   34 1    
    66   32  155 1    
    67   33  156 1    
    68   33  157 1    
    69   33  158 1    
    70   34   35 am   BACKBONE|DICT|INTERRES
    71   34  159 1    
    72   35   36 2    
    73   35   37 1    
    74   37   38 1    
    75   37   39 1    
    76   37  160 1    
    77   38  161 1    
    78   38  162 1    
    79   38  163 1    
    80   39   40 am   BACKBONE|DICT|INTERRES
    81   39  164 1    
    82   40   41 2    
    83   40   42 1    
    84   42   43 1    
    85   42   44 1    
    86   42  165 1    
    87   43  166 1    
    88   43  167 1    
    89   43  168 1    
    90   44   45 am   BACKBONE|DICT|INTERRES
    91   44  169 1    
    92   45   46 2    
    93   45   47 1    
    94   47   48 1    
    95   47   49 1    
    96   47  170 1    
    97   48  171 1    
    98   48  172 1    
    99   48  173 1    
   100   49   50 am   BACKBONE|DICT|INTERRES
   101   49  174 1    
   102   50   51 2    
   103   50   52 1    
   104   52   53 1    
   105   52   54 1    
   106   52  175 1    
   107   53  176 1    
   108   53  177 1    
   109   53  178 1    
   110   54   55 am   BACKBONE|DICT|INTERRES
   111   54  179 1    
   112   55   56 2    
   113   55   57 1    
   114   57   58 1    
   115   57   59 1    
   116   57  180 1    
   117   58  181 1    
   118   58  182 1    
   119   58  183 1    
   120   59   60 am   BACKBONE|DICT|INTERRES
   121   59  184 1    
   122   60   61 2    
   123   60   62 1    
   124   62   63 1    
   125   62   64 1    
   126   62  185 1    
   127   63  186 1    
   128   63  187 1    
   129   63  188 1    
   130   64   65 am   BACKBONE|DICT|INTERRES
   131   64  189 1    
   132   65   66 2    
   133   67   68 2    
   134   67   69 am   BACKBONE|DICT|INTERRES
   135   69   70 1    
   136   69  190 1    
   137   70   71 1    
   138   70   72 1    
   139   70  191 1    
   140   71  192 1    
   141   71  193 1    
   142   71  194 1    
   143   72   73 2    
   144   72   74 am   BACKBONE|DICT|INTERRES
   145   74   75 1    
   146   74  195 1    
   147   75   76 1    
   148   75   77 1    
   149   75  196 1    
   150   76  197 1    
   151   76  198 1    
   152   76  199 1    
   153   77   78 2    
   154   77   79 am   BACKBONE|DICT|INTERRES
   155   79   80 1    
   156   79  200 1    
   157   80   81 1    
   158   80   82 1    
   159   80  201 1    
   160   81  202 1    
   161   81  203 1    
   162   81  204 1    
   163   82   83 2    
   164   82   84 am   BACKBONE|DICT|INTERRES
   165   84   85 1    
   166   84  205 1    
   167   85   86 1    
   168   85   87 1    
   169   85  206 1    
   170   86  207 1    
   171   86  208 1    
   172   86  209 1    
   173   87   88 2    
   174   87   89 am   BACKBONE|DICT|INTERRES
   175   89   90 1    
   176   89  210 1    
   177   90   91 1    
   178   90   92 1    
   179   90  211 1    
   180   91  212 1    
   181   91  213 1    
   182   91  214 1    
   183   92   93 2    
   184   92   94 am   BACKBONE|DICT|INTERRES
   185   94   95 1    
   186   94  215 1    
   187   95   96 1    
   188   95   97 1    
   189   95  216 1    
   190   96  217 1    
   191   96  218 1    
   192   96  219 1    
   193   97   98 2    
   194   97   99 am   BACKBONE|DICT|INTERRES
   195   99  100 1    
   196   99  220 1    
   197  100  101 1    
   198  100  102 1    
   199  100  221 1    
   200  101  222 1    
   201  101  223 1    
   202  101  224 1    
   203  102  103 2    
   204  102  104 am   BACKBONE|DICT|INTERRES
   205  104  105 1    
   206  104  225 1    
   207  105  106 1    
   208  105  107 1    
   209  105  226 1    
   210  106  227 1    
   211  106  228 1    
   212  106  229 1    
   213  107  108 2    
   214  107  109 am   BACKBONE|DICT|INTERRES
   215  109  110 1    
   216  109  230 1    
   217  110  111 1    
   218  110  112 1    
   219  110  231 1    
   220  111  232 1    
   221  111  233 1    
   222  111  234 1    
   223  112  113 2    
   224  112  114 am   BACKBONE|DICT|INTERRES
   225  114  115 1    
   226  114  235 1    
   227  115  116 1    
   228  115  117 1    
   229  115  236 1    
   230  116  237 1    
   231  116  238 1    
   232  116  239 1    
   233  117  118 2    
   234  117  119 am   BACKBONE|DICT|INTERRES
   235  119  120 1    
   236  119  240 1    
   237  120  121 1    
   238  120  124 1    
   239  120  241 1    
   240  121  122 am   BACKBONE|DICT|INTERRES
   241  121  123 2    
   242  122  242 1    
   243  122  243 1    
   244  124  125 1    
   245  124  244 1    
   246  124  245 1    
   247  125  126 1    
   248  126  246 1    
   249  126  247 1    
@<TRIPOS>SUBSTRUCTURE
     1 UNK         1 GROUP             0       ****    0 ROOT    
