@<TRIPOS>MOLECULE
3R540
247   249    1
SMALL
USER_CHARGES


@<TRIPOS>ATOM
      1 CA          6.3355  -13.2744  -48.2162 C.3       0 UNK        -0.1800 
      2 C           4.9296  -13.6347  -47.7616 C.2       0 UNK         0.5000 
      3 O           4.1068  -12.7437  -47.5554 O.2       0 UNK        -0.5000 
      4 N           4.6427  -14.9358  -47.6269 N.am      1 UNK        -0.5000 
      5 CA          3.3659  -15.5119  -47.1729 C.3       1 UNK         0.1400 
      6 C6          3.4742  -17.0453  -46.9780 C.3       23 UNK        -0.0398 
      7 S7          4.0600  -17.9301  -48.4687 S.3       23 UNK        -0.2404 
      8 C8          2.7518  -19.1630  -48.7426 C.3       23 UNK        -0.0205 
      9 C9          1.4319  -18.5478  -49.1799 C.ar      23 UNK        -0.0193 
     10 C10         1.2423  -18.1564  -50.5083 C.ar      23 UNK        -0.1150 
     11 C11         0.0051  -17.6588  -50.9360 C.ar      23 UNK        -0.0193 
     12 C12        -1.0362  -17.5406  -50.0094 C.ar      23 UNK        -0.1150 
     13 C13        -0.8525  -17.9071  -48.6731 C.ar      23 UNK        -0.0193 
     14 C14         0.3852  -18.4087  -48.2651 C.ar      23 UNK        -0.1150 
     15 C15        -1.9872  -17.7448  -47.6717 C.3       23 UNK        -0.0205 
     16 S16        -2.8805  -19.3083  -47.3903 S.3       23 UNK        -0.2404 
     17 C17        -1.8697  -20.1017  -46.0972 C.3       23 UNK        -0.0398 
     18 CA         -0.9480  -21.2199  -46.6431 C.3       11 UNK         0.1400 
     19 N           0.2758  -21.3344  -45.8400 N.am      11 UNK        -0.5000 
     20 C           1.3193  -22.1336  -46.1050 C.2       10 UNK         0.5000 
     21 O           1.3709  -22.8944  -47.0701 O.2       10 UNK        -0.5000 
     22 CA          2.4727  -22.1177  -45.0891 C.3       10 UNK         0.1400 
     23 CB          3.3731  -20.8874  -45.2826 C.3       10 UNK        -0.1800 
     24 N           1.9535  -22.1386  -43.7234 N.am      10 UNK        -0.5000 
     25 C           1.5333  -23.2480  -43.0988 C.2       9 UNK         0.5000 
     26 O           1.6249  -24.3787  -43.5771 O.2       9 UNK        -0.5000 
     27 CA          0.8749  -23.0619  -41.7179 C.3       9 UNK         0.1400 
     28 CB          1.9307  -23.1228  -40.6040 C.3       9 UNK        -0.1800 
     29 N           0.1243  -21.8098  -41.6015 N.am      9 UNK        -0.5000 
     30 C          -0.9761  -21.5151  -42.3075 C.2       8 UNK         0.5000 
     31 O          -1.4906  -22.2785  -43.1217 O.2       8 UNK        -0.5000 
     32 CA         -1.5739  -20.1121  -42.1142 C.3       8 UNK         0.1400 
     33 CB         -2.5892  -20.1106  -40.9626 C.3       8 UNK        -0.1800 
     34 N          -0.5747  -19.0708  -41.8764 N.am      8 UNK        -0.5000 
     35 C           0.4239  -18.7280  -42.6993 C.2       7 UNK         0.5000 
     36 O           0.6712  -19.3289  -43.7480 O.2       7 UNK        -0.5000 
     37 CA          1.2684  -17.5058  -42.2711 C.3       7 UNK         0.1400 
     38 CB          2.4319  -17.2354  -43.2418 C.3       7 UNK        -0.1800 
     39 N           0.4558  -16.2906  -42.1581 N.am      7 UNK        -0.5000 
     40 C          -0.4578  -16.0329  -41.2075 C.2       6 UNK         0.5000 
     41 O          -0.6315  -16.7590  -40.2270 O.2       6 UNK        -0.5000 
     42 CA         -1.3530  -14.7857  -41.3784 C.3       6 UNK         0.1400 
     43 CB         -0.9124  -13.6732  -40.4148 C.3       6 UNK        -0.1800 
     44 N          -1.3681  -14.2480  -42.7389 N.am      6 UNK        -0.5000 
     45 C          -1.8208  -14.8759  -43.8337 C.2       5 UNK         0.5000 
     46 O          -2.4263  -15.9474  -43.8030 O.2       5 UNK        -0.5000 
     47 CA         -1.5080  -14.2183  -45.1953 C.3       5 UNK         0.1400 
     48 CB         -2.7843  -13.6502  -45.8335 C.3       5 UNK        -0.1800 
     49 N          -0.4898  -13.1608  -45.1525 N.am      5 UNK        -0.5000 
     50 C           0.7870  -13.3075  -44.7730 C.2       4 UNK         0.5000 
     51 O           1.2498  -14.3615  -44.3334 O.2       4 UNK        -0.5000 
     52 CA          1.6798  -12.0597  -44.9073 C.3       4 UNK         0.1400 
     53 CB          3.0778  -12.2636  -44.2960 C.3       4 UNK        -0.1800 
     54 N           1.8294  -11.6807  -46.3095 N.am      4 UNK        -0.5000 
     55 C           0.9438  -10.9830  -47.0326 C.2       3 UNK         0.5000 
     56 O          -0.1142  -10.5461  -46.5772 O.2       3 UNK        -0.5000 
     57 CA          1.2818  -10.7797  -48.5173 C.3       3 UNK         0.1400 
     58 CB          2.4275   -9.7692  -48.6883 C.3       3 UNK        -0.1800 
     59 N           1.6631  -12.0549  -49.1206 N.am      3 UNK        -0.5000 
     60 C           0.8323  -12.8543  -49.8040 C.2       2 UNK         0.5000 
     61 O          -0.3246  -12.5507  -50.0970 O.2       2 UNK        -0.5000 
     62 CA          1.3793  -14.2329  -50.2271 C.3       2 UNK         0.1400 
     63 CB          1.9810  -14.1674  -51.6389 C.3       2 UNK        -0.1800 
     64 N           2.3883  -14.7565  -49.3075 N.am      2 UNK        -0.5000 
     65 C           2.1458  -15.1316  -48.0436 C.2       1 UNK         0.5000 
     66 O           1.0207  -15.1508  -47.5475 O.2       1 UNK        -0.5000 
     67 C          -1.7043  -22.5587  -46.7919 C.2       11 UNK         0.5000 
     68 O          -2.2444  -22.8406  -47.8635 O.2       11 UNK        -0.5000 
     69 N          -1.6928  -23.3801  -45.7328 N.am      12 UNK        -0.5000 
     70 CA         -2.2366  -24.7387  -45.6944 C.3       12 UNK         0.1400 
     71 CB         -2.0887  -25.3039  -44.2742 C.3       12 UNK        -0.1800 
     72 C          -1.5976  -25.6950  -46.7189 C.2       12 UNK         0.5000 
     73 O          -2.2848  -26.5870  -47.2153 O.2       12 UNK        -0.5000 
     74 N          -0.3109  -25.4873  -47.0236 N.am      13 UNK        -0.5000 
     75 CA          0.4364  -26.2616  -48.0100 C.3       13 UNK         0.1400 
     76 CB          1.8839  -26.4363  -47.5227 C.3       13 UNK        -0.1800 
     77 C           0.4045  -25.5854  -49.3897 C.2       13 UNK         0.5000 
     78 O           0.1462  -26.2561  -50.3891 O.2       13 UNK        -0.5000 
     79 N           0.6836  -24.2756  -49.4216 N.am      14 UNK        -0.5000 
     80 CA          0.8783  -23.4982  -50.6443 C.3       14 UNK         0.1400 
     81 CB          1.5629  -22.1704  -50.2879 C.3       14 UNK        -0.1800 
     82 C          -0.4152  -23.2261  -51.4264 C.2       14 UNK         0.5000 
     83 O          -0.3811  -23.2328  -52.6586 O.2       14 UNK        -0.5000 
     84 N          -1.5111  -22.9607  -50.7050 N.am      15 UNK        -0.5000 
     85 CA         -2.7882  -22.5166  -51.2637 C.3       15 UNK         0.1400 
     86 CB         -3.0109  -21.0415  -50.8791 C.3       15 UNK        -0.1800 
     87 C          -3.9674  -23.3752  -50.7946 C.2       15 UNK         0.5000 
     88 O          -5.1066  -22.9573  -50.9877 O.2       15 UNK        -0.5000 
     89 N          -3.6992  -24.5246  -50.1569 N.am      16 UNK        -0.5000 
     90 CA         -4.6914  -25.4384  -49.5737 C.3       16 UNK         0.1400 
     91 CB         -5.4765  -26.1615  -50.6883 C.3       16 UNK        -0.1800 
     92 C          -5.6119  -24.7434  -48.5426 C.2       16 UNK         0.5000 
     93 O          -6.8112  -25.0214  -48.4984 O.2       16 UNK        -0.5000 
     94 N          -5.0181  -23.8342  -47.7541 N.am      17 UNK        -0.5000 
     95 CA         -5.6531  -22.9342  -46.7882 C.3       17 UNK         0.1400 
     96 CB         -6.4049  -23.7075  -45.6838 C.3       17 UNK        -0.1800 
     97 C          -6.5042  -21.8587  -47.4918 C.2       17 UNK         0.5000 
     98 O          -7.6972  -21.7213  -47.2162 O.2       17 UNK        -0.5000 
     99 N          -5.8383  -21.1039  -48.3773 N.am      18 UNK        -0.5000 
    100 CA        -6.3316  -19.9282  -49.1013 C.3       18 UNK         0.1400 
    101 CB        -6.6583  -18.7797  -48.1223 C.3       18 UNK        -0.1800 
    102 C         -7.4866  -20.2313  -50.0777 C.2       18 UNK         0.5000 
    103 O         -8.4623  -19.4787  -50.1370 O.2       18 UNK        -0.5000 
    104 N         -7.3474  -21.3041  -50.8670 N.am      19 UNK        -0.5000 
    105 CA        -8.2473  -21.6661  -51.9631 C.3       19 UNK         0.1400 
    106 CB        -8.0908  -23.1654  -52.2746 C.3       19 UNK        -0.1800 
    107 C         -7.9939  -20.7706  -53.1952 C.2       19 UNK         0.5000 
    108 O         -7.4545  -21.2277  -54.2039 O.2       19 UNK        -0.5000 
    109 N         -8.3659  -19.4913  -53.0629 N.am      20 UNK        -0.5000 
    110 CA        -8.2707  -18.3831  -54.0203 C.3       20 UNK         0.1400 
    111 CB        -8.9910  -18.7013  -55.3449 C.3       20 UNK        -0.1800 
    112 C         -6.8414  -17.8623  -54.2684 C.2       20 UNK         0.5000 
    113 O         -6.6448  -16.6463  -54.2519 O.2       20 UNK        -0.5000 
    114 N         -5.8717  -18.7572  -54.4850 N.am      21 UNK        -0.5000 
    115 CA        -4.4744  -18.4279  -54.7624 C.3       21 UNK         0.1400 
    116 CB        -4.3210  -17.9759  -56.2276 C.3       21 UNK        -0.1800 
    117 C         -3.5767  -19.6381  -54.4724 C.2       21 UNK         0.5000 
    118 O         -4.0630  -20.7708  -54.4365 O.2       21 UNK        -0.5000 
    119 N         -2.2793  -19.3724  -54.2853 N.am      22 UNK        -0.5000 
    120 CA        -1.2330  -20.3923  -54.1360 C.3       22 UNK         0.1400 
    121 C         -0.7771  -21.0140  -55.4824 C.2       22 UNK         0.5000 
    122 N         -0.2698  -22.2390  -55.4439 N.am      22 UNK        -0.7600 
    123 O         -0.8553  -20.4000  -56.5445 O.2       22 UNK        -0.5000 
    124 C124       -0.0351  -19.9144  -53.2710 C.3       23 UNK        -0.0398 
    125 S125        0.6032  -18.2457  -53.6513 S.3       23 UNK        -0.2404 
    126 C126       -0.2353  -17.2277  -52.3836 C.3       23 UNK        -0.0205 
    127 H127        6.8229  -12.6530  -47.4651 H         1 UNK         0.0600 
    128 H128        6.2948  -12.7137  -49.1499 H         1 UNK         0.0600 
    129 H129        6.9499  -14.1607  -48.3767 H         1 UNK         0.0600 
    130 H130        5.3565  -15.6171  -47.8451 H         1 UNK         0.3000 
    131 H131        3.1704  -15.0801  -46.1897 H         1 UNK         0.0600 
    132 H132        4.1802  -17.2562  -46.1738 H         1 UNK         0.0800 
    133 H133        2.5241  -17.4585  -46.6379 H         1 UNK         0.0800 
    134 H134        2.6118  -19.7583  -47.8414 H         1 UNK         0.0800 
    135 H135        3.0947  -19.8563  -49.5111 H         1 UNK         0.0800 
    136 H136        2.0585  -18.2534  -51.2097 H         1 UNK         0.1150 
    137 H137       -1.9942  -17.1533  -50.3264 H         1 UNK         0.1150 
    138 H138        0.5301  -18.6973  -47.2342 H         1 UNK         0.1150 
    139 H139       -1.6055  -17.3453  -46.7310 H         1 UNK         0.0800 
    140 H140       -2.6995  -17.0044  -48.0385 H         1 UNK         0.0800 
    141 H141       -2.5349  -20.4818  -45.3201 H         1 UNK         0.0800 
    142 H142       -1.2794  -19.3254  -45.6097 H         1 UNK         0.0800 
    143 H143       -0.6200  -20.9421  -47.6463 H         1 UNK         0.0600 
    144 H144        0.3407  -20.7244  -45.0299 H         1 UNK         0.3000 
    145 H145        3.0829  -23.0087  -45.2529 H         1 UNK         0.0600 
    146 H146        4.1497  -20.8438  -44.5191 H         1 UNK         0.0600 
    147 H147        3.8767  -20.9264  -46.2487 H         1 UNK         0.0600 
    148 H148        2.8110  -19.9540  -45.2399 H         1 UNK         0.0600 
    149 H149        1.7906  -21.2412  -43.2875 H         1 UNK         0.3000 
    150 H150        0.1753  -23.8879  -41.5727 H         1 UNK         0.0600 
    151 H151        2.4931  -24.0563  -40.6501 H         1 UNK         0.0600 
    152 H152        1.4677  -23.0724  -39.6183 H         1 UNK         0.0600 
    153 H153        2.6468  -22.3038  -40.6820 H         1 UNK         0.0600 
    154 H154        0.4810  -21.1189  -40.9578 H         1 UNK         0.3000 
    155 H155       -2.1029  -19.8500  -43.0316 H         1 UNK         0.0600 
    156 H156       -2.1129  -20.3279  -40.0057 H         1 UNK         0.0600 
    157 H157       -3.3642  -20.8614  -41.1232 H         1 UNK         0.0600 
    158 H158       -3.0865  -19.1441  -40.8777 H         1 UNK         0.0600 
    159 H159       -0.7145  -18.4851  -41.0580 H         1 UNK         0.3000 
    160 H160        1.6945  -17.7305  -41.2915 H         1 UNK         0.0600 
    161 H161        2.0687  -17.0050  -44.2437 H         1 UNK         0.0600 
    162 H162        3.0898  -18.1018  -43.3199 H         1 UNK         0.0600 
    163 H163        3.0391  -16.3943  -42.9068 H         1 UNK         0.0600 
    164 H164        0.5526  -15.6299  -42.9231 H         1 UNK         0.3000 
    165 H165       -2.3729  -15.0804  -41.1237 H         1 UNK         0.0600 
    166 H166       -1.5824  -12.8149  -40.4690 H         1 UNK         0.0600 
    167 H167       -0.9201  -14.0241  -39.3819 H         1 UNK         0.0600 
    168 H168        0.0980  -13.3268  -40.6362 H         1 UNK         0.0600 
    169 H169       -0.8881  -13.3713  -42.8762 H         1 UNK         0.3000 
    170 H170       -1.1262  -15.0080  -45.8449 H         1 UNK         0.0600 
    171 H171       -3.5545  -14.4178  -45.9211 H         1 UNK         0.0600 
    172 H172       -3.1987  -12.8327  -45.2424 H         1 UNK         0.0600 
    173 H173       -2.5878  -13.2742  -46.8380 H         1 UNK         0.0600 
    174 H174       -0.7600  -12.2590  -45.5287 H         1 UNK         0.3000 
    175 H175        1.1954  -11.2454  -44.3646 H         1 UNK         0.0600 
    176 H176        3.6238  -13.0670  -44.7912 H         1 UNK         0.0600 
    177 H177        3.6773  -11.3566  -44.3738 H         1 UNK         0.0600 
    178 H178        3.0081  -12.5178  -43.2376 H         1 UNK         0.0600 
    179 H179        2.6670  -12.0296  -46.7718 H         1 UNK         0.3000 
    180 H180        0.3985  -10.3727  -49.0140 H         1 UNK         0.0600 
    181 H181        3.3505  -10.1151  -48.2215 H         1 UNK         0.0600 
    182 H182        2.1708   -8.8095  -48.2380 H         1 UNK         0.0600 
    183 H183        2.6354   -9.5883  -49.7429 H         1 UNK         0.0600 
    184 H184        2.5818  -12.4064  -48.8761 H         1 UNK         0.3000 
    185 H185        0.5392  -14.9291  -50.2391 H         1 UNK         0.0600 
    186 H186        1.2431  -13.8167  -52.3615 H         1 UNK         0.0600 
    187 H187        2.8325  -13.4873  -51.6823 H         1 UNK         0.0600 
    188 H188        2.3187  -15.1500  -51.9695 H         1 UNK         0.0600 
    189 H189        3.3408  -14.7855  -49.6392 H         1 UNK         0.3000 
    190 H190       -1.3103  -23.0322  -44.8574 H         1 UNK         0.3000 
    191 H191       -3.3012  -24.6819  -45.9164 H         1 UNK         0.0600 
    192 H192       -1.0458  -25.3222  -43.9557 H         1 UNK         0.0600 
    193 H193       -2.4698  -26.3243  -44.2153 H         1 UNK         0.0600 
    194 H194       -2.6495  -24.7089  -43.5534 H         1 UNK         0.0600 
    195 H195        0.1706  -24.7029  -46.6033 H         1 UNK         0.3000 
    196 H196       -0.0005  -27.2574  -48.1128 H         1 UNK         0.0600 
    197 H197        2.4698  -27.0138  -48.2387 H         1 UNK         0.0600 
    198 H198        1.9155  -26.9687  -46.5720 H         1 UNK         0.0600 
    199 H199        2.3860  -25.4781  -47.3837 H         1 UNK         0.0600 
    200 H200        0.9001  -23.7981  -48.5485 H         1 UNK         0.3000 
    201 H201        1.5489  -24.0592  -51.2987 H         1 UNK         0.0600 
    202 H202        2.5147  -22.3415  -49.7848 H         1 UNK         0.0600 
    203 H203        0.9413  -21.5626  -49.6290 H         1 UNK         0.0600 
    204 H204        1.7688  -21.5801  -51.1815 H         1 UNK         0.0600 
    205 H205       -1.4623  -22.9865  -49.6911 H         1 UNK         0.3000 
    206 H206       -2.7897  -22.6077  -52.3495 H         1 UNK         0.0600 
    207 H207       -2.1684  -20.4145  -51.1575 H         1 UNK         0.0600 
    208 H208       -3.8914  -20.6325  -51.3758 H         1 UNK         0.0600 
    209 H209       -3.1532  -20.9320  -49.8053 H         1 UNK         0.0600 
    210 H210       -2.7304  -24.7815  -50.0346 H         1 UNK         0.3000 
    211 H211       -4.1336  -26.1965  -49.0248 H         1 UNK         0.0600 
    212 H212       -6.1086  -25.4738  -51.2508 H         1 UNK         0.0600 
    213 H213       -6.1239  -26.9344  -50.2726 H         1 UNK         0.0600 
    214 H214       -4.8022  -26.6490  -51.3923 H         1 UNK         0.0600 
    215 H215       -4.0312  -23.6571  -47.9169 H         1 UNK         0.3000 
    216 H216       -4.8383  -22.3996  -46.2973 H         1 UNK         0.0600 
    217 H217       -6.7453  -23.0276  -44.9021 H         1 UNK         0.0600 
    218 H218       -5.7604  -24.4483  -45.2110 H         1 UNK         0.0600 
    219 H219       -7.2854  -24.2232  -46.0668 H         1 UNK         0.0600 
    220 H220       -4.8698  -21.3325  -48.5455 H         1 UNK         0.3000 
    221 H221       -5.5010  -19.5898  -49.7218 H         1 UNK         0.0600 
    222 H222       -7.5217  -19.0116  -47.4981 H         1 UNK         0.0600 
    223 H223       -5.8171  -18.5678  -47.4631 H         1 UNK         0.0600 
    224 H224       -6.8837  -17.8591  -48.6617 H         1 UNK         0.0600 
    225 H225       -6.5056  -21.8746  -50.7888 H         1 UNK         0.3000 
    226 H226       -9.2782  -21.5061  -51.6405 H         1 UNK         0.0600 
    227 H227       -8.2604  -23.7732  -51.3855 H         1 UNK         0.0600 
    228 H228       -8.8106  -23.4819  -53.0301 H         1 UNK         0.0600 
    229 H229       -7.0959  -23.4004  -52.6539 H         1 UNK         0.0600 
    230 H230       -8.7148  -19.2286  -52.1461 H         1 UNK         0.3000 
    231 H231       -8.8170  -17.5622  -53.5529 H         1 UNK         0.0600 
    232 H232      -10.0210  -19.0120  -55.1698 H         1 UNK         0.0600 
    233 H233       -8.4912  -19.4923  -55.9045 H         1 UNK         0.0600 
    234 H234       -9.0219  -17.8216  -55.9888 H         1 UNK         0.0600 
    235 H235       -6.0928  -19.7501  -54.4597 H         1 UNK         0.3000 
    236 H236       -4.1647  -17.6176  -54.0987 H         1 UNK         0.0600 
    237 H237       -3.2809  -17.7482  -56.4642 H         1 UNK         0.0600 
    238 H238       -4.6524  -18.7507  -56.9200 H         1 UNK         0.0600 
    239 H239       -4.9004  -17.0754  -56.4313 H         1 UNK         0.0600 
    240 H240       -1.9445  -18.4265  -54.3916 H         1 UNK         0.3000 
    241 H241       -1.6882  -21.2122  -53.5886 H         1 UNK         0.0600 
    242 H242        0.0459  -22.6767  -56.2951 H         1 UNK         0.3800 
    243 H243       -0.2184  -22.7463  -54.5644 H         1 UNK         0.3800 
    244 H244        0.7988  -20.6139  -53.3492 H         1 UNK         0.0800 
    245 H245       -0.3132  -19.9534  -52.2211 H         1 UNK         0.0800 
    246 H246        0.0931  -16.1953  -52.4975 H         1 UNK         0.0800 
    247 H247       -1.3046  -17.2294  -52.5978 H         1 UNK         0.0800 
@<TRIPOS>BOND
     1    1    2 1    
     2    1  127 1    
     3    1  128 1    
     4    1  129 1    
     5    2    3 2    
     6    2    4 am   BACKBONE|DICT|INTERRES
     7    4    5 1    
     8    4  130 1    
     9    5    6 1    
    10    5   65 1    
    11    5  131 1    
    12    6    7 1    
    13    6  132 1    
    14    6  133 1    
    15    7    8 1    
    16    8    9 1    
    17    8  134 1    
    18    8  135 1    
    19    9   10 ar   
    20    9   14 ar   
    21   10   11 ar   
    22   10  136 1    
    23   11   12 ar   
    24   11  126 1    
    25   12   13 ar   
    26   12  137 1    
    27   13   14 ar   
    28   13   15 1    
    29   14  138 1    
    30   15   16 1    
    31   15  139 1    
    32   15  140 1    
    33   16   17 1    
    34   17   18 1    
    35   17  141 1    
    36   17  142 1    
    37   18   19 1    
    38   18   67 1    
    39   18  143 1    
    40   19   20 am   BACKBONE|DICT|INTERRES
    41   19  144 1    
    42   20   21 2    
    43   20   22 1    
    44   22   23 1    
    45   22   24 1    
    46   22  145 1    
    47   23  146 1    
    48   23  147 1    
    49   23  148 1    
    50   24   25 am   BACKBONE|DICT|INTERRES
    51   24  149 1    
    52   25   26 2    
    53   25   27 1    
    54   27   28 1    
    55   27   29 1    
    56   27  150 1    
    57   28  151 1    
    58   28  152 1    
    59   28  153 1    
    60   29   30 am   BACKBONE|DICT|INTERRES
    61   29  154 1    
    62   30   31 2    
    63   30   32 1    
    64   32   33 1    
    65   32   34 1    
    66   32  155 1    
    67   33  156 1    
    68   33  157 1    
    69   33  158 1    
    70   34   35 am   BACKBONE|DICT|INTERRES
    71   34  159 1    
    72   35   36 2    
    73   35   37 1    
    74   37   38 1    
    75   37   39 1    
    76   37  160 1    
    77   38  161 1    
    78   38  162 1    
    79   38  163 1    
    80   39   40 am   BACKBONE|DICT|INTERRES
    81   39  164 1    
    82   40   41 2    
    83   40   42 1    
    84   42   43 1    
    85   42   44 1    
    86   42  165 1    
    87   43  166 1    
    88   43  167 1    
    89   43  168 1    
    90   44   45 am   BACKBONE|DICT|INTERRES
    91   44  169 1    
    92   45   46 2    
    93   45   47 1    
    94   47   48 1    
    95   47   49 1    
    96   47  170 1    
    97   48  171 1    
    98   48  172 1    
    99   48  173 1    
   100   49   50 am   BACKBONE|DICT|INTERRES
   101   49  174 1    
   102   50   51 2    
   103   50   52 1    
   104   52   53 1    
   105   52   54 1    
   106   52  175 1    
   107   53  176 1    
   108   53  177 1    
   109   53  178 1    
   110   54   55 am   BACKBONE|DICT|INTERRES
   111   54  179 1    
   112   55   56 2    
   113   55   57 1    
   114   57   58 1    
   115   57   59 1    
   116   57  180 1    
   117   58  181 1    
   118   58  182 1    
   119   58  183 1    
   120   59   60 am   BACKBONE|DICT|INTERRES
   121   59  184 1    
   122   60   61 2    
   123   60   62 1    
   124   62   63 1    
   125   62   64 1    
   126   62  185 1    
   127   63  186 1    
   128   63  187 1    
   129   63  188 1    
   130   64   65 am   BACKBONE|DICT|INTERRES
   131   64  189 1    
   132   65   66 2    
   133   67   68 2    
   134   67   69 am   BACKBONE|DICT|INTERRES
   135   69   70 1    
   136   69  190 1    
   137   70   71 1    
   138   70   72 1    
   139   70  191 1    
   140   71  192 1    
   141   71  193 1    
   142   71  194 1    
   143   72   73 2    
   144   72   74 am   BACKBONE|DICT|INTERRES
   145   74   75 1    
   146   74  195 1    
   147   75   76 1    
   148   75   77 1    
   149   75  196 1    
   150   76  197 1    
   151   76  198 1    
   152   76  199 1    
   153   77   78 2    
   154   77   79 am   BACKBONE|DICT|INTERRES
   155   79   80 1    
   156   79  200 1    
   157   80   81 1    
   158   80   82 1    
   159   80  201 1    
   160   81  202 1    
   161   81  203 1    
   162   81  204 1    
   163   82   83 2    
   164   82   84 am   BACKBONE|DICT|INTERRES
   165   84   85 1    
   166   84  205 1    
   167   85   86 1    
   168   85   87 1    
   169   85  206 1    
   170   86  207 1    
   171   86  208 1    
   172   86  209 1    
   173   87   88 2    
   174   87   89 am   BACKBONE|DICT|INTERRES
   175   89   90 1    
   176   89  210 1    
   177   90   91 1    
   178   90   92 1    
   179   90  211 1    
   180   91  212 1    
   181   91  213 1    
   182   91  214 1    
   183   92   93 2    
   184   92   94 am   BACKBONE|DICT|INTERRES
   185   94   95 1    
   186   94  215 1    
   187   95   96 1    
   188   95   97 1    
   189   95  216 1    
   190   96  217 1    
   191   96  218 1    
   192   96  219 1    
   193   97   98 2    
   194   97   99 am   BACKBONE|DICT|INTERRES
   195   99  100 1    
   196   99  220 1    
   197  100  101 1    
   198  100  102 1    
   199  100  221 1    
   200  101  222 1    
   201  101  223 1    
   202  101  224 1    
   203  102  103 2    
   204  102  104 am   BACKBONE|DICT|INTERRES
   205  104  105 1    
   206  104  225 1    
   207  105  106 1    
   208  105  107 1    
   209  105  226 1    
   210  106  227 1    
   211  106  228 1    
   212  106  229 1    
   213  107  108 2    
   214  107  109 am   BACKBONE|DICT|INTERRES
   215  109  110 1    
   216  109  230 1    
   217  110  111 1    
   218  110  112 1    
   219  110  231 1    
   220  111  232 1    
   221  111  233 1    
   222  111  234 1    
   223  112  113 2    
   224  112  114 am   BACKBONE|DICT|INTERRES
   225  114  115 1    
   226  114  235 1    
   227  115  116 1    
   228  115  117 1    
   229  115  236 1    
   230  116  237 1    
   231  116  238 1    
   232  116  239 1    
   233  117  118 2    
   234  117  119 am   BACKBONE|DICT|INTERRES
   235  119  120 1    
   236  119  240 1    
   237  120  121 1    
   238  120  124 1    
   239  120  241 1    
   240  121  122 am   BACKBONE|DICT|INTERRES
   241  121  123 2    
   242  122  242 1    
   243  122  243 1    
   244  124  125 1    
   245  124  244 1    
   246  124  245 1    
   247  125  126 1    
   248  126  246 1    
   249  126  247 1    
@<TRIPOS>SUBSTRUCTURE
     1 UNK         1 GROUP             0       ****    0 ROOT    
