@<TRIPOS>MOLECULE
3R540
247   249    1
SMALL
USER_CHARGES


@<TRIPOS>ATOM
      1 CA          6.6024  -12.7999  -50.4331 C.3       0 UNK        -0.1800 
      2 C           5.5673  -12.3658  -49.4049 C.2       0 UNK         0.5000 
      3 O           5.2963  -11.1715  -49.2810 O.2       0 UNK        -0.5000 
      4 N           4.9969  -13.3330  -48.6722 N.am      1 UNK        -0.5000 
      5 CA          3.9728  -13.1566  -47.6310 C.3       1 UNK         0.1400 
      6 C6          2.6089  -12.6350  -48.1629 C.3       23 UNK        -0.0398 
      7 S7          1.9049  -13.7009  -49.4629 S.3       23 UNK        -0.2404 
      8 C8          0.8250  -14.7754  -48.4719 C.3       23 UNK        -0.0205 
      9 C9          0.1766  -15.8380  -49.3418 C.ar      23 UNK        -0.0193 
     10 C10        -1.1345  -15.6772  -49.7998 C.ar      23 UNK        -0.1150 
     11 C11        -1.7310  -16.6569  -50.5986 C.ar      23 UNK        -0.0193 
     12 C12        -0.9995  -17.7957  -50.9478 C.ar      23 UNK        -0.1150 
     13 C13         0.3100  -17.9700  -50.4937 C.ar      23 UNK        -0.0193 
     14 C14         0.8908  -16.9893  -49.6852 C.ar      23 UNK        -0.1150 
     15 C15         1.0961  -19.2183  -50.8742 C.3       23 UNK        -0.0205 
     16 S16         0.3068  -20.7499  -50.2806 S.3       23 UNK        -0.2404 
     17 C17         0.1366  -20.3859  -48.5015 C.3       23 UNK        -0.0398 
     18 CA          0.0559  -21.6489  -47.6146 C.3       11 UNK         0.1400 
     19 N           0.2376  -21.3188  -46.2006 N.am      11 UNK        -0.5000 
     20 C           0.3488  -22.2113  -45.2075 C.2       10 UNK         0.5000 
     21 O           0.3769  -23.4295  -45.3802 O.2       10 UNK        -0.5000 
     22 CA          0.3716  -21.6467  -43.7758 C.3       10 UNK         0.1400 
     23 CB          1.7722  -21.1337  -43.4108 C.3       10 UNK        -0.1800 
     24 N          -0.6150  -20.5817  -43.5819 N.am      10 UNK        -0.5000 
     25 C          -1.9413  -20.7564  -43.6812 C.2       9 UNK         0.5000 
     26 O          -2.4707  -21.8478  -43.8891 O.2       9 UNK        -0.5000 
     27 CA         -2.8245  -19.5006  -43.5741 C.3       9 UNK         0.1400 
     28 CB         -3.0298  -19.1047  -42.1048 C.3       9 UNK        -0.1800 
     29 N          -2.2914  -18.3638  -44.3273 N.am      9 UNK        -0.5000 
     30 C          -2.1430  -18.3367  -45.6600 C.2       8 UNK         0.5000 
     31 O          -2.4753  -19.2603  -46.4008 O.2       8 UNK        -0.5000 
     32 CA         -1.4592  -17.0964  -46.2648 C.3       8 UNK         0.1400 
     33 CB         -2.4456  -15.9264  -46.3919 C.3       8 UNK        -0.1800 
     34 N          -0.2854  -16.6759  -45.4987 N.am      8 UNK        -0.5000 
     35 C           0.8126  -17.4271  -45.3309 C.2       7 UNK         0.5000 
     36 O           0.9780  -18.5272  -45.8568 O.2       7 UNK        -0.5000 
     37 CA          1.8779  -16.8847  -44.3643 C.3       7 UNK         0.1400 
     38 CB          2.7934  -15.8656  -45.0614 C.3       7 UNK        -0.1800 
     39 N           1.2669  -16.2964  -43.1708 N.am      7 UNK        -0.5000 
     40 C           0.6482  -17.0149  -42.2209 C.2       6 UNK         0.5000 
     41 O           0.5998  -18.2446  -42.2213 O.2       6 UNK        -0.5000 
     42 CA         -0.0887  -16.2352  -41.1175 C.3       6 UNK         0.1400 
     43 CB          0.8339  -15.9527  -39.9248 C.3       6 UNK        -0.1800 
     44 N          -0.6635  -14.9844  -41.6143 N.am      6 UNK        -0.5000 
     45 C          -1.7427  -14.9367  -42.4093 C.2       5 UNK         0.5000 
     46 O          -2.3627  -15.9364  -42.7681 O.2       5 UNK        -0.5000 
     47 CA         -2.1870  -13.5572  -42.9283 C.3       5 UNK         0.1400 
     48 CB         -3.2110  -12.9281  -41.9726 C.3       5 UNK        -0.1800 
     49 N          -1.0816  -12.6221  -43.1324 N.am      5 UNK        -0.5000 
     50 C          -0.0628  -12.8018  -43.9831 C.2       4 UNK         0.5000 
     51 O           0.0585  -13.7980  -44.6991 O.2       4 UNK        -0.5000 
     52 CA          1.0185  -11.7029  -44.0265 C.3       4 UNK         0.1400 
     53 CB          0.6344  -10.4073  -43.2773 C.3       4 UNK        -0.1800 
     54 N           2.3218  -12.1816  -43.5569 N.am      4 UNK        -0.5000 
     55 C           2.6089  -12.7603  -42.3793 C.2       3 UNK         0.5000 
     56 O           1.7556  -13.0313  -41.5331 O.2       3 UNK        -0.5000 
     57 CA          4.0887  -13.1005  -42.0925 C.3       3 UNK         0.1400 
     58 CB          4.2514  -14.5194  -41.5209 C.3       3 UNK        -0.1800 
     59 N           4.9338  -12.9682  -43.2826 N.am      3 UNK        -0.5000 
     60 C           5.7098  -11.9118  -43.5606 C.2       2 UNK         0.5000 
     61 O           5.8446  -10.9424  -42.8134 O.2       2 UNK        -0.5000 
     62 CA          6.4376  -11.9258  -44.9208 C.3       2 UNK         0.1400 
     63 CB          7.8425  -12.5292  -44.7720 C.3       2 UNK        -0.1800 
     64 N           5.7216  -12.6381  -45.9864 N.am      2 UNK        -0.5000 
     65 C           4.5009  -12.3209  -46.4438 C.2       1 UNK         0.5000 
     66 O           3.8117  -11.4215  -45.9609 O.2       1 UNK        -0.5000 
     67 C          -1.2474  -22.4417  -47.8476 C.2       11 UNK         0.5000 
     68 O          -1.2072  -23.4897  -48.4898 O.2       11 UNK        -0.5000 
     69 N          -2.3645  -21.9637  -47.2812 N.am      12 UNK        -0.5000 
     70 CA         -3.6772  -22.6062  -47.3612 C.3       12 UNK         0.1400 
     71 CB         -4.7435  -21.6768  -46.7641 C.3       12 UNK        -0.1800 
     72 C          -3.7307  -23.9950  -46.7003 C.2       12 UNK         0.5000 
     73 O          -4.4447  -24.8673  -47.1925 O.2       12 UNK        -0.5000 
     74 N          -2.9719  -24.1847  -45.6135 N.am      13 UNK        -0.5000 
     75 CA         -2.8054  -25.4748  -44.9473 C.3       13 UNK         0.1400 
     76 CB         -2.1965  -25.2546  -43.5539 C.3       13 UNK        -0.1800 
     77 C          -1.9496  -26.4567  -45.7707 C.2       13 UNK         0.5000 
     78 O          -2.2619  -27.6476  -45.8068 O.2       13 UNK        -0.5000 
     79 N          -0.8832  -25.9472  -46.4017 N.am      14 UNK        -0.5000 
     80 CA          0.0609  -26.7298  -47.1975 C.3       14 UNK         0.1400 
     81 CB          1.3663  -25.9352  -47.3601 C.3       14 UNK        -0.1800 
     82 C          -0.4952  -27.1421  -48.5724 C.2       14 UNK         0.5000 
     83 O          -0.3199  -28.2933  -48.9752 O.2       14 UNK        -0.5000 
     84 N          -1.1207  -26.1949  -49.2824 N.am      15 UNK        -0.5000 
     85 CA         -1.6288  -26.3733  -50.6405 C.3       15 UNK         0.1400 
     86 CB         -1.9445  -24.9953  -51.2449 C.3       15 UNK        -0.1800 
     87 C          -2.8782  -27.2679  -50.6837 C.2       15 UNK         0.5000 
     88 O          -3.8330  -27.0223  -49.9449 O.2       15 UNK        -0.5000 
     89 N          -2.8877  -28.2384  -51.6077 N.am      16 UNK        -0.5000 
     90 CA         -4.0316  -29.1177  -51.8807 C.3       16 UNK         0.1400 
     91 CB         -3.5819  -30.2550  -52.8103 C.3       16 UNK        -0.1800 
     92 C          -5.2387  -28.3701  -52.4850 C.2       16 UNK         0.5000 
     93 O          -6.3790  -28.7910  -52.2909 O.2       16 UNK        -0.5000 
     94 N          -4.9627  -27.2541  -53.1740 N.am      17 UNK        -0.5000 
     95 CA         -5.9500  -26.3193  -53.7178 C.3       17 UNK         0.1400 
     96 CB         -5.3149  -25.5865  -54.9120 C.3       17 UNK        -0.1800 
     97 C          -6.4696  -25.3071  -52.6730 C.2       17 UNK         0.5000 
     98 O          -7.2448  -24.4214  -53.0345 O.2       17 UNK        -0.5000 
     99 N          -6.0044  -25.4110  -51.4166 N.am      18 UNK        -0.5000 
    100 CA        -6.3388  -24.5608  -50.2661 C.3       18 UNK         0.1400 
    101 CB        -7.8216  -24.7295  -49.8755 C.3       18 UNK        -0.1800 
    102 C         -5.9378  -23.0800  -50.4443 C.2       18 UNK         0.5000 
    103 O         -6.5072  -22.2081  -49.7873 O.2       18 UNK        -0.5000 
    104 N         -4.9648  -22.8296  -51.3350 N.am      19 UNK        -0.5000 
    105 CA        -4.4539  -21.5216  -51.7579 C.3       19 UNK         0.1400 
    106 CB        -3.6770  -20.8370  -50.6152 C.3       19 UNK        -0.1800 
    107 C         -5.5332  -20.6131  -52.3874 C.2       19 UNK         0.5000 
    108 O         -5.4514  -19.3890  -52.2666 O.2       19 UNK        -0.5000 
    109 N         -6.5211  -21.2214  -53.0628 N.am      20 UNK        -0.5000 
    110 CA        -7.5876  -20.5365  -53.7941 C.3       20 UNK         0.1400 
    111 CB        -8.5783  -21.5780  -54.3375 C.3       20 UNK        -0.1800 
    112 C         -7.0150  -19.6620  -54.9262 C.2       20 UNK         0.5000 
    113 O         -6.4187  -20.1969  -55.8626 O.2       20 UNK        -0.5000 
    114 N         -7.1707  -18.3381  -54.7801 N.am      21 UNK        -0.5000 
    115 CA        -6.5907  -17.2738  -55.6126 C.3       21 UNK         0.1400 
    116 CB        -7.1114  -17.3491  -57.0638 C.3       21 UNK        -0.1800 
    117 C         -5.0476  -17.1864  -55.5310 C.2       21 UNK         0.5000 
    118 O         -4.4225  -16.6024  -56.4185 O.2       21 UNK        -0.5000 
    119 N         -4.4686  -17.7359  -54.4547 N.am      22 UNK        -0.5000 
    120 CA        -3.0302  -17.7933  -54.1536 C.3       22 UNK         0.1400 
    121 C         -2.2017  -18.6170  -55.1898 C.2       22 UNK         0.5000 
    122 N         -0.8897  -18.4319  -55.2710 N.am      22 UNK        -0.7600 
    123 O         -2.7261  -19.4797  -55.8900 O.2       22 UNK        -0.5000 
    124 C124       -2.4211  -16.3980  -53.8189 C.3       23 UNK        -0.0398 
    125 S125       -3.3299  -15.4516  -52.5441 S.3       23 UNK        -0.2404 
    126 C126       -3.1727  -16.4977  -51.0592 C.3       23 UNK        -0.0205 
    127 H127        6.2900  -12.4939  -51.4316 H         1 UNK         0.0600 
    128 H128        6.7423  -13.8811  -50.4377 H         1 UNK         0.0600 
    129 H129        7.5638  -12.3336  -50.2175 H         1 UNK         0.0600 
    130 H130        5.2692  -14.2906  -48.8451 H         1 UNK         0.3000 
    131 H131        3.7959  -14.1524  -47.2245 H         1 UNK         0.0600 
    132 H132        1.8828  -12.5548  -47.3517 H         1 UNK         0.0800 
    133 H133        2.7153  -11.6282  -48.5695 H         1 UNK         0.0800 
    134 H134        1.4070  -15.2549  -47.6846 H         1 UNK         0.0800 
    135 H135        0.0656  -14.1719  -47.9722 H         1 UNK         0.0800 
    136 H136       -1.6935  -14.7915  -49.5323 H         1 UNK         0.1150 
    137 H137       -1.4462  -18.5606  -51.5640 H         1 UNK         0.1150 
    138 H138        1.9031  -17.1144  -49.3275 H         1 UNK         0.1150 
    139 H139        1.1865  -19.2648  -51.9602 H         1 UNK         0.0800 
    140 H140        2.1134  -19.1711  -50.4826 H         1 UNK         0.0800 
    141 H141       -0.7327  -19.7433  -48.3552 H         1 UNK         0.0800 
    142 H142        1.0026  -19.7935  -48.2035 H         1 UNK         0.0800 
    143 H143        0.8867  -22.3025  -47.8890 H         1 UNK         0.0600 
    144 H144        0.2704  -20.3296  -45.9704 H         1 UNK         0.3000 
    145 H145        0.1208  -22.4621  -43.0941 H         1 UNK         0.0600 
    146 H146        1.8133  -20.8084  -42.3712 H         1 UNK         0.0600 
    147 H147        2.0700  -20.2918  -44.0360 H         1 UNK         0.0600 
    148 H148        2.5201  -21.9176  -43.5363 H         1 UNK         0.0600 
    149 H149       -0.2530  -19.6611  -43.3543 H         1 UNK         0.3000 
    150 H150       -3.8011  -19.7464  -43.9959 H         1 UNK         0.0600 
    151 H151       -3.4528  -19.9320  -41.5335 H         1 UNK         0.0600 
    152 H152       -3.7171  -18.2634  -42.0152 H         1 UNK         0.0600 
    153 H153       -2.0908  -18.8234  -41.6286 H         1 UNK         0.0600 
    154 H154       -2.0593  -17.5332  -43.7904 H         1 UNK         0.3000 
    155 H155       -1.1207  -17.3651  -47.2671 H         1 UNK         0.0600 
    156 H156       -3.2788  -16.1929  -47.0433 H         1 UNK         0.0600 
    157 H157       -1.9656  -15.0472  -46.8207 H         1 UNK         0.0600 
    158 H158       -2.8626  -15.6416  -45.4264 H         1 UNK         0.0600 
    159 H159       -0.3210  -15.7608  -45.0618 H         1 UNK         0.3000 
    160 H160        2.4973  -17.7281  -44.0514 H         1 UNK         0.0600 
    161 H161        2.2646  -14.9517  -45.3277 H         1 UNK         0.0600 
    162 H162        3.2071  -16.2847  -45.9796 H         1 UNK         0.0600 
    163 H163        3.6364  -15.5939  -44.4290 H         1 UNK         0.0600 
    164 H164        1.1989  -15.2893  -43.1360 H         1 UNK         0.3000 
    165 H165       -0.9037  -16.8665  -40.7575 H         1 UNK         0.0600 
    166 H166        0.2923  -15.4636  -39.1151 H         1 UNK         0.0600 
    167 H167        1.2506  -16.8784  -39.5259 H         1 UNK         0.0600 
    168 H168        1.6675  -15.3119  -40.2034 H         1 UNK         0.0600 
    169 H169       -0.1615  -14.1299  -41.4014 H         1 UNK         0.3000 
    170 H170       -2.6716  -13.7105  -43.8944 H         1 UNK         0.0600 
    171 H171       -2.7748  -12.7212  -40.9945 H         1 UNK         0.0600 
    172 H172       -3.6012  -11.9918  -42.3722 H         1 UNK         0.0600 
    173 H173       -4.0617  -13.5936  -41.8188 H         1 UNK         0.0600 
    174 H174       -1.0860  -11.7882  -42.5635 H         1 UNK         0.3000 
    175 H175        1.1429  -11.4477  -45.0796 H         1 UNK         0.0600 
    176 H176        0.5322  -10.5650  -42.2030 H         1 UNK         0.0600 
    177 H177        1.3941   -9.6391  -43.4230 H         1 UNK         0.0600 
    178 H178       -0.3057   -9.9978  -43.6494 H         1 UNK         0.0600 
    179 H179        3.0855  -11.9984  -44.1987 H         1 UNK         0.3000 
    180 H180        4.4241  -12.4018  -41.3237 H         1 UNK         0.0600 
    181 H181        5.3033  -14.7885  -41.4239 H         1 UNK         0.0600 
    182 H182        3.7682  -15.2730  -42.1411 H         1 UNK         0.0600 
    183 H183        3.8166  -14.5845  -40.5238 H         1 UNK         0.0600 
    184 H184        4.8920  -13.7188  -43.9557 H         1 UNK         0.3000 
    185 H185        6.5460  -10.8870  -45.2395 H         1 UNK         0.0600 
    186 H186        8.4059  -12.4527  -45.7021 H         1 UNK         0.0600 
    187 H187        8.4139  -12.0055  -44.0043 H         1 UNK         0.0600 
    188 H188        7.8004  -13.5818  -44.4890 H         1 UNK         0.0600 
    189 H189        6.2280  -13.3802  -46.4475 H         1 UNK         0.3000 
    190 H190       -2.3287  -21.0689  -46.7977 H         1 UNK         0.3000 
    191 H191       -3.9025  -22.7489  -48.4178 H         1 UNK         0.0600 
    192 H192       -4.7677  -20.7190  -47.2840 H         1 UNK         0.0600 
    193 H193       -4.5599  -21.4808  -45.7076 H         1 UNK         0.0600 
    194 H194       -5.7374  -22.1174  -46.8515 H         1 UNK         0.0600 
    195 H195       -2.4781  -23.3921  -45.2167 H         1 UNK         0.3000 
    196 H196       -3.7928  -25.9224  -44.8154 H         1 UNK         0.0600 
    197 H197       -2.8316  -24.6116  -42.9442 H         1 UNK         0.0600 
    198 H198       -1.2114  -24.7912  -43.6119 H         1 UNK         0.0600 
    199 H199       -2.0844  -26.2006  -43.0228 H         1 UNK         0.0600 
    200 H200       -0.6715  -24.9618  -46.2860 H         1 UNK         0.3000 
    201 H201        0.2949  -27.6440  -46.6477 H         1 UNK         0.0600 
    202 H202        1.8195  -25.7213  -46.3920 H         1 UNK         0.0600 
    203 H203        1.1984  -24.9837  -47.8665 H         1 UNK         0.0600 
    204 H204        2.0966  -26.4958  -47.9448 H         1 UNK         0.0600 
    205 H205       -1.2209  -25.2633  -48.8827 H         1 UNK         0.3000 
    206 H206       -0.8401  -26.8339  -51.2391 H         1 UNK         0.0600 
    207 H207       -2.6954  -24.4659  -50.6573 H         1 UNK         0.0600 
    208 H208       -1.0532  -24.3682  -51.2823 H         1 UNK         0.0600 
    209 H209       -2.3218  -25.0860  -52.2641 H         1 UNK         0.0600 
    210 H210       -2.0659  -28.3830  -52.1770 H         1 UNK         0.3000 
    211 H211       -4.3559  -29.5560  -50.9345 H         1 UNK         0.0600 
    212 H212       -3.2283  -29.8757  -53.7699 H         1 UNK         0.0600 
    213 H213       -4.4043  -30.9427  -53.0121 H         1 UNK         0.0600 
    214 H214       -2.7769  -30.8370  -52.3609 H         1 UNK         0.0600 
    215 H215       -3.9930  -27.0016  -53.2934 H         1 UNK         0.3000 
    216 H216       -6.8126  -26.8816  -54.0812 H         1 UNK         0.0600 
    217 H217       -6.0315  -24.9181  -55.3914 H         1 UNK         0.0600 
    218 H218       -4.9765  -26.2912  -55.6718 H         1 UNK         0.0600 
    219 H219       -4.4583  -24.9844  -54.6068 H         1 UNK         0.0600 
    220 H220       -5.3574  -26.1619  -51.2066 H         1 UNK         0.3000 
    221 H221       -5.7382  -24.9367  -49.4388 H         1 UNK         0.0600 
    222 H222       -8.4893  -24.3057  -50.6261 H         1 UNK         0.0600 
    223 H223       -8.0789  -25.7814  -49.7514 H         1 UNK         0.0600 
    224 H224       -8.0358  -24.2316  -48.9291 H         1 UNK         0.0600 
    225 H225       -4.5799  -23.6244  -51.8228 H         1 UNK         0.3000 
    226 H226       -3.7391  -21.7212  -52.5574 H         1 UNK         0.0600 
    227 H227       -2.8759  -21.4777  -50.2485 H         1 UNK         0.0600 
    228 H228       -3.2134  -19.9122  -50.9540 H         1 UNK         0.0600 
    229 H229       -4.3244  -20.5857  -49.7753 H         1 UNK         0.0600 
    230 H230       -6.5339  -22.2326  -53.1022 H         1 UNK         0.3000 
    231 H231       -8.1224  -19.9004  -53.0858 H         1 UNK         0.0600 
    232 H232       -9.3873  -21.0976  -54.8891 H         1 UNK         0.0600 
    233 H233       -9.0307  -22.1509  -53.5277 H         1 UNK         0.0600 
    234 H234       -8.0918  -22.2835  -55.0125 H         1 UNK         0.0600 
    235 H235       -7.6571  -18.0116  -53.9562 H         1 UNK         0.3000 
    236 H236       -6.9568  -16.3378  -55.1887 H         1 UNK         0.0600 
    237 H237       -6.7093  -18.2114  -57.5961 H         1 UNK         0.0600 
    238 H238       -8.1991  -17.4136  -57.0907 H         1 UNK         0.0600 
    239 H239       -6.8270  -16.4597  -57.6271 H         1 UNK         0.0600 
    240 H240       -5.0586  -18.2111  -53.7793 H         1 UNK         0.3000 
    241 H241       -2.9737  -18.4003  -53.2526 H         1 UNK         0.0600 
    242 H242       -0.4053  -17.7543  -54.7050 H         1 UNK         0.3800 
    243 H243       -0.3647  -18.9867  -55.9293 H         1 UNK         0.3800 
    244 H244       -2.3810  -15.7851  -54.7204 H         1 UNK         0.0800 
    245 H245       -1.3902  -16.4928  -53.4776 H         1 UNK         0.0800 
    246 H246       -3.7562  -16.0450  -50.2563 H         1 UNK         0.0800 
    247 H247       -3.6316  -17.4701  -51.2394 H         1 UNK         0.0800 
@<TRIPOS>BOND
     1    1    2 1    
     2    1  127 1    
     3    1  128 1    
     4    1  129 1    
     5    2    3 2    
     6    2    4 am   BACKBONE|DICT|INTERRES
     7    4    5 1    
     8    4  130 1    
     9    5    6 1    
    10    5   65 1    
    11    5  131 1    
    12    6    7 1    
    13    6  132 1    
    14    6  133 1    
    15    7    8 1    
    16    8    9 1    
    17    8  134 1    
    18    8  135 1    
    19    9   10 ar   
    20    9   14 ar   
    21   10   11 ar   
    22   10  136 1    
    23   11   12 ar   
    24   11  126 1    
    25   12   13 ar   
    26   12  137 1    
    27   13   14 ar   
    28   13   15 1    
    29   14  138 1    
    30   15   16 1    
    31   15  139 1    
    32   15  140 1    
    33   16   17 1    
    34   17   18 1    
    35   17  141 1    
    36   17  142 1    
    37   18   19 1    
    38   18   67 1    
    39   18  143 1    
    40   19   20 am   BACKBONE|DICT|INTERRES
    41   19  144 1    
    42   20   21 2    
    43   20   22 1    
    44   22   23 1    
    45   22   24 1    
    46   22  145 1    
    47   23  146 1    
    48   23  147 1    
    49   23  148 1    
    50   24   25 am   BACKBONE|DICT|INTERRES
    51   24  149 1    
    52   25   26 2    
    53   25   27 1    
    54   27   28 1    
    55   27   29 1    
    56   27  150 1    
    57   28  151 1    
    58   28  152 1    
    59   28  153 1    
    60   29   30 am   BACKBONE|DICT|INTERRES
    61   29  154 1    
    62   30   31 2    
    63   30   32 1    
    64   32   33 1    
    65   32   34 1    
    66   32  155 1    
    67   33  156 1    
    68   33  157 1    
    69   33  158 1    
    70   34   35 am   BACKBONE|DICT|INTERRES
    71   34  159 1    
    72   35   36 2    
    73   35   37 1    
    74   37   38 1    
    75   37   39 1    
    76   37  160 1    
    77   38  161 1    
    78   38  162 1    
    79   38  163 1    
    80   39   40 am   BACKBONE|DICT|INTERRES
    81   39  164 1    
    82   40   41 2    
    83   40   42 1    
    84   42   43 1    
    85   42   44 1    
    86   42  165 1    
    87   43  166 1    
    88   43  167 1    
    89   43  168 1    
    90   44   45 am   BACKBONE|DICT|INTERRES
    91   44  169 1    
    92   45   46 2    
    93   45   47 1    
    94   47   48 1    
    95   47   49 1    
    96   47  170 1    
    97   48  171 1    
    98   48  172 1    
    99   48  173 1    
   100   49   50 am   BACKBONE|DICT|INTERRES
   101   49  174 1    
   102   50   51 2    
   103   50   52 1    
   104   52   53 1    
   105   52   54 1    
   106   52  175 1    
   107   53  176 1    
   108   53  177 1    
   109   53  178 1    
   110   54   55 am   BACKBONE|DICT|INTERRES
   111   54  179 1    
   112   55   56 2    
   113   55   57 1    
   114   57   58 1    
   115   57   59 1    
   116   57  180 1    
   117   58  181 1    
   118   58  182 1    
   119   58  183 1    
   120   59   60 am   BACKBONE|DICT|INTERRES
   121   59  184 1    
   122   60   61 2    
   123   60   62 1    
   124   62   63 1    
   125   62   64 1    
   126   62  185 1    
   127   63  186 1    
   128   63  187 1    
   129   63  188 1    
   130   64   65 am   BACKBONE|DICT|INTERRES
   131   64  189 1    
   132   65   66 2    
   133   67   68 2    
   134   67   69 am   BACKBONE|DICT|INTERRES
   135   69   70 1    
   136   69  190 1    
   137   70   71 1    
   138   70   72 1    
   139   70  191 1    
   140   71  192 1    
   141   71  193 1    
   142   71  194 1    
   143   72   73 2    
   144   72   74 am   BACKBONE|DICT|INTERRES
   145   74   75 1    
   146   74  195 1    
   147   75   76 1    
   148   75   77 1    
   149   75  196 1    
   150   76  197 1    
   151   76  198 1    
   152   76  199 1    
   153   77   78 2    
   154   77   79 am   BACKBONE|DICT|INTERRES
   155   79   80 1    
   156   79  200 1    
   157   80   81 1    
   158   80   82 1    
   159   80  201 1    
   160   81  202 1    
   161   81  203 1    
   162   81  204 1    
   163   82   83 2    
   164   82   84 am   BACKBONE|DICT|INTERRES
   165   84   85 1    
   166   84  205 1    
   167   85   86 1    
   168   85   87 1    
   169   85  206 1    
   170   86  207 1    
   171   86  208 1    
   172   86  209 1    
   173   87   88 2    
   174   87   89 am   BACKBONE|DICT|INTERRES
   175   89   90 1    
   176   89  210 1    
   177   90   91 1    
   178   90   92 1    
   179   90  211 1    
   180   91  212 1    
   181   91  213 1    
   182   91  214 1    
   183   92   93 2    
   184   92   94 am   BACKBONE|DICT|INTERRES
   185   94   95 1    
   186   94  215 1    
   187   95   96 1    
   188   95   97 1    
   189   95  216 1    
   190   96  217 1    
   191   96  218 1    
   192   96  219 1    
   193   97   98 2    
   194   97   99 am   BACKBONE|DICT|INTERRES
   195   99  100 1    
   196   99  220 1    
   197  100  101 1    
   198  100  102 1    
   199  100  221 1    
   200  101  222 1    
   201  101  223 1    
   202  101  224 1    
   203  102  103 2    
   204  102  104 am   BACKBONE|DICT|INTERRES
   205  104  105 1    
   206  104  225 1    
   207  105  106 1    
   208  105  107 1    
   209  105  226 1    
   210  106  227 1    
   211  106  228 1    
   212  106  229 1    
   213  107  108 2    
   214  107  109 am   BACKBONE|DICT|INTERRES
   215  109  110 1    
   216  109  230 1    
   217  110  111 1    
   218  110  112 1    
   219  110  231 1    
   220  111  232 1    
   221  111  233 1    
   222  111  234 1    
   223  112  113 2    
   224  112  114 am   BACKBONE|DICT|INTERRES
   225  114  115 1    
   226  114  235 1    
   227  115  116 1    
   228  115  117 1    
   229  115  236 1    
   230  116  237 1    
   231  116  238 1    
   232  116  239 1    
   233  117  118 2    
   234  117  119 am   BACKBONE|DICT|INTERRES
   235  119  120 1    
   236  119  240 1    
   237  120  121 1    
   238  120  124 1    
   239  120  241 1    
   240  121  122 am   BACKBONE|DICT|INTERRES
   241  121  123 2    
   242  122  242 1    
   243  122  243 1    
   244  124  125 1    
   245  124  244 1    
   246  124  245 1    
   247  125  126 1    
   248  126  246 1    
   249  126  247 1    
@<TRIPOS>SUBSTRUCTURE
     1 UNK         1 GROUP             0       ****    0 ROOT    
