@<TRIPOS>MOLECULE
3R540
247   249    1
SMALL
USER_CHARGES


@<TRIPOS>ATOM
      1 CA          5.6847  -17.5585  -48.4858 C.3       0 UNK        -0.1800 
      2 C           5.7347  -16.0378  -48.5232 C.2       0 UNK         0.5000 
      3 O           6.8204  -15.4590  -48.5171 O.2       0 UNK        -0.5000 
      4 N           4.5586  -15.3970  -48.5440 N.am      1 UNK        -0.5000 
      5 CA          4.3311  -13.9426  -48.6178 C.3       1 UNK         0.1400 
      6 C6          4.9464  -13.2519  -49.8688 C.3       23 UNK        -0.0398 
      7 S7          4.6370  -14.0891  -51.4622 S.3       23 UNK        -0.2404 
      8 C8          2.8541  -13.7945  -51.7303 C.3       23 UNK        -0.0205 
      9 C9          1.9314  -14.7961  -51.0354 C.ar      23 UNK        -0.0193 
     10 C10         0.6662  -14.3786  -50.6056 C.ar      23 UNK        -0.1150 
     11 C11        -0.2206  -15.2856  -50.0194 C.ar      23 UNK        -0.0193 
     12 C12         0.1734  -16.6118  -49.8495 C.ar      23 UNK        -0.1150 
     13 C13         1.4349  -17.0516  -50.2560 C.ar      23 UNK        -0.0193 
     14 C14         2.3008  -16.1379  -50.8630 C.ar      23 UNK        -0.1150 
     15 C15         1.8551  -18.5110  -50.0889 C.3       23 UNK        -0.0205 
     16 S16         1.7143  -19.1204  -48.3716 S.3       23 UNK        -0.2404 
     17 C17        -0.0562  -19.5542  -48.2802 C.3       23 UNK        -0.0398 
     18 CA         -0.3317  -20.9065  -47.5951 C.3       11 UNK         0.1400 
     19 N          -0.0059  -20.8832  -46.1667 N.am      11 UNK        -0.5000 
     20 C           0.0059  -21.9641  -45.3745 C.2       10 UNK         0.5000 
     21 O          -0.3450  -23.0807  -45.7615 O.2       10 UNK        -0.5000 
     22 CA          0.4572  -21.7686  -43.9120 C.3       10 UNK         0.1400 
     23 CB          1.0347  -23.0578  -43.2934 C.3       10 UNK        -0.1800 
     24 N           1.3792  -20.6458  -43.7172 N.am      10 UNK        -0.5000 
     25 C           2.5921  -20.4569  -44.2641 C.2       9 UNK         0.5000 
     26 O           3.1359  -21.2606  -45.0219 O.2       9 UNK        -0.5000 
     27 CA          3.3234  -19.1486  -43.8957 C.3       9 UNK         0.1400 
     28 CB          3.7940  -18.3824  -45.1454 C.3       9 UNK        -0.1800 
     29 N           2.4644  -18.2721  -43.0948 N.am      9 UNK        -0.5000 
     30 C           2.6678  -17.9648  -41.8082 C.2       8 UNK         0.5000 
     31 O           3.6594  -18.3156  -41.1676 O.2       8 UNK        -0.5000 
     32 CA          1.5690  -17.1516  -41.0996 C.3       8 UNK         0.1400 
     33 CB          1.8745  -15.6485  -41.1679 C.3       8 UNK        -0.1800 
     34 N           0.2139  -17.3923  -41.6055 N.am      8 UNK        -0.5000 
     35 C          -0.4740  -18.5309  -41.4367 C.2       7 UNK         0.5000 
     36 O           0.0205  -19.5632  -40.9856 O.2       7 UNK        -0.5000 
     37 CA         -1.9578  -18.5207  -41.8380 C.3       7 UNK         0.1400 
     38 CB         -2.7930  -17.7806  -40.7816 C.3       7 UNK        -0.1800 
     39 N          -2.1511  -17.8766  -43.1328 N.am      7 UNK        -0.5000 
     40 C          -2.4004  -18.5244  -44.2775 C.2       6 UNK         0.5000 
     41 O          -2.5188  -19.7464  -44.3733 O.2       6 UNK        -0.5000 
     42 CA         -2.4539  -17.6596  -45.5522 C.3       6 UNK         0.1400 
     43 CB         -3.8089  -16.9464  -45.6730 C.3       6 UNK        -0.1800 
     44 N          -1.3885  -16.6584  -45.6170 N.am      6 UNK        -0.5000 
     45 C          -0.0831  -16.8877  -45.4230 C.2       5 UNK         0.5000 
     46 O           0.4022  -18.0077  -45.2600 O.2       5 UNK        -0.5000 
     47 CA          0.8293  -15.6554  -45.3152 C.3       5 UNK         0.1400 
     48 CB          1.4794  -15.3500  -46.6683 C.3       5 UNK        -0.1800 
     49 N           0.1992  -14.4308  -44.8091 N.am      5 UNK        -0.5000 
     50 C          -0.5172  -14.2816  -43.6861 C.2       4 UNK         0.5000 
     51 O          -0.9058  -15.2183  -42.9843 O.2       4 UNK        -0.5000 
     52 CA         -0.7818  -12.8263  -43.2520 C.3       4 UNK         0.1400 
     53 CB         -1.7666  -12.7339  -42.0729 C.3       4 UNK        -0.1800 
     54 N           0.4763  -12.1848  -42.8674 N.am      4 UNK        -0.5000 
     55 C           1.4044  -11.7232  -43.7165 C.2       3 UNK         0.5000 
     56 O           1.2318  -11.6688  -44.9369 O.2       3 UNK        -0.5000 
     57 CA          2.7574  -11.2712  -43.1202 C.3       3 UNK         0.1400 
     58 CB          2.9269  -11.6018  -41.6192 C.3       3 UNK        -0.1800 
     59 N           3.8999  -11.7929  -43.8808 N.am      3 UNK        -0.5000 
     60 C           4.1702  -13.0792  -44.1475 C.2       2 UNK         0.5000 
     61 O           3.4722  -14.0276  -43.7870 O.2       2 UNK        -0.5000 
     62 CA          5.4451  -13.3601  -44.9569 C.3       2 UNK         0.1400 
     63 CB          6.3554  -14.3619  -44.2272 C.3       2 UNK        -0.1800 
     64 N           5.0954  -13.9053  -46.2636 N.am      2 UNK        -0.5000 
     65 C           4.7068  -13.1819  -47.3214 C.2       1 UNK         0.5000 
     66 O           4.6270  -11.9527  -47.2978 O.2       1 UNK        -0.5000 
     67 C          -1.7754  -21.3691  -47.8904 C.2       11 UNK         0.5000 
     68 O          -2.0054  -21.9521  -48.9508 O.2       11 UNK        -0.5000 
     69 N          -2.7232  -21.1380  -46.9692 N.am      12 UNK        -0.5000 
     70 CA         -4.1062  -21.6007  -47.1129 C.3       12 UNK         0.1400 
     71 CB         -5.0204  -20.8501  -46.1368 C.3       12 UNK        -0.1800 
     72 C          -4.2382  -23.1202  -46.9183 C.2       12 UNK         0.5000 
     73 O          -5.1172  -23.7284  -47.5255 O.2       12 UNK        -0.5000 
     74 N          -3.3538  -23.7108  -46.1034 N.am      13 UNK        -0.5000 
     75 CA         -3.2569  -25.1559  -45.9158 C.3       13 UNK         0.1400 
     76 CB         -2.5974  -25.4615  -44.5621 C.3       13 UNK        -0.1800 
     77 C          -2.4801  -25.8083  -47.0707 C.2       13 UNK         0.5000 
     78 O          -2.9108  -26.8429  -47.5789 O.2       13 UNK        -0.5000 
     79 N          -1.3688  -25.1783  -47.4803 N.am      14 UNK        -0.5000 
     80 CA         -0.4823  -25.6501  -48.5458 C.3       14 UNK         0.1400 
     81 CB          0.7886  -24.7884  -48.5765 C.3       14 UNK        -0.1800 
     82 C          -1.1556  -25.6759  -49.9299 C.2       14 UNK         0.5000 
     83 O          -1.0304  -26.6708  -50.6447 O.2       14 UNK        -0.5000 
     84 N          -1.8752  -24.5982  -50.2734 N.am      15 UNK        -0.5000 
     85 CA         -2.6366  -24.4854  -51.5209 C.3       15 UNK         0.1400 
     86 CB         -2.7230  -23.0031  -51.9142 C.3       15 UNK        -0.1800 
     87 C          -4.0522  -25.0849  -51.4119 C.2       15 UNK         0.5000 
     88 O          -4.7577  -25.1523  -52.4214 O.2       15 UNK        -0.5000 
     89 N          -4.4687  -25.4440  -50.1868 N.am      16 UNK        -0.5000 
     90 CA         -5.7823  -25.9718  -49.7887 C.3       16 UNK         0.1400 
     91 CB         -5.9951  -27.3734  -50.3961 C.3       16 UNK        -0.1800 
     92 C          -6.9629  -25.0206  -50.0952 C.2       16 UNK         0.5000 
     93 O          -8.1098  -25.4679  -50.1402 O.2       16 UNK        -0.5000 
     94 N          -6.6505  -23.7398  -50.3529 N.am      17 UNK        -0.5000 
     95 CA         -7.5105  -22.6916  -50.9147 C.3       17 UNK         0.1400 
     96 CB         -8.6272  -22.3101  -49.9223 C.3       17 UNK        -0.1800 
     97 C          -8.0555  -23.0321  -52.3242 C.2       17 UNK         0.5000 
     98 O          -9.0330  -22.4212  -52.7594 O.2       17 UNK        -0.5000 
     99 N          -7.4303  -24.0046  -53.0040 N.am      18 UNK        -0.5000 
    100 CA        -7.8909  -24.5957  -54.2583 C.3       18 UNK         0.1400 
    101 CB        -8.1095  -26.1026  -54.0477 C.3       18 UNK        -0.1800 
    102 C         -6.8856  -24.3502  -55.3901 C.2       18 UNK         0.5000 
    103 O         -7.2967  -23.9706  -56.4873 O.2       18 UNK        -0.5000 
    104 N         -5.5878  -24.5437  -55.1093 N.am      19 UNK        -0.5000 
    105 CA        -4.4985  -24.2478  -56.0458 C.3       19 UNK         0.1400 
    106 CB        -3.2169  -24.9532  -55.5779 C.3       19 UNK        -0.1800 
    107 C         -4.2666  -22.7321  -56.1949 C.2       19 UNK         0.5000 
    108 O         -3.8674  -22.2719  -57.2650 O.2       19 UNK        -0.5000 
    109 N         -4.5574  -21.9920  -55.1215 N.am      20 UNK        -0.5000 
    110 CA        -4.5715  -20.5424  -55.0309 C.3       20 UNK         0.1400 
    111 CB        -3.1401  -19.9933  -54.8967 C.3       20 UNK        -0.1800 
    112 C         -5.4040  -20.1979  -53.7935 C.2       20 UNK         0.5000 
    113 O         -5.2455  -20.8558  -52.7615 O.2       20 UNK        -0.5000 
    114 N         -6.2464  -19.1623  -53.8922 N.am      21 UNK        -0.5000 
    115 CA        -7.1004  -18.6811  -52.7978 C.3       21 UNK         0.1400 
    116 CB        -8.0703  -17.6232  -53.3455 C.3       21 UNK        -0.1800 
    117 C         -6.3074  -18.1210  -51.5986 C.2       21 UNK         0.5000 
    118 O         -6.8152  -18.1231  -50.4772 O.2       21 UNK        -0.5000 
    119 N         -5.0712  -17.6791  -51.8619 N.am      22 UNK        -0.5000 
    120 CA        -4.0730  -17.2821  -50.8593 C.3       22 UNK         0.1400 
    121 C         -3.5009  -18.4700  -50.0268 C.2       22 UNK         0.5000 
    122 N         -3.6536  -19.7246  -50.4410 N.am      22 UNK        -0.7600 
    123 O         -2.8997  -18.2439  -48.9835 O.2       22 UNK        -0.5000 
    124 C124       -2.9276  -16.4507  -51.5143 C.3       23 UNK        -0.0398 
    125 S125       -2.8175  -14.7342  -50.8977 S.3       23 UNK        -0.2404 
    126 C126       -1.6002  -14.8479  -49.5451 C.3       23 UNK        -0.0205 
    127 H127        4.6618  -17.9295  -48.4163 H         1 UNK         0.0600 
    128 H128        6.2385  -17.9320  -47.6246 H         1 UNK         0.0600 
    129 H129        6.1352  -17.9706  -49.3885 H         1 UNK         0.0600 
    130 H130        3.7138  -15.9503  -48.5617 H         1 UNK         0.3000 
    131 H131        3.2494  -13.8321  -48.6989 H         1 UNK         0.0600 
    132 H132        6.0285  -13.1698  -49.7552 H         1 UNK         0.0800 
    133 H133        4.5807  -12.2272  -49.9547 H         1 UNK         0.0800 
    134 H134        2.6580  -13.8493  -52.8017 H         1 UNK         0.0800 
    135 H135        2.6120  -12.7748  -51.4268 H         1 UNK         0.0800 
    136 H136        0.3611  -13.3506  -50.7425 H         1 UNK         0.1150 
    137 H137       -0.5266  -17.2966  -49.4063 H         1 UNK         0.1150 
    138 H138        3.2653  -16.4789  -51.2107 H         1 UNK         0.1150 
    139 H139        1.2695  -19.1375  -50.7627 H         1 UNK         0.0800 
    140 H140        2.8946  -18.6360  -50.3954 H         1 UNK         0.0800 
    141 H141       -0.4595  -19.5655  -49.2944 H         1 UNK         0.0800 
    142 H142       -0.5742  -18.7567  -47.7514 H         1 UNK         0.0800 
    143 H143        0.3267  -21.6438  -48.0556 H         1 UNK         0.0600 
    144 H144        0.2811  -19.9875  -45.7844 H         1 UNK         0.3000 
    145 H145       -0.4456  -21.5135  -43.3554 H         1 UNK         0.0600 
    146 H146        1.3344  -22.8976  -42.2577 H         1 UNK         0.0600 
    147 H147        0.2957  -23.8596  -43.2943 H         1 UNK         0.0600 
    148 H148        1.9051  -23.4152  -43.8444 H         1 UNK         0.0600 
    149 H149        1.0538  -19.9369  -43.0753 H         1 UNK         0.3000 
    150 H150        4.2105  -19.4392  -43.3299 H         1 UNK         0.0600 
    151 H151        4.4902  -18.9813  -45.7334 H         1 UNK         0.0600 
    152 H152        4.3078  -17.4603  -44.8728 H         1 UNK         0.0600 
    153 H153        2.9623  -18.1202  -45.7970 H         1 UNK         0.0600 
    154 H154        1.6152  -17.9624  -43.5520 H         1 UNK         0.3000 
    155 H155        1.5822  -17.4446  -40.0476 H         1 UNK         0.0600 
    156 H156        2.8649  -15.4288  -40.7674 H         1 UNK         0.0600 
    157 H157        1.1527  -15.0701  -40.5912 H         1 UNK         0.0600 
    158 H158        1.8503  -15.2850  -42.1938 H         1 UNK         0.0600 
    159 H159       -0.2561  -16.5897  -42.0189 H         1 UNK         0.3000 
    160 H160       -2.3015  -19.5569  -41.8712 H         1 UNK         0.0600 
    161 H161       -2.5112  -16.7294  -40.7058 H         1 UNK         0.0600 
    162 H162       -2.6638  -18.2290  -39.7956 H         1 UNK         0.0600 
    163 H163       -3.8554  -17.8242  -41.0218 H         1 UNK         0.0600 
    164 H164       -1.9822  -16.8764  -43.1696 H         1 UNK         0.3000 
    165 H165       -2.3441  -18.3277  -46.4050 H         1 UNK         0.0600 
    166 H166       -3.9143  -16.4718  -46.6490 H         1 UNK         0.0600 
    167 H167       -4.6382  -17.6444  -45.5621 H         1 UNK         0.0600 
    168 H168       -3.9288  -16.1773  -44.9090 H         1 UNK         0.0600 
    169 H169       -1.6819  -15.6988  -45.7200 H         1 UNK         0.3000 
    170 H170        1.6244  -15.9130  -44.6140 H         1 UNK         0.0600 
    171 H171        1.9532  -16.2356  -47.0931 H         1 UNK         0.0600 
    172 H172        0.7481  -14.9859  -47.3889 H         1 UNK         0.0600 
    173 H173        2.2465  -14.5866  -46.5565 H         1 UNK         0.0600 
    174 H174        0.5058  -13.5721  -45.2534 H         1 UNK         0.3000 
    175 H175       -1.2184  -12.2950  -44.1003 H         1 UNK         0.0600 
    176 H176       -2.7205  -13.1998  -42.3239 H         1 UNK         0.0600 
    177 H177       -1.3813  -13.2334  -41.1829 H         1 UNK         0.0600 
    178 H178       -1.9716  -11.6956  -41.8118 H         1 UNK         0.0600 
    179 H179        0.7093  -12.2217  -41.8859 H         1 UNK         0.3000 
    180 H180        2.7860  -10.1860  -43.2262 H         1 UNK         0.0600 
    181 H181        2.8642  -12.6736  -41.4264 H         1 UNK         0.0600 
    182 H182        2.1680  -11.1054  -41.0131 H         1 UNK         0.0600 
    183 H183        3.8950  -11.2596  -41.2533 H         1 UNK         0.0600 
    184 H184        4.5076  -11.0901  -44.2778 H         1 UNK         0.3000 
    185 H185        6.0044  -12.4315  -45.0900 H         1 UNK         0.0600 
    186 H186        6.6365  -13.9863  -43.2426 H         1 UNK         0.0600 
    187 H187        5.8654  -15.3260  -44.0829 H         1 UNK         0.0600 
    188 H188        7.2760  -14.5353  -44.7848 H         1 UNK         0.0600 
    189 H189        5.1110  -14.9098  -46.3529 H         1 UNK         0.3000 
    190 H190       -2.4830  -20.6740  -46.0982 H         1 UNK         0.3000 
    191 H191       -4.4456  -21.3695  -48.1247 H         1 UNK         0.0600 
    192 H192       -4.7405  -21.0292  -45.0984 H         1 UNK         0.0600 
    193 H193       -6.0580  -21.1648  -46.2555 H         1 UNK         0.0600 
    194 H194       -4.9862  -19.7780  -46.3213 H         1 UNK         0.0600 
    195 H195       -2.6242  -23.1488  -45.6867 H         1 UNK         0.3000 
    196 H196       -4.2628  -25.5817  -45.9008 H         1 UNK         0.0600 
    197 H197       -2.5578  -26.5368  -44.3844 H         1 UNK         0.0600 
    198 H198       -3.1597  -25.0169  -43.7409 H         1 UNK         0.0600 
    199 H199       -1.5759  -25.0852  -44.5106 H         1 UNK         0.0600 
    200 H200       -1.0631  -24.3555  -46.9670 H         1 UNK         0.3000 
    201 H201       -0.1896  -26.6727  -48.2988 H         1 UNK         0.0600 
    202 H202        1.2775  -24.7658  -47.6022 H         1 UNK         0.0600 
    203 H203        0.5697  -23.7618  -48.8670 H         1 UNK         0.0600 
    204 H204        1.5086  -25.1835  -49.2941 H         1 UNK         0.0600 
    205 H205       -1.9057  -23.7941  -49.6528 H         1 UNK         0.3000 
    206 H206       -2.1106  -25.0179  -52.3156 H         1 UNK         0.0600 
    207 H207       -1.7377  -22.5376  -51.9398 H         1 UNK         0.0600 
    208 H208       -3.1615  -22.8849  -52.9035 H         1 UNK         0.0600 
    209 H209       -3.3433  -22.4397  -51.2177 H         1 UNK         0.0600 
    210 H210       -3.8097  -25.3349  -49.4291 H         1 UNK         0.3000 
    211 H211       -5.7524  -26.0828  -48.7041 H         1 UNK         0.0600 
    212 H212       -6.1013  -27.3331  -51.4805 H         1 UNK         0.0600 
    213 H213       -6.8948  -27.8429  -49.9969 H         1 UNK         0.0600 
    214 H214       -5.1583  -28.0326  -50.1648 H         1 UNK         0.0600 
    215 H215       -5.6792  -23.4871  -50.2442 H         1 UNK         0.3000 
    216 H216       -6.8757  -21.8144  -51.0343 H         1 UNK         0.0600 
    217 H217       -9.1641  -21.4232  -50.2604 H         1 UNK         0.0600 
    218 H218       -8.2175  -22.0835  -48.9378 H         1 UNK         0.0600 
    219 H219       -9.3583  -23.1104  -49.8066 H         1 UNK         0.0600 
    220 H220       -6.6035  -24.4228  -52.5910 H         1 UNK         0.3000 
    221 H221       -8.8434  -24.1566  -54.5621 H         1 UNK         0.0600 
    222 H222       -7.1914  -26.6061  -53.7421 H         1 UNK         0.0600 
    223 H223       -8.8600  -26.2855  -53.2783 H         1 UNK         0.0600 
    224 H224       -8.4586  -26.5797  -54.9644 H         1 UNK         0.0600 
    225 H225       -5.3173  -24.8627  -54.1824 H         1 UNK         0.3000 
    226 H226       -4.7652  -24.6446  -57.0277 H         1 UNK         0.0600 
    227 H227       -3.3674  -26.0295  -55.4925 H         1 UNK         0.0600 
    228 H228       -2.4036  -24.7928  -56.2867 H         1 UNK         0.0600 
    229 H229       -2.8837  -24.5838  -54.6091 H         1 UNK         0.0600 
    230 H230       -4.8945  -22.4547  -54.2873 H         1 UNK         0.3000 
    231 H231       -5.0491  -20.1291  -55.9215 H         1 UNK         0.0600 
    232 H232       -2.5365  -20.2394  -55.7702 H         1 UNK         0.0600 
    233 H233       -2.6356  -20.3978  -54.0179 H         1 UNK         0.0600 
    234 H234       -3.1453  -18.9069  -54.8024 H         1 UNK         0.0600 
    235 H235       -6.3205  -18.6676  -54.7698 H         1 UNK         0.3000 
    236 H236       -7.6871  -19.5274  -52.4335 H         1 UNK         0.0600 
    237 H237       -8.7387  -17.2633  -52.5622 H         1 UNK         0.0600 
    238 H238       -7.5391  -16.7592  -53.7466 H         1 UNK         0.0600 
    239 H239       -8.6947  -18.0337  -54.1394 H         1 UNK         0.0600 
    240 H240       -4.7537  -17.7176  -52.8180 H         1 UNK         0.3000 
    241 H241       -4.5946  -16.6524  -50.1361 H         1 UNK         0.0600 
    242 H242       -3.2321  -20.4688  -49.9043 H         1 UNK         0.3800 
    243 H243       -4.1786  -19.9492  -51.2775 H         1 UNK         0.3800 
    244 H244       -1.9574  -16.9390  -51.4294 H         1 UNK         0.0800 
    245 H245       -3.0802  -16.3704  -52.5913 H         1 UNK         0.0800 
    246 H246       -1.5207  -13.8731  -49.0620 H         1 UNK         0.0800 
    247 H247       -1.9780  -15.5318  -48.7828 H         1 UNK         0.0800 
@<TRIPOS>BOND
     1    1    2 1    
     2    1  127 1    
     3    1  128 1    
     4    1  129 1    
     5    2    3 2    
     6    2    4 am   BACKBONE|DICT|INTERRES
     7    4    5 1    
     8    4  130 1    
     9    5    6 1    
    10    5   65 1    
    11    5  131 1    
    12    6    7 1    
    13    6  132 1    
    14    6  133 1    
    15    7    8 1    
    16    8    9 1    
    17    8  134 1    
    18    8  135 1    
    19    9   10 ar   
    20    9   14 ar   
    21   10   11 ar   
    22   10  136 1    
    23   11   12 ar   
    24   11  126 1    
    25   12   13 ar   
    26   12  137 1    
    27   13   14 ar   
    28   13   15 1    
    29   14  138 1    
    30   15   16 1    
    31   15  139 1    
    32   15  140 1    
    33   16   17 1    
    34   17   18 1    
    35   17  141 1    
    36   17  142 1    
    37   18   19 1    
    38   18   67 1    
    39   18  143 1    
    40   19   20 am   BACKBONE|DICT|INTERRES
    41   19  144 1    
    42   20   21 2    
    43   20   22 1    
    44   22   23 1    
    45   22   24 1    
    46   22  145 1    
    47   23  146 1    
    48   23  147 1    
    49   23  148 1    
    50   24   25 am   BACKBONE|DICT|INTERRES
    51   24  149 1    
    52   25   26 2    
    53   25   27 1    
    54   27   28 1    
    55   27   29 1    
    56   27  150 1    
    57   28  151 1    
    58   28  152 1    
    59   28  153 1    
    60   29   30 am   BACKBONE|DICT|INTERRES
    61   29  154 1    
    62   30   31 2    
    63   30   32 1    
    64   32   33 1    
    65   32   34 1    
    66   32  155 1    
    67   33  156 1    
    68   33  157 1    
    69   33  158 1    
    70   34   35 am   BACKBONE|DICT|INTERRES
    71   34  159 1    
    72   35   36 2    
    73   35   37 1    
    74   37   38 1    
    75   37   39 1    
    76   37  160 1    
    77   38  161 1    
    78   38  162 1    
    79   38  163 1    
    80   39   40 am   BACKBONE|DICT|INTERRES
    81   39  164 1    
    82   40   41 2    
    83   40   42 1    
    84   42   43 1    
    85   42   44 1    
    86   42  165 1    
    87   43  166 1    
    88   43  167 1    
    89   43  168 1    
    90   44   45 am   BACKBONE|DICT|INTERRES
    91   44  169 1    
    92   45   46 2    
    93   45   47 1    
    94   47   48 1    
    95   47   49 1    
    96   47  170 1    
    97   48  171 1    
    98   48  172 1    
    99   48  173 1    
   100   49   50 am   BACKBONE|DICT|INTERRES
   101   49  174 1    
   102   50   51 2    
   103   50   52 1    
   104   52   53 1    
   105   52   54 1    
   106   52  175 1    
   107   53  176 1    
   108   53  177 1    
   109   53  178 1    
   110   54   55 am   BACKBONE|DICT|INTERRES
   111   54  179 1    
   112   55   56 2    
   113   55   57 1    
   114   57   58 1    
   115   57   59 1    
   116   57  180 1    
   117   58  181 1    
   118   58  182 1    
   119   58  183 1    
   120   59   60 am   BACKBONE|DICT|INTERRES
   121   59  184 1    
   122   60   61 2    
   123   60   62 1    
   124   62   63 1    
   125   62   64 1    
   126   62  185 1    
   127   63  186 1    
   128   63  187 1    
   129   63  188 1    
   130   64   65 am   BACKBONE|DICT|INTERRES
   131   64  189 1    
   132   65   66 2    
   133   67   68 2    
   134   67   69 am   BACKBONE|DICT|INTERRES
   135   69   70 1    
   136   69  190 1    
   137   70   71 1    
   138   70   72 1    
   139   70  191 1    
   140   71  192 1    
   141   71  193 1    
   142   71  194 1    
   143   72   73 2    
   144   72   74 am   BACKBONE|DICT|INTERRES
   145   74   75 1    
   146   74  195 1    
   147   75   76 1    
   148   75   77 1    
   149   75  196 1    
   150   76  197 1    
   151   76  198 1    
   152   76  199 1    
   153   77   78 2    
   154   77   79 am   BACKBONE|DICT|INTERRES
   155   79   80 1    
   156   79  200 1    
   157   80   81 1    
   158   80   82 1    
   159   80  201 1    
   160   81  202 1    
   161   81  203 1    
   162   81  204 1    
   163   82   83 2    
   164   82   84 am   BACKBONE|DICT|INTERRES
   165   84   85 1    
   166   84  205 1    
   167   85   86 1    
   168   85   87 1    
   169   85  206 1    
   170   86  207 1    
   171   86  208 1    
   172   86  209 1    
   173   87   88 2    
   174   87   89 am   BACKBONE|DICT|INTERRES
   175   89   90 1    
   176   89  210 1    
   177   90   91 1    
   178   90   92 1    
   179   90  211 1    
   180   91  212 1    
   181   91  213 1    
   182   91  214 1    
   183   92   93 2    
   184   92   94 am   BACKBONE|DICT|INTERRES
   185   94   95 1    
   186   94  215 1    
   187   95   96 1    
   188   95   97 1    
   189   95  216 1    
   190   96  217 1    
   191   96  218 1    
   192   96  219 1    
   193   97   98 2    
   194   97   99 am   BACKBONE|DICT|INTERRES
   195   99  100 1    
   196   99  220 1    
   197  100  101 1    
   198  100  102 1    
   199  100  221 1    
   200  101  222 1    
   201  101  223 1    
   202  101  224 1    
   203  102  103 2    
   204  102  104 am   BACKBONE|DICT|INTERRES
   205  104  105 1    
   206  104  225 1    
   207  105  106 1    
   208  105  107 1    
   209  105  226 1    
   210  106  227 1    
   211  106  228 1    
   212  106  229 1    
   213  107  108 2    
   214  107  109 am   BACKBONE|DICT|INTERRES
   215  109  110 1    
   216  109  230 1    
   217  110  111 1    
   218  110  112 1    
   219  110  231 1    
   220  111  232 1    
   221  111  233 1    
   222  111  234 1    
   223  112  113 2    
   224  112  114 am   BACKBONE|DICT|INTERRES
   225  114  115 1    
   226  114  235 1    
   227  115  116 1    
   228  115  117 1    
   229  115  236 1    
   230  116  237 1    
   231  116  238 1    
   232  116  239 1    
   233  117  118 2    
   234  117  119 am   BACKBONE|DICT|INTERRES
   235  119  120 1    
   236  119  240 1    
   237  120  121 1    
   238  120  124 1    
   239  120  241 1    
   240  121  122 am   BACKBONE|DICT|INTERRES
   241  121  123 2    
   242  122  242 1    
   243  122  243 1    
   244  124  125 1    
   245  124  244 1    
   246  124  245 1    
   247  125  126 1    
   248  126  246 1    
   249  126  247 1    
@<TRIPOS>SUBSTRUCTURE
     1 UNK         1 GROUP             0       ****    0 ROOT    
