@<TRIPOS>MOLECULE
3R540
247   249    1
SMALL
USER_CHARGES


@<TRIPOS>ATOM
      1 CA         -1.8820  -12.2016  -45.6259 C.3       0 UNK        -0.1800 
      2 C          -0.6653  -11.8882  -46.4857 C.2       0 UNK         0.5000 
      3 O          -0.6998  -10.9448  -47.2763 O.2       0 UNK        -0.5000 
      4 N           0.4040  -12.6790  -46.3400 N.am      1 UNK        -0.5000 
      5 CA          1.6850  -12.4920  -47.0281 C.3       1 UNK         0.1400 
      6 C6          2.5572  -13.7687  -46.9560 C.3       23 UNK        -0.0398 
      7 S7          1.8043  -15.1702  -47.8475 S.3       23 UNK        -0.2404 
      8 C8          3.1203  -15.5793  -49.0307 C.3       23 UNK        -0.0205 
      9 C9          2.6351  -16.5685  -50.0768 C.ar      23 UNK        -0.0193 
     10 C10         2.1594  -16.1047  -51.3076 C.ar      23 UNK        -0.1150 
     11 C11         1.7312  -17.0040  -52.2878 C.ar      23 UNK        -0.0193 
     12 C12         1.7984  -18.3749  -52.0324 C.ar      23 UNK        -0.1150 
     13 C13         2.2608  -18.8526  -50.8040 C.ar      23 UNK        -0.0193 
     14 C14         2.6761  -17.9442  -49.8253 C.ar      23 UNK        -0.1150 
     15 C15         2.3237  -20.3526  -50.5605 C.3       23 UNK        -0.0205 
     16 S16         0.6600  -21.0755  -50.4119 S.3       23 UNK        -0.2404 
     17 C17         0.2285  -20.6748  -48.6860 C.3       23 UNK        -0.0398 
     18 CA         -0.0808  -21.9547  -47.8722 C.3       11 UNK         0.1400 
     19 N           0.1291  -21.7710  -46.4343 N.am      11 UNK        -0.5000 
     20 C           0.0932  -22.7617  -45.5306 C.2       10 UNK         0.5000 
     21 O          -0.0632  -23.9478  -45.8212 O.2       10 UNK        -0.5000 
     22 CA          0.1990  -22.3574  -44.0496 C.3       10 UNK         0.1400 
     23 CB          1.6647  -22.1373  -43.6477 C.3       10 UNK        -0.1800 
     24 N          -0.5879  -21.1636  -43.7372 N.am      10 UNK        -0.5000 
     25 C          -1.9234  -21.0894  -43.8336 C.2       9 UNK         0.5000 
     26 O          -2.6387  -22.0434  -44.1370 O.2       9 UNK        -0.5000 
     27 CA         -2.5652  -19.7081  -43.6086 C.3       9 UNK         0.1400 
     28 CB         -2.7034  -19.4028  -42.1103 C.3       9 UNK        -0.1800 
     29 N          -1.8254  -18.6305  -44.2661 N.am      9 UNK        -0.5000 
     30 C          -1.6393  -18.5299  -45.5904 C.2       8 UNK         0.5000 
     31 O          -2.1106  -19.3149  -46.4124 O.2       8 UNK        -0.5000 
     32 CA         -0.7260  -17.3915  -46.0719 C.3       8 UNK         0.1400 
     33 CB         -1.4943  -16.0629  -46.1340 C.3       8 UNK        -0.1800 
     34 N           0.4564  -17.2545  -45.2204 N.am      8 UNK        -0.5000 
     35 C           1.4454  -18.1583  -45.1630 C.2       7 UNK         0.5000 
     36 O           1.4822  -19.1758  -45.8547 O.2       7 UNK        -0.5000 
     37 CA          2.5475  -17.9154  -44.1167 C.3       7 UNK         0.1400 
     38 CB          3.6285  -16.9721  -44.6621 C.3       7 UNK        -0.1800 
     39 N           2.0130  -17.3799  -42.8637 N.am      7 UNK        -0.5000 
     40 C           1.2503  -18.0856  -42.0152 C.2       6 UNK         0.5000 
     41 O           0.9547  -19.2667  -42.1889 O.2       6 UNK        -0.5000 
     42 CA          0.6853  -17.3424  -40.7900 C.3       6 UNK         0.1400 
     43 CB          1.6693  -17.4220  -39.6136 C.3       6 UNK        -0.1800 
     44 N           0.3708  -15.9392  -41.0579 N.am      6 UNK        -0.5000 
     45 C          -0.5108  -15.4998  -41.9679 C.2       5 UNK         0.5000 
     46 O          -1.2008  -16.2460  -42.6620 O.2       5 UNK        -0.5000 
     47 CA         -0.5983  -13.9738  -42.1704 C.3       5 UNK         0.1400 
     48 CB         -1.8031  -13.3943  -41.4160 C.3       5 UNK        -0.1800 
     49 N           0.6207  -13.2713  -41.7553 N.am      5 UNK        -0.5000 
     50 C           1.7969  -13.3722  -42.3870 C.2       4 UNK         0.5000 
     51 O           1.9608  -14.0156  -43.4275 O.2       4 UNK        -0.5000 
     52 CA          2.9995  -12.7162  -41.6979 C.3       4 UNK         0.1400 
     53 CB          3.5860  -13.6738  -40.6413 C.3       4 UNK        -0.1800 
     54 N           3.9979  -12.3993  -42.7115 N.am      4 UNK        -0.5000 
     55 C           5.0711  -11.6164  -42.5447 C.2       3 UNK         0.5000 
     56 O           5.3701  -11.0704  -41.4823 O.2       3 UNK        -0.5000 
     57 CA          5.9194  -11.3593  -43.7956 C.3       3 UNK         0.1400 
     58 CB          6.6149  -12.6436  -44.2867 C.3       3 UNK        -0.1800 
     59 N           5.0532  -10.8062  -44.8288 N.am      3 UNK        -0.5000 
     60 C           5.4276  -10.1286  -45.9160 C.2       2 UNK         0.5000 
     61 O           6.6038   -9.9039  -46.2072 O.2       2 UNK        -0.5000 
     62 CA          4.2805   -9.6379  -46.8316 C.3       2 UNK         0.1400 
     63 CB          4.7936   -8.9457  -48.1074 C.3       2 UNK        -0.1800 
     64 N           3.3681  -10.7202  -47.2195 N.am      2 UNK        -0.5000 
     65 C           2.4527  -11.2966  -46.4290 C.2       1 UNK         0.5000 
     66 O           2.2598  -10.9580  -45.2572 O.2       1 UNK        -0.5000 
     67 C          -1.4933  -22.4952  -48.1772 C.2       11 UNK         0.5000 
     68 O          -1.6222  -23.4690  -48.9181 O.2       11 UNK        -0.5000 
     69 N          -2.5193  -21.8926  -47.5587 N.am      12 UNK        -0.5000 
     70 CA         -3.9136  -22.3241  -47.6504 C.3       12 UNK         0.1400 
     71 CB         -4.8223  -21.3179  -46.9305 C.3       12 UNK        -0.1800 
     72 C          -4.1341  -23.7497  -47.1180 C.2       12 UNK         0.5000 
     73 O          -4.8300  -24.5287  -47.7669 O.2       12 UNK        -0.5000 
     74 N          -3.5095  -24.0853  -45.9815 N.am      13 UNK        -0.5000 
     75 CA         -3.5330  -25.4253  -45.3938 C.3       13 UNK         0.1400 
     76 CB         -2.8672  -25.3967  -44.0098 C.3       13 UNK        -0.1800 
     77 C          -2.8782  -26.4864  -46.2985 C.2       13 UNK         0.5000 
     78 O          -3.4348  -27.5738  -46.4529 O.2       13 UNK        -0.5000 
     79 N          -1.7319  -26.1430  -46.9026 N.am      14 UNK        -0.5000 
     80 CA         -1.0030  -26.9935  -47.8450 C.3       14 UNK         0.1400 
     81 CB          0.3914  -26.3992  -48.0964 C.3       14 UNK        -0.1800 
     82 C          -1.7554  -27.2016  -49.1733 C.2       14 UNK         0.5000 
     83 O          -1.7848  -28.3209  -49.6863 O.2       14 UNK        -0.5000 
     84 N          -2.3560  -26.1264  -49.6996 N.am      15 UNK        -0.5000 
     85 CA         -3.1216  -26.1224  -50.9482 C.3       15 UNK         0.1400 
     86 CB         -3.2606  -24.6722  -51.4317 C.3       15 UNK        -0.1800 
     87 C          -4.5165  -26.7668  -50.8298 C.2       15 UNK         0.5000 
     88 O          -5.0998  -27.1127  -51.8576 O.2       15 UNK        -0.5000 
     89 N          -5.0245  -26.8930  -49.5947 N.am      16 UNK        -0.5000 
     90 CA         -6.3945  -27.2667  -49.2279 C.3       16 UNK         0.1400 
     91 CB         -6.7482  -28.6928  -49.7007 C.3       16 UNK        -0.1800 
     92 C          -7.4056  -26.1899  -49.6766 C.2       16 UNK         0.5000 
     93 O          -8.4282  -26.5018  -50.2905 O.2       16 UNK        -0.5000 
     94 N          -7.0750  -24.9350  -49.3416 N.am      17 UNK        -0.5000 
     95 CA         -7.7804  -23.6914  -49.6531 C.3       17 UNK         0.1400 
     96 CB         -9.1545  -23.6567  -48.9463 C.3       17 UNK        -0.1800 
     97 C          -7.8431  -23.3996  -51.1693 C.2       17 UNK         0.5000 
     98 O          -6.9626  -23.8351  -51.9156 O.2       17 UNK        -0.5000 
     99 N          -8.8645  -22.6340  -51.5822 N.am      18 UNK        -0.5000 
    100 CA        -9.1390  -22.1625  -52.9439 C.3       18 UNK         0.1400 
    101 CB        -9.4401  -23.3581  -53.8764 C.3       18 UNK        -0.1800 
    102 C         -8.0410  -21.2274  -53.5009 C.2       18 UNK         0.5000 
    103 O         -7.1910  -20.7365  -52.7533 O.2       18 UNK        -0.5000 
    104 N         -8.0873  -20.9801  -54.8165 N.am      19 UNK        -0.5000 
    105 CA        -7.1278  -20.1491  -55.5499 C.3       19 UNK         0.1400 
    106 CB        -7.7282  -19.7902  -56.9179 C.3       19 UNK        -0.1800 
    107 C         -5.7445  -20.8089  -55.7251 C.2       19 UNK         0.5000 
    108 O         -4.7930  -20.1193  -56.0936 O.2       19 UNK        -0.5000 
    109 N         -5.6507  -22.1183  -55.4527 N.am      20 UNK        -0.5000 
    110 CA        -4.4455  -22.9414  -55.5703 C.3       20 UNK         0.1400 
    111 CB        -4.8186  -24.4022  -55.2717 C.3       20 UNK        -0.1800 
    112 C         -3.2673  -22.4886  -54.6837 C.2       20 UNK         0.5000 
    113 O         -2.1201  -22.7781  -55.0251 O.2       20 UNK        -0.5000 
    114 N         -3.5621  -21.7903  -53.5779 N.am      21 UNK        -0.5000 
    115 CA        -2.5663  -21.1789  -52.7013 C.3       21 UNK         0.1400 
    116 CB        -3.2138  -20.8311  -51.3495 C.3       21 UNK        -0.1800 
    117 C         -1.9195  -19.9461  -53.3592 C.2       21 UNK         0.5000 
    118 O         -0.7330  -19.9770  -53.6825 O.2       21 UNK        -0.5000 
    119 N         -2.7117  -18.8839  -53.5442 N.am      22 UNK        -0.5000 
    120 CA        -2.2570  -17.5652  -54.0098 C.3       22 UNK         0.1400 
    121 C         -3.4007  -16.7613  -54.6978 C.2       22 UNK         0.5000 
    122 N         -4.3425  -17.4084  -55.3724 N.am      22 UNK        -0.7600 
    123 O         -3.4564  -15.5371  -54.6239 O.2       22 UNK        -0.5000 
    124 C124       -1.5179  -16.7908  -52.8778 C.3       23 UNK        -0.0398 
    125 S125       -0.3279  -15.5451  -53.4887 S.3       23 UNK        -0.2404 
    126 C126        1.2156  -16.5043  -53.6306 C.3       23 UNK        -0.0205 
    127 H127       -2.7960  -12.0894  -46.2093 H         1 UNK         0.0600 
    128 H128       -1.9297  -11.5173  -44.7789 H         1 UNK         0.0600 
    129 H129       -1.8541  -13.2210  -45.2441 H         1 UNK         0.0600 
    130 H130        0.3961  -13.4092  -45.6436 H         1 UNK         0.3000 
    131 H131        1.4820  -12.2684  -48.0779 H         1 UNK         0.0600 
    132 H132        3.5518  -13.5828  -47.3651 H         1 UNK         0.0800 
    133 H133        2.7152  -14.0616  -45.9193 H         1 UNK         0.0800 
    134 H134        3.4706  -14.6685  -49.5190 H         1 UNK         0.0800 
    135 H135        3.9752  -15.9919  -48.4927 H         1 UNK         0.0800 
    136 H136        2.1185  -15.0424  -51.5043 H         1 UNK         0.1150 
    137 H137        1.4834  -19.0792  -52.7888 H         1 UNK         0.1150 
    138 H138        3.0371  -18.3043  -48.8719 H         1 UNK         0.1150 
    139 H139        2.8342  -20.8246  -51.4011 H         1 UNK         0.0800 
    140 H140        2.9165  -20.5874  -49.6750 H         1 UNK         0.0800 
    141 H141       -0.6062  -19.9718  -48.6740 H         1 UNK         0.0800 
    142 H142        1.0669  -20.1421  -48.2379 H         1 UNK         0.0800 
    143 H143        0.6302  -22.7265  -48.1764 H         1 UNK         0.0600 
    144 H144        0.3107  -20.8245  -46.1171 H         1 UNK         0.3000 
    145 H145       -0.1953  -23.1816  -43.4519 H         1 UNK         0.0600 
    146 H146        1.7539  -21.9368  -42.5800 H         1 UNK         0.0600 
    147 H147        2.2660  -23.0212  -43.8638 H         1 UNK         0.0600 
    148 H148        2.1086  -21.2982  -44.1837 H         1 UNK         0.0600 
    149 H149       -0.0710  -20.3509  -43.4140 H         1 UNK         0.3000 
    150 H150       -3.5666  -19.7320  -44.0430 H         1 UNK         0.0600 
    151 H151       -3.3137  -20.1586  -41.6145 H         1 UNK         0.0600 
    152 H152       -3.1820  -18.4371  -41.9459 H         1 UNK         0.0600 
    153 H153       -1.7350  -19.3859  -41.6113 H         1 UNK         0.0600 
    154 H154       -1.4410  -17.9060  -43.6669 H         1 UNK         0.3000 
    155 H155       -0.3901  -17.6345  -47.0826 H         1 UNK         0.0600 
    156 H156       -1.8567  -15.7532  -45.1543 H         1 UNK         0.0600 
    157 H157       -2.3616  -16.1481  -46.7897 H         1 UNK         0.0600 
    158 H158       -0.8702  -15.2642  -46.5309 H         1 UNK         0.0600 
    159 H159        0.4792  -16.4685  -44.5883 H         1 UNK         0.3000 
    160 H160        3.0180  -18.8777  -43.9042 H         1 UNK         0.0600 
    161 H161        3.2348  -15.9727  -44.8353 H         1 UNK         0.0600 
    162 H162        4.0270  -17.3375  -45.6095 H         1 UNK         0.0600 
    163 H163        4.4638  -16.8859  -43.9671 H         1 UNK         0.0600 
    164 H164        2.1852  -16.4026  -42.6744 H         1 UNK         0.3000 
    165 H165       -0.2407  -17.8402  -40.4967 H         1 UNK         0.0600 
    166 H166        1.2472  -16.9725  -38.7146 H         1 UNK         0.0600 
    167 H167        1.9088  -18.4591  -39.3748 H         1 UNK         0.0600 
    168 H168        2.6070  -16.9113  -39.8368 H         1 UNK         0.0600 
    169 H169        0.8832  -15.2533  -40.5252 H         1 UNK         0.3000 
    170 H170       -0.7456  -13.7972  -43.2367 H         1 UNK         0.0600 
    171 H171       -2.7284  -13.8829  -41.7248 H         1 UNK         0.0600 
    172 H172       -1.7056  -13.5264  -40.3378 H         1 UNK         0.0600 
    173 H173       -1.9180  -12.3289  -41.6164 H         1 UNK         0.0600 
    174 H174        0.5604  -12.7265  -40.9067 H         1 UNK         0.3000 
    175 H175        2.6718  -11.7900  -41.2214 H         1 UNK         0.0600 
    176 H176        3.9425  -14.6000  -41.0943 H         1 UNK         0.0600 
    177 H177        4.4220  -13.2212  -40.1085 H         1 UNK         0.0600 
    178 H178        2.8398  -13.9398  -39.8919 H         1 UNK         0.0600 
    179 H179        3.8013  -12.8117  -43.6144 H         1 UNK         0.3000 
    180 H180        6.6810  -10.6196  -43.5400 H         1 UNK         0.0600 
    181 H181        5.8964  -13.3916  -44.6240 H         1 UNK         0.0600 
    182 H182        7.2099  -13.0929  -43.4908 H         1 UNK         0.0600 
    183 H183        7.2907  -12.4349  -45.1161 H         1 UNK         0.0600 
    184 H184        4.0528  -10.8987  -44.6671 H         1 UNK         0.3000 
    185 H185        3.7147   -8.8982  -46.2612 H         1 UNK         0.0600 
    186 H186        5.4342   -8.0974  -47.8630 H         1 UNK         0.0600 
    187 H187        5.3733   -9.6279  -48.7305 H         1 UNK         0.0600 
    188 H188        3.9680   -8.5623  -48.7073 H         1 UNK         0.0600 
    189 H189        3.4890  -11.0727  -48.1582 H         1 UNK         0.3000 
    190 H190       -2.3349  -21.0692  -46.9898 H         1 UNK         0.3000 
    191 H191       -4.1902  -22.3275  -48.7053 H         1 UNK         0.0600 
    192 H192       -4.5853  -21.2471  -45.8690 H         1 UNK         0.0600 
    193 H193       -5.8703  -21.6078  -47.0152 H         1 UNK         0.0600 
    194 H194       -4.7237  -20.3213  -47.3614 H         1 UNK         0.0600 
    195 H195       -2.9993  -23.3695  -45.4707 H         1 UNK         0.3000 
    196 H196       -4.5791  -25.7075  -45.2583 H         1 UNK         0.0600 
    197 H197       -2.8970  -26.3813  -43.5416 H         1 UNK         0.0600 
    198 H198       -3.3778  -24.7029  -43.3417 H         1 UNK         0.0600 
    199 H199       -1.8221  -25.0932  -44.0706 H         1 UNK         0.0600 
    200 H200       -1.3168  -25.2409  -46.6891 H         1 UNK         0.3000 
    201 H201       -0.8727  -27.9734  -47.3811 H         1 UNK         0.0600 
    202 H202        0.9606  -26.3256  -47.1696 H         1 UNK         0.0600 
    203 H203        0.3321  -25.4006  -48.5307 H         1 UNK         0.0600 
    204 H204        0.9651  -27.0233  -48.7827 H         1 UNK         0.0600 
    205 H205       -2.2252  -25.2235  -49.2484 H         1 UNK         0.3000 
    206 H206       -2.5608  -26.6815  -51.6999 H         1 UNK         0.0600 
    207 H207       -2.2863  -24.2048  -51.5741 H         1 UNK         0.0600 
    208 H208       -3.7871  -24.6249  -52.3844 H         1 UNK         0.0600 
    209 H209       -3.8244  -24.0710  -50.7178 H         1 UNK         0.0600 
    210 H210       -4.4616  -26.5341  -48.8340 H         1 UNK         0.3000 
    211 H211       -6.4200  -27.2725  -48.1371 H         1 UNK         0.0600 
    212 H212       -6.8238  -28.7598  -50.7861 H         1 UNK         0.0600 
    213 H213       -7.7080  -29.0082  -49.2903 H         1 UNK         0.0600 
    214 H214       -6.0006  -29.4138  -49.3702 H         1 UNK         0.0600 
    215 H215       -6.1987  -24.8099  -48.8362 H         1 UNK         0.3000 
    216 H216       -7.1704  -22.8957  -49.2232 H         1 UNK         0.0600 
    217 H217       -9.5924  -22.6585  -48.9708 H         1 UNK         0.0600 
    218 H218       -9.0605  -23.9323  -47.8958 H         1 UNK         0.0600 
    219 H219       -9.8652  -24.3440  -49.4068 H         1 UNK         0.0600 
    220 H220       -9.5081  -22.3010  -50.8789 H         1 UNK         0.3000 
    221 H221      -10.0449  -21.5588  -52.8740 H         1 UNK         0.0600 
    222 H222       -8.5422  -23.9346  -54.1023 H         1 UNK         0.0600 
    223 H223      -10.1624  -24.0366  -53.4221 H         1 UNK         0.0600 
    224 H224       -9.8690  -23.0308  -54.8238 H         1 UNK         0.0600 
    225 H225       -8.8204  -21.4059  -55.3655 H         1 UNK         0.3000 
    226 H226       -6.9767  -19.2232  -54.9908 H         1 UNK         0.0600 
    227 H227       -8.6740  -19.2594  -56.8071 H         1 UNK         0.0600 
    228 H228       -7.0579  -19.1399  -57.4818 H         1 UNK         0.0600 
    229 H229       -7.9095  -20.6789  -57.5237 H         1 UNK         0.0600 
    230 H230       -6.4846  -22.5926  -55.1406 H         1 UNK         0.3000 
    231 H231       -4.1069  -22.8803  -56.6065 H         1 UNK         0.0600 
    232 H232       -3.9431  -25.0512  -55.3191 H         1 UNK         0.0600 
    233 H233       -5.5405  -24.7799  -55.9960 H         1 UNK         0.0600 
    234 H234       -5.2557  -24.5106  -54.2781 H         1 UNK         0.0600 
    235 H235       -4.5336  -21.6059  -53.3717 H         1 UNK         0.3000 
    236 H236       -1.7743  -21.9065  -52.5106 H         1 UNK         0.0600 
    237 H237       -4.0728  -20.1686  -51.4597 H         1 UNK         0.0600 
    238 H238       -3.5560  -21.7317  -50.8443 H         1 UNK         0.0600 
    239 H239       -2.4989  -20.3415  -50.6868 H         1 UNK         0.0600 
    240 H240       -3.6897  -18.9433  -53.2998 H         1 UNK         0.3000 
    241 H241       -1.5375  -17.7447  -54.8106 H         1 UNK         0.0600 
    242 H242       -5.0718  -16.8710  -55.8130 H         1 UNK         0.3800 
    243 H243       -4.3012  -18.4118  -55.5333 H         1 UNK         0.3800 
    244 H244       -2.2369  -16.2949  -52.2240 H         1 UNK         0.0800 
    245 H245       -0.9763  -17.4800  -52.2299 H         1 UNK         0.0800 
    246 H246        1.9794  -15.8749  -54.0890 H         1 UNK         0.0800 
    247 H247        1.0522  -17.3362  -54.3179 H         1 UNK         0.0800 
@<TRIPOS>BOND
     1    1    2 1    
     2    1  127 1    
     3    1  128 1    
     4    1  129 1    
     5    2    3 2    
     6    2    4 am   BACKBONE|DICT|INTERRES
     7    4    5 1    
     8    4  130 1    
     9    5    6 1    
    10    5   65 1    
    11    5  131 1    
    12    6    7 1    
    13    6  132 1    
    14    6  133 1    
    15    7    8 1    
    16    8    9 1    
    17    8  134 1    
    18    8  135 1    
    19    9   10 ar   
    20    9   14 ar   
    21   10   11 ar   
    22   10  136 1    
    23   11   12 ar   
    24   11  126 1    
    25   12   13 ar   
    26   12  137 1    
    27   13   14 ar   
    28   13   15 1    
    29   14  138 1    
    30   15   16 1    
    31   15  139 1    
    32   15  140 1    
    33   16   17 1    
    34   17   18 1    
    35   17  141 1    
    36   17  142 1    
    37   18   19 1    
    38   18   67 1    
    39   18  143 1    
    40   19   20 am   BACKBONE|DICT|INTERRES
    41   19  144 1    
    42   20   21 2    
    43   20   22 1    
    44   22   23 1    
    45   22   24 1    
    46   22  145 1    
    47   23  146 1    
    48   23  147 1    
    49   23  148 1    
    50   24   25 am   BACKBONE|DICT|INTERRES
    51   24  149 1    
    52   25   26 2    
    53   25   27 1    
    54   27   28 1    
    55   27   29 1    
    56   27  150 1    
    57   28  151 1    
    58   28  152 1    
    59   28  153 1    
    60   29   30 am   BACKBONE|DICT|INTERRES
    61   29  154 1    
    62   30   31 2    
    63   30   32 1    
    64   32   33 1    
    65   32   34 1    
    66   32  155 1    
    67   33  156 1    
    68   33  157 1    
    69   33  158 1    
    70   34   35 am   BACKBONE|DICT|INTERRES
    71   34  159 1    
    72   35   36 2    
    73   35   37 1    
    74   37   38 1    
    75   37   39 1    
    76   37  160 1    
    77   38  161 1    
    78   38  162 1    
    79   38  163 1    
    80   39   40 am   BACKBONE|DICT|INTERRES
    81   39  164 1    
    82   40   41 2    
    83   40   42 1    
    84   42   43 1    
    85   42   44 1    
    86   42  165 1    
    87   43  166 1    
    88   43  167 1    
    89   43  168 1    
    90   44   45 am   BACKBONE|DICT|INTERRES
    91   44  169 1    
    92   45   46 2    
    93   45   47 1    
    94   47   48 1    
    95   47   49 1    
    96   47  170 1    
    97   48  171 1    
    98   48  172 1    
    99   48  173 1    
   100   49   50 am   BACKBONE|DICT|INTERRES
   101   49  174 1    
   102   50   51 2    
   103   50   52 1    
   104   52   53 1    
   105   52   54 1    
   106   52  175 1    
   107   53  176 1    
   108   53  177 1    
   109   53  178 1    
   110   54   55 am   BACKBONE|DICT|INTERRES
   111   54  179 1    
   112   55   56 2    
   113   55   57 1    
   114   57   58 1    
   115   57   59 1    
   116   57  180 1    
   117   58  181 1    
   118   58  182 1    
   119   58  183 1    
   120   59   60 am   BACKBONE|DICT|INTERRES
   121   59  184 1    
   122   60   61 2    
   123   60   62 1    
   124   62   63 1    
   125   62   64 1    
   126   62  185 1    
   127   63  186 1    
   128   63  187 1    
   129   63  188 1    
   130   64   65 am   BACKBONE|DICT|INTERRES
   131   64  189 1    
   132   65   66 2    
   133   67   68 2    
   134   67   69 am   BACKBONE|DICT|INTERRES
   135   69   70 1    
   136   69  190 1    
   137   70   71 1    
   138   70   72 1    
   139   70  191 1    
   140   71  192 1    
   141   71  193 1    
   142   71  194 1    
   143   72   73 2    
   144   72   74 am   BACKBONE|DICT|INTERRES
   145   74   75 1    
   146   74  195 1    
   147   75   76 1    
   148   75   77 1    
   149   75  196 1    
   150   76  197 1    
   151   76  198 1    
   152   76  199 1    
   153   77   78 2    
   154   77   79 am   BACKBONE|DICT|INTERRES
   155   79   80 1    
   156   79  200 1    
   157   80   81 1    
   158   80   82 1    
   159   80  201 1    
   160   81  202 1    
   161   81  203 1    
   162   81  204 1    
   163   82   83 2    
   164   82   84 am   BACKBONE|DICT|INTERRES
   165   84   85 1    
   166   84  205 1    
   167   85   86 1    
   168   85   87 1    
   169   85  206 1    
   170   86  207 1    
   171   86  208 1    
   172   86  209 1    
   173   87   88 2    
   174   87   89 am   BACKBONE|DICT|INTERRES
   175   89   90 1    
   176   89  210 1    
   177   90   91 1    
   178   90   92 1    
   179   90  211 1    
   180   91  212 1    
   181   91  213 1    
   182   91  214 1    
   183   92   93 2    
   184   92   94 am   BACKBONE|DICT|INTERRES
   185   94   95 1    
   186   94  215 1    
   187   95   96 1    
   188   95   97 1    
   189   95  216 1    
   190   96  217 1    
   191   96  218 1    
   192   96  219 1    
   193   97   98 2    
   194   97   99 am   BACKBONE|DICT|INTERRES
   195   99  100 1    
   196   99  220 1    
   197  100  101 1    
   198  100  102 1    
   199  100  221 1    
   200  101  222 1    
   201  101  223 1    
   202  101  224 1    
   203  102  103 2    
   204  102  104 am   BACKBONE|DICT|INTERRES
   205  104  105 1    
   206  104  225 1    
   207  105  106 1    
   208  105  107 1    
   209  105  226 1    
   210  106  227 1    
   211  106  228 1    
   212  106  229 1    
   213  107  108 2    
   214  107  109 am   BACKBONE|DICT|INTERRES
   215  109  110 1    
   216  109  230 1    
   217  110  111 1    
   218  110  112 1    
   219  110  231 1    
   220  111  232 1    
   221  111  233 1    
   222  111  234 1    
   223  112  113 2    
   224  112  114 am   BACKBONE|DICT|INTERRES
   225  114  115 1    
   226  114  235 1    
   227  115  116 1    
   228  115  117 1    
   229  115  236 1    
   230  116  237 1    
   231  116  238 1    
   232  116  239 1    
   233  117  118 2    
   234  117  119 am   BACKBONE|DICT|INTERRES
   235  119  120 1    
   236  119  240 1    
   237  120  121 1    
   238  120  124 1    
   239  120  241 1    
   240  121  122 am   BACKBONE|DICT|INTERRES
   241  121  123 2    
   242  122  242 1    
   243  122  243 1    
   244  124  125 1    
   245  124  244 1    
   246  124  245 1    
   247  125  126 1    
   248  126  246 1    
   249  126  247 1    
@<TRIPOS>SUBSTRUCTURE
     1 UNK         1 GROUP             0       ****    0 ROOT    
