@<TRIPOS>MOLECULE
3R540
247   249    1
SMALL
USER_CHARGES


@<TRIPOS>ATOM
      1 CA          2.5964  -12.3459  -53.4658 C.3       0 UNK        -0.1800 
      2 C           2.1946  -13.3370  -52.3825 C.2       0 UNK         0.5000 
      3 O           2.1514  -14.5388  -52.6424 O.2       0 UNK        -0.5000 
      4 N           1.8979  -12.8322  -51.1783 N.am      1 UNK        -0.5000 
      5 CA          1.4872  -13.5976  -49.9944 C.3       1 UNK         0.1400 
      6 C6          1.1420  -12.6654  -48.8045 C.3       23 UNK        -0.0398 
      7 S7         -0.1423  -11.4316  -49.1994 S.3       23 UNK        -0.2404 
      8 C8         -1.5920  -12.1022  -48.3191 C.3       23 UNK        -0.0205 
      9 C9         -2.0671  -13.4399  -48.8740 C.ar      23 UNK        -0.0193 
     10 C10        -2.3173  -13.5908  -50.2422 C.ar      23 UNK        -0.1150 
     11 C11        -2.7776  -14.8064  -50.7535 C.ar      23 UNK        -0.0193 
     12 C12        -3.0124  -15.8709  -49.8806 C.ar      23 UNK        -0.1150 
     13 C13        -2.7776  -15.7336  -48.5111 C.ar      23 UNK        -0.0193 
     14 C14        -2.2994  -14.5176  -48.0123 C.ar      23 UNK        -0.1150 
     15 C15        -3.0887  -16.8891  -47.5749 C.3       23 UNK        -0.0205 
     16 S16        -1.5762  -17.6691  -46.9320 S.3       23 UNK        -0.2404 
     17 C17        -2.2652  -19.1855  -46.1869 C.3       23 UNK        -0.0398 
     18 CA         -1.3264  -20.3930  -46.4095 C.3       11 UNK         0.1400 
     19 N          -0.1354  -20.3332  -45.5566 N.am      11 UNK        -0.5000 
     20 C           0.9462  -21.1081  -45.7132 C.2       10 UNK         0.5000 
     21 O           1.0843  -21.9124  -46.6340 O.2       10 UNK        -0.5000 
     22 CA          2.0214  -21.0175  -44.6194 C.3       10 UNK         0.1400 
     23 CB          2.9733  -19.8420  -44.8696 C.3       10 UNK        -0.1800 
     24 N           1.4271  -20.9146  -43.2843 N.am      10 UNK        -0.5000 
     25 C           0.8908  -21.9641  -42.6465 C.2       9 UNK         0.5000 
     26 O           0.8191  -23.0882  -43.1405 O.2       9 UNK        -0.5000 
     27 CA          0.3225  -21.7419  -41.2328 C.3       9 UNK         0.1400 
     28 CB          1.4229  -21.9411  -40.1797 C.3       9 UNK        -0.1800 
     29 N          -0.3332  -20.4536  -41.0026 N.am      9 UNK        -0.5000 
     30 C          -1.3414  -19.9398  -41.7186 C.2       8 UNK         0.5000 
     31 O          -1.7501  -20.4304  -42.7738 O.2       8 UNK        -0.5000 
     32 CA         -2.0226  -18.6766  -41.1643 C.3       8 UNK         0.1400 
     33 CB         -1.2588  -17.9753  -40.0212 C.3       8 UNK        -0.1800 
     34 N          -2.2200  -17.7431  -42.2616 N.am      8 UNK        -0.5000 
     35 C          -3.2668  -16.9260  -42.4228 C.2       7 UNK         0.5000 
     36 O          -4.2161  -16.8714  -41.6391 O.2       7 UNK        -0.5000 
     37 CA         -3.2554  -16.0344  -43.6852 C.3       7 UNK         0.1400 
     38 CB         -3.9908  -14.6928  -43.4879 C.3       7 UNK        -0.1800 
     39 N          -1.9099  -15.8258  -44.2373 N.am      7 UNK        -0.5000 
     40 C          -0.8797  -15.2145  -43.6374 C.2       6 UNK         0.5000 
     41 O          -0.9448  -14.6344  -42.5514 O.2       6 UNK        -0.5000 
     42 CA          0.4658  -15.2936  -44.3748 C.3       6 UNK         0.1400 
     43 CB          0.8170  -13.9434  -45.0170 C.3       6 UNK        -0.1800 
     44 N           1.5406  -15.7021  -43.4735 N.am      6 UNK        -0.5000 
     45 C           1.6372  -16.9033  -42.8886 C.2       5 UNK         0.5000 
     46 O           0.8293  -17.8231  -43.0553 O.2       5 UNK        -0.5000 
     47 CA          2.8971  -17.1163  -42.0371 C.3       5 UNK         0.1400 
     48 CB          2.8697  -18.4289  -41.2240 C.3       5 UNK        -0.1800 
     49 N           4.0563  -17.0583  -42.9262 N.am      5 UNK        -0.5000 
     50 C           5.3406  -17.0168  -42.5459 C.2       4 UNK         0.5000 
     51 O           5.7115  -17.0434  -41.3718 O.2       4 UNK        -0.5000 
     52 CA          6.3986  -16.9017  -43.6639 C.3       4 UNK         0.1400 
     53 CB          6.8275  -18.2963  -44.1449 C.3       4 UNK        -0.1800 
     54 N           5.9443  -16.1192  -44.8145 N.am      4 UNK        -0.5000 
     55 C           5.6092  -14.8232  -44.7760 C.2       3 UNK         0.5000 
     56 O           5.7589  -14.1149  -43.7794 O.2       3 UNK        -0.5000 
     57 CA          4.9885  -14.1996  -46.0433 C.3       3 UNK         0.1400 
     58 CB          5.9888  -13.2443  -46.7129 C.3       3 UNK        -0.1800 
     59 N           4.4736  -15.1171  -47.0682 N.am      3 UNK        -0.5000 
     60 C           3.5949  -16.1175  -46.9219 C.2       2 UNK         0.5000 
     61 O           3.2293  -16.5528  -45.8314 O.2       2 UNK        -0.5000 
     62 CA          2.9918  -16.6782  -48.2283 C.3       2 UNK         0.1400 
     63 CB          2.1734  -17.9613  -48.0019 C.3       2 UNK        -0.1800 
     64 N           2.1302  -15.6806  -48.8682 N.am      2 UNK        -0.5000 
     65 C           2.5641  -14.6087  -49.5453 C.2       1 UNK         0.5000 
     66 O           3.7590  -14.3749  -49.7518 O.2       1 UNK        -0.5000 
     67 C          -2.0805  -21.7263  -46.2313 C.2       11 UNK         0.5000 
     68 O          -2.5767  -22.2722  -47.2178 O.2       11 UNK        -0.5000 
     69 N          -2.1226  -22.2440  -44.9951 N.am      12 UNK        -0.5000 
     70 CA         -2.6821  -23.5541  -44.6646 C.3       12 UNK         0.1400 
     71 CB         -2.7919  -23.7035  -43.1402 C.3       12 UNK        -0.1800 
     72 C          -1.8706  -24.7103  -45.2778 C.2       12 UNK         0.5000 
     73 O          -2.4660  -25.6229  -45.8495 O.2       12 UNK        -0.5000 
     74 N          -0.5338  -24.6336  -45.1906 N.am      13 UNK        -0.5000 
     75 CA          0.3988  -25.5949  -45.7869 C.3       13 UNK         0.1400 
     76 CB          1.8238  -25.3153  -45.2865 C.3       13 UNK        -0.1800 
     77 C           0.3561  -25.5972  -47.3260 C.2       13 UNK         0.5000 
     78 O           0.4169  -26.6668  -47.9332 O.2       13 UNK        -0.5000 
     79 N           0.2162  -24.4069  -47.9264 N.am      14 UNK        -0.5000 
     80 CA          0.0094  -24.2183  -49.3644 C.3       14 UNK         0.1400 
     81 CB          0.2369  -22.7374  -49.7103 C.3       14 UNK        -0.1800 
     82 C          -1.3876  -24.6628  -49.8444 C.2       14 UNK         0.5000 
     83 O          -1.5671  -24.8791  -51.0432 O.2       14 UNK        -0.5000 
     84 N          -2.3433  -24.7654  -48.9072 N.am      15 UNK        -0.5000 
     85 CA         -3.7734  -25.0182  -49.1003 C.3       15 UNK         0.1400 
     86 CB         -4.0164  -26.4455  -49.6315 C.3       15 UNK        -0.1800 
     87 C          -4.4245  -23.9255  -49.9695 C.2       15 UNK         0.5000 
     88 O          -5.1880  -24.2332  -50.8856 O.2       15 UNK        -0.5000 
     89 N          -4.0821  -22.6626  -49.6751 N.am      16 UNK        -0.5000 
     90 CA         -4.3626  -21.4809  -50.4955 C.3       16 UNK         0.1400 
     91 CB         -3.8001  -20.2371  -49.7888 C.3       16 UNK        -0.1800 
     92 C          -5.8470  -21.2790  -50.8548 C.2       16 UNK         0.5000 
     93 O          -6.1583  -20.8984  -51.9842 O.2       16 UNK        -0.5000 
     94 N          -6.7367  -21.5802  -49.8997 N.am      17 UNK        -0.5000 
     95 CA         -8.1892  -21.4994  -50.0615 C.3       17 UNK         0.1400 
     96 CB         -8.8525  -21.6113  -48.6804 C.3       17 UNK        -0.1800 
     97 C          -8.7632  -22.5599  -51.0223 C.2       17 UNK         0.5000 
     98 O          -9.7785  -22.2980  -51.6679 O.2       17 UNK        -0.5000 
     99 N          -8.1117  -23.7279  -51.1034 N.am      18 UNK        -0.5000 
    100 CA        -8.4803  -24.8178  -52.0072 C.3       18 UNK         0.1400 
    101 CB        -8.0934  -26.1618  -51.3702 C.3       18 UNK        -0.1800 
    102 C         -7.8077  -24.6527  -53.3797 C.2       18 UNK         0.5000 
    103 O         -8.4389  -24.9180  -54.4033 O.2       18 UNK        -0.5000 
    104 N         -6.5436  -24.2077  -53.3745 N.am      19 UNK        -0.5000 
    105 CA        -5.7331  -23.9523  -54.5648 C.3       19 UNK         0.1400 
    106 CB        -4.2729  -23.7397  -54.1345 C.3       19 UNK        -0.1800 
    107 C         -6.2213  -22.7480  -55.3909 C.2       19 UNK         0.5000 
    108 O         -6.0147  -22.7320  -56.6049 O.2       19 UNK        -0.5000 
    109 N         -6.8388  -21.7658  -54.7153 N.am      20 UNK        -0.5000 
    110 CA        -7.2856  -20.4703  -55.2402 C.3       20 UNK         0.1400 
    111 CB        -8.4129  -20.6456  -56.2791 C.3       20 UNK        -0.1800 
    112 C         -6.1058  -19.6144  -55.7498 C.2       20 UNK         0.5000 
    113 O         -6.2225  -18.9185  -56.7604 O.2       20 UNK        -0.5000 
    114 N         -4.9834  -19.6953  -55.0300 N.am      21 UNK        -0.5000 
    115 CA        -3.7240  -19.0128  -55.2916 C.3       21 UNK         0.1400 
    116 CB        -2.9129  -19.7962  -56.3383 C.3       21 UNK        -0.1800 
    117 C         -2.9680  -18.9151  -53.9611 C.2       21 UNK         0.5000 
    118 O         -3.2315  -19.7084  -53.0554 O.2       21 UNK        -0.5000 
    119 N         -2.0611  -17.9406  -53.8541 N.am      22 UNK        -0.5000 
    120 CA        -1.2964  -17.6604  -52.6304 C.3       22 UNK         0.1400 
    121 C         -0.3101  -18.7967  -52.2398 C.2       22 UNK         0.5000 
    122 N         -0.1619  -19.0834  -50.9527 N.am      22 UNK        -0.7600 
    123 O          0.3530  -19.3873  -53.0893 O.2       22 UNK        -0.5000 
    124 C124       -0.5532  -16.3030  -52.7091 C.3       23 UNK        -0.0398 
    125 S125       -1.5495  -14.8680  -53.2574 S.3       23 UNK        -0.2404 
    126 C126       -3.0605  -14.9556  -52.2410 C.3       23 UNK        -0.0205 
    127 H127        2.5858  -11.3186  -53.1008 H         1 UNK         0.0600 
    128 H128        1.9087  -12.4142  -54.3088 H         1 UNK         0.0600 
    129 H129        3.6011  -12.5694  -53.8246 H         1 UNK         0.0600 
    130 H130        1.9581  -11.8341  -51.0390 H         1 UNK         0.3000 
    131 H131        0.5925  -14.1593  -50.2695 H         1 UNK         0.0600 
    132 H132        2.0304  -12.1229  -48.4752 H         1 UNK         0.0800 
    133 H133        0.8125  -13.2496  -47.9447 H         1 UNK         0.0800 
    134 H134       -2.4101  -11.3856  -48.4008 H         1 UNK         0.0800 
    135 H135       -1.3586  -12.1788  -47.2563 H         1 UNK         0.0800 
    136 H136       -2.1518  -12.7599  -50.9138 H         1 UNK         0.1150 
    137 H137       -3.4050  -16.8025  -50.2612 H         1 UNK         0.1150 
    138 H138       -2.1303  -14.4069  -46.9507 H         1 UNK         0.1150 
    139 H139       -3.6893  -17.6360  -48.0958 H         1 UNK         0.0800 
    140 H140       -3.7022  -16.5285  -46.7500 H         1 UNK         0.0800 
    141 H141       -2.4436  -19.0192  -45.1234 H         1 UNK         0.0800 
    142 H142       -3.2440  -19.3770  -46.6298 H         1 UNK         0.0800 
    143 H143       -0.9893  -20.3714  -47.4483 H         1 UNK         0.0600 
    144 H144       -0.1788  -19.7240  -44.7518 H         1 UNK         0.3000 
    145 H145        2.6168  -21.9322  -44.6614 H         1 UNK         0.0600 
    146 H146        3.5212  -19.9821  -45.8011 H         1 UNK         0.0600 
    147 H147        3.7140  -19.7544  -44.0760 H         1 UNK         0.0600 
    148 H148        2.4352  -18.8982  -44.9422 H         1 UNK         0.0600 
    149 H149        1.3790  -19.9949  -42.8643 H         1 UNK         0.3000 
    150 H150       -0.4342  -22.5113  -41.0701 H         1 UNK         0.0600 
    151 H151        2.1953  -21.1752  -40.2528 H         1 UNK         0.0600 
    152 H152        1.9101  -22.9096  -40.3016 H         1 UNK         0.0600 
    153 H153        1.0142  -21.9113  -39.1696 H         1 UNK         0.0600 
    154 H154       -0.0595  -19.9650  -40.1632 H         1 UNK         0.3000 
    155 H155       -2.9928  -19.0014  -40.7835 H         1 UNK         0.0600 
    156 H156       -1.8046  -17.0984  -39.6724 H         1 UNK         0.0600 
    157 H157       -0.2734  -17.6377  -40.3424 H         1 UNK         0.0600 
    158 H158       -1.1324  -18.6306  -39.1588 H         1 UNK         0.0600 
    159 H159       -1.4751  -17.7323  -42.9465 H         1 UNK         0.3000 
    160 H160       -3.8079  -16.5980  -44.4366 H         1 UNK         0.0600 
    161 H161       -3.5516  -14.1022  -42.6838 H         1 UNK         0.0600 
    162 H162       -5.0394  -14.8551  -43.2362 H         1 UNK         0.0600 
    163 H163       -3.9664  -14.0932  -44.3979 H         1 UNK         0.0600 
    164 H164       -1.7361  -16.2841  -45.1234 H         1 UNK         0.3000 
    165 H165        0.3981  -16.0409  -45.1685 H         1 UNK         0.0600 
    166 H166        1.7201  -14.0177  -45.6215 H         1 UNK         0.0600 
    167 H167        0.0137  -13.6042  -45.6711 H         1 UNK         0.0600 
    168 H168        0.9761  -13.1691  -44.2656 H         1 UNK         0.0600 
    169 H169        2.2526  -15.0130  -43.2853 H         1 UNK         0.3000 
    170 H170        2.9526  -16.2820  -41.3352 H         1 UNK         0.0600 
    171 H171        3.6463  -18.4376  -40.4600 H         1 UNK         0.0600 
    172 H172        3.0271  -19.2999  -41.8558 H         1 UNK         0.0600 
    173 H173        1.9205  -18.5560  -40.7046 H         1 UNK         0.0600 
    174 H174        3.8369  -16.9885  -43.9173 H         1 UNK         0.3000 
    175 H175        7.2724  -16.4010  -43.2418 H         1 UNK         0.0600 
    176 H176        7.1772  -18.9071  -43.3115 H         1 UNK         0.0600 
    177 H177        6.0033  -18.8294  -44.6201 H         1 UNK         0.0600 
    178 H178        7.6441  -18.2314  -44.8640 H         1 UNK         0.0600 
    179 H179        5.7630  -16.6261  -45.6680 H         1 UNK         0.3000 
    180 H180        4.1381  -13.6061  -45.7038 H         1 UNK         0.0600 
    181 H181        6.8463  -13.7836  -47.1170 H         1 UNK         0.0600 
    182 H182        6.3680  -12.5072  -46.0037 H         1 UNK         0.0600 
    183 H183        5.5226  -12.6938  -47.5306 H         1 UNK         0.0600 
    184 H184        4.6542  -14.8318  -48.0255 H         1 UNK         0.3000 
    185 H185        3.8154  -16.9216  -48.9029 H         1 UNK         0.0600 
    186 H186        2.8111  -18.7654  -47.6380 H         1 UNK         0.0600 
    187 H187        1.3773  -17.8154  -47.2714 H         1 UNK         0.0600 
    188 H188        1.7191  -18.3097  -48.9286 H         1 UNK         0.0600 
    189 H189        1.1396  -15.7937  -48.7091 H         1 UNK         0.3000 
    190 H190       -1.7554  -21.6946  -44.2229 H         1 UNK         0.3000 
    191 H191       -3.6912  -23.5986  -45.0800 H         1 UNK         0.0600 
    192 H192       -3.3895  -22.9014  -42.7066 H         1 UNK         0.0600 
    193 H193       -3.2706  -24.6471  -42.8756 H         1 UNK         0.0600 
    194 H194       -1.8136  -23.6883  -42.6616 H         1 UNK         0.0600 
    195 H195       -0.1180  -23.8845  -44.6448 H         1 UNK         0.3000 
    196 H196        0.1111  -26.5921  -45.4475 H         1 UNK         0.0600 
    197 H197        2.5356  -26.0207  -45.7169 H         1 UNK         0.0600 
    198 H198        1.8865  -25.4126  -44.2026 H         1 UNK         0.0600 
    199 H199        2.1539  -24.3108  -45.5526 H         1 UNK         0.0600 
    200 H200        0.2613  -23.5642  -47.3610 H         1 UNK         0.3000 
    201 H201        0.7500  -24.8149  -49.9007 H         1 UNK         0.0600 
    202 H202        0.1256  -22.5627  -50.7813 H         1 UNK         0.0600 
    203 H203        1.2402  -22.4158  -49.4306 H         1 UNK         0.0600 
    204 H204       -0.4776  -22.0924  -49.1980 H         1 UNK         0.0600 
    205 H205       -2.0771  -24.5446  -47.9569 H         1 UNK         0.3000 
    206 H206       -4.2350  -24.9464  -48.1146 H         1 UNK         0.0600 
    207 H207       -3.6408  -26.5715  -50.6474 H         1 UNK         0.0600 
    208 H208       -5.0813  -26.6788  -49.6460 H         1 UNK         0.0600 
    209 H209       -3.5301  -27.1880  -48.9987 H         1 UNK         0.0600 
    210 H210       -3.4745  -22.5161  -48.8725 H         1 UNK         0.3000 
    211 H211       -3.8189  -21.6188  -51.4304 H         1 UNK         0.0600 
    212 H212       -4.2663  -20.0851  -48.8151 H         1 UNK         0.0600 
    213 H213       -3.9721  -19.3383  -50.3823 H         1 UNK         0.0600 
    214 H214       -2.7240  -20.3234  -49.6374 H         1 UNK         0.0600 
    215 H215       -6.3915  -21.9016  -49.0073 H         1 UNK         0.3000 
    216 H216       -8.4287  -20.5177  -50.4758 H         1 UNK         0.0600 
    217 H217       -9.9372  -21.5279  -48.7601 H         1 UNK         0.0600 
    218 H218       -8.6309  -22.5669  -48.2036 H         1 UNK         0.0600 
    219 H219       -8.5151  -20.8165  -48.0149 H         1 UNK         0.0600 
    220 H220       -7.2411  -23.8384  -50.5985 H         1 UNK         0.3000 
    221 H221       -9.5620  -24.8184  -52.1581 H         1 UNK         0.0600 
    222 H222       -7.0179  -26.2406  -51.2098 H         1 UNK         0.0600 
    223 H223       -8.5867  -26.2982  -50.4078 H         1 UNK         0.0600 
    224 H224       -8.3904  -26.9944  -52.0092 H         1 UNK         0.0600 
    225 H225       -6.0805  -24.0800  -52.4773 H         1 UNK         0.3000 
    226 H226       -5.7793  -24.8370  -55.2031 H         1 UNK         0.0600 
    227 H227       -3.6264  -23.5935  -55.0007 H         1 UNK         0.0600 
    228 H228       -4.1671  -22.8623  -53.4955 H         1 UNK         0.0600 
    229 H229       -3.8919  -24.6004  -53.5840 H         1 UNK         0.0600 
    230 H230       -6.8844  -21.8526  -53.7062 H         1 UNK         0.3000 
    231 H231       -7.7051  -19.9304  -54.3901 H         1 UNK         0.0600 
    232 H232       -8.0540  -21.1144  -57.1955 H         1 UNK         0.0600 
    233 H233       -8.8422  -19.6815  -56.5536 H         1 UNK         0.0600 
    234 H234       -9.2215  -21.2594  -55.8821 H         1 UNK         0.0600 
    235 H235       -4.9841  -20.2342  -54.1704 H         1 UNK         0.3000 
    236 H236       -3.9261  -18.0032  -55.6554 H         1 UNK         0.0600 
    237 H237       -2.7042  -20.8129  -56.0024 H         1 UNK         0.0600 
    238 H238       -3.4474  -19.8611  -57.2862 H         1 UNK         0.0600 
    239 H239       -1.9564  -19.3114  -56.5368 H         1 UNK         0.0600 
    240 H240       -1.8773  -17.3363  -54.6413 H         1 UNK         0.3000 
    241 H241       -2.0258  -17.5968  -51.8255 H         1 UNK         0.0600 
    242 H242       -0.6854  -18.6059  -50.2376 H         1 UNK         0.3800 
    243 H243        0.4884  -19.8077  -50.6956 H         1 UNK         0.3800 
    244 H244        0.2918  -16.3830  -53.3952 H         1 UNK         0.0800 
    245 H245       -0.1243  -16.0570  -51.7364 H         1 UNK         0.0800 
    246 H246       -3.7305  -14.1524  -52.5504 H         1 UNK         0.0800 
    247 H247       -3.5936  -15.8836  -52.4510 H         1 UNK         0.0800 
@<TRIPOS>BOND
     1    1    2 1    
     2    1  127 1    
     3    1  128 1    
     4    1  129 1    
     5    2    3 2    
     6    2    4 am   BACKBONE|DICT|INTERRES
     7    4    5 1    
     8    4  130 1    
     9    5    6 1    
    10    5   65 1    
    11    5  131 1    
    12    6    7 1    
    13    6  132 1    
    14    6  133 1    
    15    7    8 1    
    16    8    9 1    
    17    8  134 1    
    18    8  135 1    
    19    9   10 ar   
    20    9   14 ar   
    21   10   11 ar   
    22   10  136 1    
    23   11   12 ar   
    24   11  126 1    
    25   12   13 ar   
    26   12  137 1    
    27   13   14 ar   
    28   13   15 1    
    29   14  138 1    
    30   15   16 1    
    31   15  139 1    
    32   15  140 1    
    33   16   17 1    
    34   17   18 1    
    35   17  141 1    
    36   17  142 1    
    37   18   19 1    
    38   18   67 1    
    39   18  143 1    
    40   19   20 am   BACKBONE|DICT|INTERRES
    41   19  144 1    
    42   20   21 2    
    43   20   22 1    
    44   22   23 1    
    45   22   24 1    
    46   22  145 1    
    47   23  146 1    
    48   23  147 1    
    49   23  148 1    
    50   24   25 am   BACKBONE|DICT|INTERRES
    51   24  149 1    
    52   25   26 2    
    53   25   27 1    
    54   27   28 1    
    55   27   29 1    
    56   27  150 1    
    57   28  151 1    
    58   28  152 1    
    59   28  153 1    
    60   29   30 am   BACKBONE|DICT|INTERRES
    61   29  154 1    
    62   30   31 2    
    63   30   32 1    
    64   32   33 1    
    65   32   34 1    
    66   32  155 1    
    67   33  156 1    
    68   33  157 1    
    69   33  158 1    
    70   34   35 am   BACKBONE|DICT|INTERRES
    71   34  159 1    
    72   35   36 2    
    73   35   37 1    
    74   37   38 1    
    75   37   39 1    
    76   37  160 1    
    77   38  161 1    
    78   38  162 1    
    79   38  163 1    
    80   39   40 am   BACKBONE|DICT|INTERRES
    81   39  164 1    
    82   40   41 2    
    83   40   42 1    
    84   42   43 1    
    85   42   44 1    
    86   42  165 1    
    87   43  166 1    
    88   43  167 1    
    89   43  168 1    
    90   44   45 am   BACKBONE|DICT|INTERRES
    91   44  169 1    
    92   45   46 2    
    93   45   47 1    
    94   47   48 1    
    95   47   49 1    
    96   47  170 1    
    97   48  171 1    
    98   48  172 1    
    99   48  173 1    
   100   49   50 am   BACKBONE|DICT|INTERRES
   101   49  174 1    
   102   50   51 2    
   103   50   52 1    
   104   52   53 1    
   105   52   54 1    
   106   52  175 1    
   107   53  176 1    
   108   53  177 1    
   109   53  178 1    
   110   54   55 am   BACKBONE|DICT|INTERRES
   111   54  179 1    
   112   55   56 2    
   113   55   57 1    
   114   57   58 1    
   115   57   59 1    
   116   57  180 1    
   117   58  181 1    
   118   58  182 1    
   119   58  183 1    
   120   59   60 am   BACKBONE|DICT|INTERRES
   121   59  184 1    
   122   60   61 2    
   123   60   62 1    
   124   62   63 1    
   125   62   64 1    
   126   62  185 1    
   127   63  186 1    
   128   63  187 1    
   129   63  188 1    
   130   64   65 am   BACKBONE|DICT|INTERRES
   131   64  189 1    
   132   65   66 2    
   133   67   68 2    
   134   67   69 am   BACKBONE|DICT|INTERRES
   135   69   70 1    
   136   69  190 1    
   137   70   71 1    
   138   70   72 1    
   139   70  191 1    
   140   71  192 1    
   141   71  193 1    
   142   71  194 1    
   143   72   73 2    
   144   72   74 am   BACKBONE|DICT|INTERRES
   145   74   75 1    
   146   74  195 1    
   147   75   76 1    
   148   75   77 1    
   149   75  196 1    
   150   76  197 1    
   151   76  198 1    
   152   76  199 1    
   153   77   78 2    
   154   77   79 am   BACKBONE|DICT|INTERRES
   155   79   80 1    
   156   79  200 1    
   157   80   81 1    
   158   80   82 1    
   159   80  201 1    
   160   81  202 1    
   161   81  203 1    
   162   81  204 1    
   163   82   83 2    
   164   82   84 am   BACKBONE|DICT|INTERRES
   165   84   85 1    
   166   84  205 1    
   167   85   86 1    
   168   85   87 1    
   169   85  206 1    
   170   86  207 1    
   171   86  208 1    
   172   86  209 1    
   173   87   88 2    
   174   87   89 am   BACKBONE|DICT|INTERRES
   175   89   90 1    
   176   89  210 1    
   177   90   91 1    
   178   90   92 1    
   179   90  211 1    
   180   91  212 1    
   181   91  213 1    
   182   91  214 1    
   183   92   93 2    
   184   92   94 am   BACKBONE|DICT|INTERRES
   185   94   95 1    
   186   94  215 1    
   187   95   96 1    
   188   95   97 1    
   189   95  216 1    
   190   96  217 1    
   191   96  218 1    
   192   96  219 1    
   193   97   98 2    
   194   97   99 am   BACKBONE|DICT|INTERRES
   195   99  100 1    
   196   99  220 1    
   197  100  101 1    
   198  100  102 1    
   199  100  221 1    
   200  101  222 1    
   201  101  223 1    
   202  101  224 1    
   203  102  103 2    
   204  102  104 am   BACKBONE|DICT|INTERRES
   205  104  105 1    
   206  104  225 1    
   207  105  106 1    
   208  105  107 1    
   209  105  226 1    
   210  106  227 1    
   211  106  228 1    
   212  106  229 1    
   213  107  108 2    
   214  107  109 am   BACKBONE|DICT|INTERRES
   215  109  110 1    
   216  109  230 1    
   217  110  111 1    
   218  110  112 1    
   219  110  231 1    
   220  111  232 1    
   221  111  233 1    
   222  111  234 1    
   223  112  113 2    
   224  112  114 am   BACKBONE|DICT|INTERRES
   225  114  115 1    
   226  114  235 1    
   227  115  116 1    
   228  115  117 1    
   229  115  236 1    
   230  116  237 1    
   231  116  238 1    
   232  116  239 1    
   233  117  118 2    
   234  117  119 am   BACKBONE|DICT|INTERRES
   235  119  120 1    
   236  119  240 1    
   237  120  121 1    
   238  120  124 1    
   239  120  241 1    
   240  121  122 am   BACKBONE|DICT|INTERRES
   241  121  123 2    
   242  122  242 1    
   243  122  243 1    
   244  124  125 1    
   245  124  244 1    
   246  124  245 1    
   247  125  126 1    
   248  126  246 1    
   249  126  247 1    
@<TRIPOS>SUBSTRUCTURE
     1 UNK         1 GROUP             0       ****    0 ROOT    
