@<TRIPOS>MOLECULE
3R540
247   249    1
SMALL
USER_CHARGES


@<TRIPOS>ATOM
      1 CA          2.6545  -13.6005  -55.7448 C.3       0 UNK        -0.1800 
      2 C           1.9117  -13.9066  -54.4512 C.2       0 UNK         0.5000 
      3 O           0.7525  -13.5176  -54.3142 O.2       0 UNK        -0.5000 
      4 N           2.5791  -14.6110  -53.5261 N.am      1 UNK        -0.5000 
      5 CA          2.1344  -14.9821  -52.1774 C.3       1 UNK         0.1400 
      6 C6          0.7487  -15.6838  -52.1358 C.3       23 UNK        -0.0398 
      7 S7          0.4497  -16.5435  -50.5543 S.3       23 UNK        -0.2404 
      8 C8          0.3645  -18.2867  -51.0702 C.3       23 UNK        -0.0205 
      9 C9          0.2091  -19.1895  -49.8582 C.ar      23 UNK        -0.0193 
     10 C10        -0.9858  -19.1802  -49.1323 C.ar      23 UNK        -0.1150 
     11 C11        -1.1103  -19.9429  -47.9702 C.ar      23 UNK        -0.0193 
     12 C12        -0.0500  -20.7533  -47.5660 C.ar      23 UNK        -0.1150 
     13 C13         1.1489  -20.7924  -48.2874 C.ar      23 UNK        -0.0193 
     14 C14         1.2680  -20.0009  -49.4355 C.ar      23 UNK        -0.1150 
     15 C15         2.3192  -21.6822  -47.8654 C.3       23 UNK        -0.0205 
     16 S16         2.4546  -21.9451  -46.0613 S.3       23 UNK        -0.2404 
     17 C17         2.0177  -23.7152  -45.8564 C.3       23 UNK        -0.0398 
     18 CA          0.5073  -24.0328  -45.6406 C.3       11 UNK         0.1400 
     19 N          -0.1263  -23.0460  -44.7566 N.am      11 UNK        -0.5000 
     20 C          -1.2574  -23.1653  -44.0522 C.2       10 UNK         0.5000 
     21 O          -1.9487  -24.1852  -44.0524 O.2       10 UNK        -0.5000 
     22 CA         -1.7004  -21.9232  -43.2489 C.3       10 UNK         0.1400 
     23 CB         -2.6012  -22.2747  -42.0479 C.3       10 UNK        -0.1800 
     24 N          -0.5931  -21.0556  -42.8306 N.am      10 UNK        -0.5000 
     25 C           0.4241  -21.3585  -42.0091 C.2       9 UNK         0.5000 
     26 O           0.6110  -22.4719  -41.5175 O.2       9 UNK        -0.5000 
     27 CA          1.3837  -20.2045  -41.6592 C.3       9 UNK         0.1400 
     28 CB          2.4316  -20.0071  -42.7652 C.3       9 UNK        -0.1800 
     29 N           0.6751  -18.9446  -41.4234 N.am      9 UNK        -0.5000 
     30 C          -0.1230  -18.7084  -40.3714 C.2       8 UNK         0.5000 
     31 O          -0.2809  -19.4999  -39.4411 O.2       8 UNK        -0.5000 
     32 CA         -0.8868  -17.3721  -40.3597 C.3       8 UNK         0.1400 
     33 CB         -0.0524  -16.2649  -39.6973 C.3       8 UNK        -0.1800 
     34 N          -1.2802  -16.9532  -41.7048 N.am      8 UNK        -0.5000 
     35 C          -2.3186  -17.4679  -42.3796 C.2       7 UNK         0.5000 
     36 O          -3.0841  -18.3137  -41.9166 O.2       7 UNK        -0.5000 
     37 CA         -2.5333  -16.9608  -43.8190 C.3       7 UNK         0.1400 
     38 CB         -3.4034  -15.6942  -43.7963 C.3       7 UNK        -0.1800 
     39 N          -1.2844  -16.6805  -44.5327 N.am      7 UNK        -0.5000 
     40 C          -0.3238  -17.5831  -44.7816 C.2       6 UNK         0.5000 
     41 O          -0.4131  -18.7712  -44.4759 O.2       6 UNK        -0.5000 
     42 CA          0.9846  -17.0662  -45.4060 C.3       6 UNK         0.1400 
     43 CB          0.8938  -17.0258  -46.9331 C.3       6 UNK        -0.1800 
     44 N           1.3731  -15.7465  -44.9177 N.am      6 UNK        -0.5000 
     45 C           1.6871  -15.4581  -43.6486 C.2       5 UNK         0.5000 
     46 O           1.6381  -16.2770  -42.7304 O.2       5 UNK        -0.5000 
     47 CA          2.1008  -14.0068  -43.3620 C.3       5 UNK         0.1400 
     48 CB          3.5748  -13.7806  -43.7323 C.3       5 UNK        -0.1800 
     49 N           1.2649  -13.0696  -44.1108 N.am      5 UNK        -0.5000 
     50 C           0.0936  -12.5898  -43.6737 C.2       4 UNK         0.5000 
     51 O          -0.3722  -12.8320  -42.5597 O.2       4 UNK        -0.5000 
     52 CA         -0.7013  -11.6976  -44.6481 C.3       4 UNK         0.1400 
     53 CB         -0.2911  -10.2260  -44.4872 C.3       4 UNK        -0.1800 
     54 N          -0.5591  -12.0844  -46.0541 N.am      4 UNK        -0.5000 
     55 C          -0.9897  -13.2445  -46.5677 C.2       3 UNK         0.5000 
     56 O          -1.5295  -14.1275  -45.9036 O.2       3 UNK        -0.5000 
     57 CA         -0.7449  -13.4773  -48.0693 C.3       3 UNK         0.1400 
     58 CB         -1.8385  -12.7946  -48.9046 C.3       3 UNK        -0.1800 
     59 N           0.5674  -13.0626  -48.5761 N.am      3 UNK        -0.5000 
     60 C           1.7679  -13.3256  -48.0414 C.2       2 UNK         0.5000 
     61 O           1.9347  -13.8105  -46.9213 O.2       2 UNK        -0.5000 
     62 CA          2.9800  -13.0528  -48.9538 C.3       2 UNK         0.1400 
     63 CB          4.3217  -13.2279  -48.2196 C.3       2 UNK        -0.1800 
     64 N           2.9439  -13.9644  -50.0992 N.am      2 UNK        -0.5000 
     65 C           2.2097  -13.7836  -51.2049 C.2       1 UNK         0.5000 
     66 O           1.5754  -12.7501  -51.4284 O.2       1 UNK        -0.5000 
     67 C          -0.2731  -24.2889  -46.9584 C.2       11 UNK         0.5000 
     68 O           0.3246  -24.3547  -48.0337 O.2       11 UNK        -0.5000 
     69 N          -1.5987  -24.4591  -46.8598 N.am      12 UNK        -0.5000 
     70 CA         -2.5409  -24.6291  -47.9711 C.3       12 UNK         0.1400 
     71 CB         -3.9610  -24.7858  -47.4063 C.3       12 UNK        -0.1800 
     72 C          -2.2130  -25.8065  -48.9076 C.2       12 UNK         0.5000 
     73 O          -2.4098  -25.6945  -50.1179 O.2       12 UNK        -0.5000 
     74 N          -1.6848  -26.8973  -48.3358 N.am      13 UNK        -0.5000 
     75 CA         -1.2521  -28.0934  -49.0601 C.3       13 UNK         0.1400 
     76 CB         -0.9508  -29.2100  -48.0491 C.3       13 UNK        -0.1800 
     77 C          -0.0349  -27.8492  -49.9735 C.2       13 UNK         0.5000 
     78 O           0.0792  -28.5029  -51.0109 O.2       13 UNK        -0.5000 
     79 N           0.8413  -26.9131  -49.5830 N.am      14 UNK        -0.5000 
     80 CA          1.9831  -26.4744  -50.3845 C.3       14 UNK         0.1400 
     81 CB          3.0956  -25.9633  -49.4562 C.3       14 UNK        -0.1800 
     82 C           1.5716  -25.3850  -51.3889 C.2       14 UNK         0.5000 
     83 O           2.0945  -25.3602  -52.5035 O.2       14 UNK        -0.5000 
     84 N           0.6430  -24.5101  -50.9763 N.am      15 UNK        -0.5000 
     85 CA          0.1045  -23.4143  -51.7802 C.3       15 UNK         0.1400 
     86 CB         -0.7817  -22.5296  -50.8933 C.3       15 UNK        -0.1800 
     87 C          -0.7075  -23.9002  -52.9915 C.2       15 UNK         0.5000 
     88 O          -0.5708  -23.3365  -54.0780 O.2       15 UNK        -0.5000 
     89 N          -1.5637  -24.9073  -52.7628 N.am      16 UNK        -0.5000 
     90 CA         -2.5297  -25.5299  -53.6759 C.3       16 UNK         0.1400 
     91 CB         -1.8337  -26.1711  -54.8916 C.3       16 UNK        -0.1800 
     92 C          -3.6732  -24.5874  -54.1021 C.2       16 UNK         0.5000 
     93 O          -4.8416  -24.9251  -53.9103 O.2       16 UNK        -0.5000 
     94 N          -3.3217  -23.4181  -54.6506 N.am      17 UNK        -0.5000 
     95 CA         -4.2469  -22.3495  -55.0302 C.3       17 UNK         0.1400 
     96 CB         -3.5535  -21.4296  -56.0466 C.3       17 UNK        -0.1800 
     97 C          -4.7381  -21.5329  -53.8196 C.2       17 UNK         0.5000 
     98 O          -5.8138  -20.9395  -53.8893 O.2       17 UNK        -0.5000 
     99 N          -3.9305  -21.4979  -52.7473 N.am      18 UNK        -0.5000 
    100 CA        -4.1684  -20.8731  -51.4359 C.3       18 UNK         0.1400 
    101 CB        -5.3984  -21.5014  -50.7572 C.3       18 UNK        -0.1800 
    102 C         -4.2449  -19.3304  -51.4208 C.2       18 UNK         0.5000 
    103 O         -4.3081  -18.7515  -50.3354 O.2       18 UNK        -0.5000 
    104 N         -4.2458  -18.6879  -52.5996 N.am      19 UNK        -0.5000 
    105 CA        -4.2090  -17.2378  -52.8531 C.3       19 UNK         0.1400 
    106 CB        -2.8122  -16.6860  -52.5036 C.3       19 UNK        -0.1800 
    107 C         -5.3359  -16.4209  -52.1781 C.2       19 UNK         0.5000 
    108 O         -5.1856  -15.2123  -51.9948 O.2       19 UNK        -0.5000 
    109 N         -6.4255  -17.1011  -51.7884 N.am      20 UNK        -0.5000 
    110 CA        -7.5238  -16.6248  -50.9358 C.3       20 UNK         0.1400 
    111 CB        -8.3120  -15.4904  -51.6230 C.3       20 UNK        -0.1800 
    112 C         -7.0872  -16.2546  -49.4963 C.2       20 UNK         0.5000 
    113 O         -7.8650  -15.6379  -48.7667 O.2       20 UNK        -0.5000 
    114 N         -5.8703  -16.6524  -49.1006 N.am      21 UNK        -0.5000 
    115 CA        -5.2900  -16.4270  -47.7782 C.3       21 UNK         0.1400 
    116 CB        -3.7762  -16.2115  -47.9403 C.3       21 UNK        -0.1800 
    117 C         -5.5856  -17.5954  -46.8209 C.2       21 UNK         0.5000 
    118 O         -5.6553  -17.3824  -45.6109 O.2       21 UNK        -0.5000 
    119 N         -5.7709  -18.7997  -47.3733 N.am      22 UNK        -0.5000 
    120 CA        -6.0727  -20.0371  -46.6347 C.3       22 UNK         0.1400 
    121 C         -7.1017  -20.9568  -47.3534 C.2       22 UNK         0.5000 
    122 N         -7.8546  -20.4625  -48.3296 N.am      22 UNK        -0.7600 
    123 O         -7.2467  -22.1263  -47.0091 O.2       22 UNK        -0.5000 
    124 C124       -4.7904  -20.7699  -46.1525 C.3       23 UNK        -0.0398 
    125 S125       -3.5746  -21.1147  -47.4744 S.3       23 UNK        -0.2404 
    126 C126       -2.3476  -19.8365  -47.0982 C.3       23 UNK        -0.0205 
    127 H127        2.1183  -14.0231  -56.5945 H         1 UNK         0.0600 
    128 H128        2.7274  -12.5225  -55.8888 H         1 UNK         0.0600 
    129 H129        3.6643  -14.0116  -55.7421 H         1 UNK         0.0600 
    130 H130        3.5317  -14.8764  -53.7347 H         1 UNK         0.3000 
    131 H131        2.8718  -15.7172  -51.8499 H         1 UNK         0.0600 
    132 H132        0.6720  -16.4037  -52.9514 H         1 UNK         0.0800 
    133 H133       -0.0603  -14.9683  -52.2910 H         1 UNK         0.0800 
    134 H134        1.2639  -18.5445  -51.6313 H         1 UNK         0.0800 
    135 H135       -0.4805  -18.4366  -51.7422 H         1 UNK         0.0800 
    136 H136       -1.7970  -18.5400  -49.4467 H         1 UNK         0.1150 
    137 H137       -0.1657  -21.3359  -46.6699 H         1 UNK         0.1150 
    138 H138        2.1912  -20.0102  -49.9974 H         1 UNK         0.1150 
    139 H139        2.2448  -22.6351  -48.3883 H         1 UNK         0.0800 
    140 H140        3.2543  -21.2291  -48.1976 H         1 UNK         0.0800 
    141 H141        2.5546  -24.0439  -44.9657 H         1 UNK         0.0800 
    142 H142        2.4549  -24.3040  -46.6633 H         1 UNK         0.0800 
    143 H143        0.4683  -24.9893  -45.1154 H         1 UNK         0.0600 
    144 H144        0.3675  -22.1669  -44.6902 H         1 UNK         0.3000 
    145 H145       -2.2986  -21.3252  -43.9375 H         1 UNK         0.0600 
    146 H146       -2.9142  -21.3755  -41.5165 H         1 UNK         0.0600 
    147 H147       -3.5062  -22.7892  -42.3730 H         1 UNK         0.0600 
    148 H148       -2.0918  -22.9252  -41.3366 H         1 UNK         0.0600 
    149 H149       -0.5979  -20.1241  -43.2432 H         1 UNK         0.3000 
    150 H150        1.9096  -20.4730  -40.7405 H         1 UNK         0.0600 
    151 H151        3.0178  -20.9152  -42.9114 H         1 UNK         0.0600 
    152 H152        3.1271  -19.2064  -42.5131 H         1 UNK         0.0600 
    153 H153        1.9711  -19.7611  -43.7217 H         1 UNK         0.0600 
    154 H154        0.7808  -18.2191  -42.1219 H         1 UNK         0.3000 
    155 H155       -1.7899  -17.5105  -39.7612 H         1 UNK         0.0600 
    156 H156        0.8870  -16.0922  -40.2221 H         1 UNK         0.0600 
    157 H157        0.1938  -16.5288  -38.6681 H         1 UNK         0.0600 
    158 H158       -0.5988  -15.3219  -39.6694 H         1 UNK         0.0600 
    159 H159       -0.6742  -16.2918  -42.1705 H         1 UNK         0.3000 
    160 H160       -3.0659  -17.7380  -44.3710 H         1 UNK         0.0600 
    161 H161       -3.6761  -15.3798  -44.8026 H         1 UNK         0.0600 
    162 H162       -2.8896  -14.8614  -43.3140 H         1 UNK         0.0600 
    163 H163       -4.3340  -15.8685  -43.2547 H         1 UNK         0.0600 
    164 H164       -1.1613  -15.7281  -44.8659 H         1 UNK         0.3000 
    165 H165        1.7823  -17.7602  -45.1348 H         1 UNK         0.0600 
    166 H166        1.7763  -16.5679  -47.3797 H         1 UNK         0.0600 
    167 H167        0.8302  -18.0356  -47.3275 H         1 UNK         0.0600 
    168 H168        0.0160  -16.4791  -47.2758 H         1 UNK         0.0600 
    169 H169        1.4706  -15.0165  -45.6194 H         1 UNK         0.3000 
    170 H170        1.9900  -13.8279  -42.2902 H         1 UNK         0.0600 
    171 H171        4.2238  -14.4623  -43.1810 H         1 UNK         0.0600 
    172 H172        3.7559  -13.9425  -44.7957 H         1 UNK         0.0600 
    173 H173        3.8891  -12.7652  -43.4907 H         1 UNK         0.0600 
    174 H174        1.5382  -12.8880  -45.0693 H         1 UNK         0.3000 
    175 H175       -1.7573  -11.7872  -44.3843 H         1 UNK         0.0600 
    176 H176       -0.9092   -9.5740  -45.1046 H         1 UNK         0.0600 
    177 H177       -0.4079   -9.8988  -43.4531 H         1 UNK         0.0600 
    178 H178        0.7511  -10.0659  -44.7665 H         1 UNK         0.0600 
    179 H179       -0.1055  -11.4244  -46.6684 H         1 UNK         0.3000 
    180 H180       -0.8228  -14.5515  -48.2419 H         1 UNK         0.0600 
    181 H181       -1.7421  -11.7085  -48.8810 H         1 UNK         0.0600 
    182 H182       -2.8339  -13.0407  -48.5332 H         1 UNK         0.0600 
    183 H183       -1.7935  -13.1135  -49.9463 H         1 UNK         0.0600 
    184 H184        0.5702  -12.6866  -49.5171 H         1 UNK         0.3000 
    185 H185        2.9171  -12.0187  -49.2989 H         1 UNK         0.0600 
    186 H186        4.4541  -14.2472  -47.8542 H         1 UNK         0.0600 
    187 H187        5.1617  -12.9951  -48.8742 H         1 UNK         0.0600 
    188 H188        4.3857  -12.5602  -47.3594 H         1 UNK         0.0600 
    189 H189        3.4037  -14.8533  -49.9634 H         1 UNK         0.3000 
    190 H190       -1.9984  -24.4217  -45.9262 H         1 UNK         0.3000 
    191 H191       -2.5061  -23.7155  -48.5657 H         1 UNK         0.0600 
    192 H192       -4.0590  -25.6936  -46.8098 H         1 UNK         0.0600 
    193 H193       -4.6969  -24.8368  -48.2099 H         1 UNK         0.0600 
    194 H194       -4.2338  -23.9427  -46.7725 H         1 UNK         0.0600 
    195 H195       -1.5572  -26.8982  -47.3345 H         1 UNK         0.3000 
    196 H196       -2.0789  -28.4201  -49.6943 H         1 UNK         0.0600 
    197 H197       -0.6488  -30.1264  -48.5580 H         1 UNK         0.0600 
    198 H198       -1.8298  -29.4476  -47.4496 H         1 UNK         0.0600 
    199 H199       -0.1447  -28.9311  -47.3693 H         1 UNK         0.0600 
    200 H200        0.6447  -26.3767  -48.7479 H         1 UNK         0.3000 
    201 H201        2.3792  -27.3228  -50.9469 H         1 UNK         0.0600 
    202 H202        3.3910  -26.7257  -48.7352 H         1 UNK         0.0600 
    203 H203        2.7852  -25.0780  -48.9023 H         1 UNK         0.0600 
    204 H204        3.9843  -25.6939  -50.0282 H         1 UNK         0.0600 
    205 H205        0.3223  -24.5677  -50.0156 H         1 UNK         0.3000 
    206 H206        0.9460  -22.8177  -52.1383 H         1 UNK         0.0600 
    207 H207       -0.3081  -22.3311  -49.9358 H         1 UNK         0.0600 
    208 H208       -0.9726  -21.5690  -51.3722 H         1 UNK         0.0600 
    209 H209       -1.7446  -22.9946  -50.6833 H         1 UNK         0.0600 
    210 H210       -1.6390  -25.2370  -51.8030 H         1 UNK         0.3000 
    211 H211       -2.9878  -26.3377  -53.1027 H         1 UNK         0.0600 
    212 H212       -1.3557  -25.4300  -55.5324 H         1 UNK         0.0600 
    213 H213       -2.5516  -26.7160  -55.5057 H         1 UNK         0.0600 
    214 H214       -1.0701  -26.8820  -54.5756 H         1 UNK         0.0600 
    215 H215       -2.3265  -23.2298  -54.7442 H         1 UNK         0.3000 
    216 H216       -5.1216  -22.7942  -55.5096 H         1 UNK         0.0600 
    217 H217       -4.2205  -20.6292  -56.3698 H         1 UNK         0.0600 
    218 H218       -3.2559  -21.9824  -56.9379 H         1 UNK         0.0600 
    219 H219       -2.6601  -20.9653  -55.6268 H         1 UNK         0.0600 
    220 H220       -3.0588  -21.9989  -52.8297 H         1 UNK         0.3000 
    221 H221       -3.3040  -21.1209  -50.8203 H         1 UNK         0.0600 
    222 H222       -6.3254  -21.2576  -51.2762 H         1 UNK         0.0600 
    223 H223       -5.3119  -22.5869  -50.7085 H         1 UNK         0.0600 
    224 H224       -5.4959  -21.1424  -49.7350 H         1 UNK         0.0600 
    225 H225       -4.2777  -19.2687  -53.4257 H         1 UNK         0.3000 
    226 H226       -4.3550  -17.1123  -53.9267 H         1 UNK         0.0600 
    227 H227       -2.0346  -17.2191  -53.0493 H         1 UNK         0.0600 
    228 H228       -2.7197  -15.6325  -52.7699 H         1 UNK         0.0600 
    229 H229       -2.5997  -16.7738  -51.4374 H         1 UNK         0.0600 
    230 H230       -6.4398  -18.0893  -51.9987 H         1 UNK         0.3000 
    231 H231       -8.2023  -17.4721  -50.8287 H         1 UNK         0.0600 
    232 H232       -8.6066  -15.7708  -52.6342 H         1 UNK         0.0600 
    233 H233       -7.7313  -14.5699  -51.6847 H         1 UNK         0.0600 
    234 H234       -9.2253  -15.2604  -51.0731 H         1 UNK         0.0600 
    235 H235       -5.3031  -17.1973  -49.7436 H         1 UNK         0.3000 
    236 H236       -5.7137  -15.5229  -47.3361 H         1 UNK         0.0600 
    237 H237       -3.2738  -16.1343  -46.9763 H         1 UNK         0.0600 
    238 H238       -3.3088  -17.0261  -48.4908 H         1 UNK         0.0600 
    239 H239       -3.5731  -15.2934  -48.4893 H         1 UNK         0.0600 
    240 H240       -5.6275  -18.9056  -48.3688 H         1 UNK         0.3000 
    241 H241       -6.6135  -19.7506  -45.7310 H         1 UNK         0.0600 
    242 H242       -8.5277  -21.0625  -48.7796 H         1 UNK         0.3800 
    243 H243       -7.8105  -19.4879  -48.5740 H         1 UNK         0.3800 
    244 H244       -4.3153  -20.1696  -45.3757 H         1 UNK         0.0800 
    245 H245       -5.0407  -21.7118  -45.6624 H         1 UNK         0.0800 
    246 H246       -2.8000  -18.8524  -47.2029 H         1 UNK         0.0800 
    247 H247       -2.0593  -19.9283  -46.0520 H         1 UNK         0.0800 
@<TRIPOS>BOND
     1    1    2 1    
     2    1  127 1    
     3    1  128 1    
     4    1  129 1    
     5    2    3 2    
     6    2    4 am   BACKBONE|DICT|INTERRES
     7    4    5 1    
     8    4  130 1    
     9    5    6 1    
    10    5   65 1    
    11    5  131 1    
    12    6    7 1    
    13    6  132 1    
    14    6  133 1    
    15    7    8 1    
    16    8    9 1    
    17    8  134 1    
    18    8  135 1    
    19    9   10 ar   
    20    9   14 ar   
    21   10   11 ar   
    22   10  136 1    
    23   11   12 ar   
    24   11  126 1    
    25   12   13 ar   
    26   12  137 1    
    27   13   14 ar   
    28   13   15 1    
    29   14  138 1    
    30   15   16 1    
    31   15  139 1    
    32   15  140 1    
    33   16   17 1    
    34   17   18 1    
    35   17  141 1    
    36   17  142 1    
    37   18   19 1    
    38   18   67 1    
    39   18  143 1    
    40   19   20 am   BACKBONE|DICT|INTERRES
    41   19  144 1    
    42   20   21 2    
    43   20   22 1    
    44   22   23 1    
    45   22   24 1    
    46   22  145 1    
    47   23  146 1    
    48   23  147 1    
    49   23  148 1    
    50   24   25 am   BACKBONE|DICT|INTERRES
    51   24  149 1    
    52   25   26 2    
    53   25   27 1    
    54   27   28 1    
    55   27   29 1    
    56   27  150 1    
    57   28  151 1    
    58   28  152 1    
    59   28  153 1    
    60   29   30 am   BACKBONE|DICT|INTERRES
    61   29  154 1    
    62   30   31 2    
    63   30   32 1    
    64   32   33 1    
    65   32   34 1    
    66   32  155 1    
    67   33  156 1    
    68   33  157 1    
    69   33  158 1    
    70   34   35 am   BACKBONE|DICT|INTERRES
    71   34  159 1    
    72   35   36 2    
    73   35   37 1    
    74   37   38 1    
    75   37   39 1    
    76   37  160 1    
    77   38  161 1    
    78   38  162 1    
    79   38  163 1    
    80   39   40 am   BACKBONE|DICT|INTERRES
    81   39  164 1    
    82   40   41 2    
    83   40   42 1    
    84   42   43 1    
    85   42   44 1    
    86   42  165 1    
    87   43  166 1    
    88   43  167 1    
    89   43  168 1    
    90   44   45 am   BACKBONE|DICT|INTERRES
    91   44  169 1    
    92   45   46 2    
    93   45   47 1    
    94   47   48 1    
    95   47   49 1    
    96   47  170 1    
    97   48  171 1    
    98   48  172 1    
    99   48  173 1    
   100   49   50 am   BACKBONE|DICT|INTERRES
   101   49  174 1    
   102   50   51 2    
   103   50   52 1    
   104   52   53 1    
   105   52   54 1    
   106   52  175 1    
   107   53  176 1    
   108   53  177 1    
   109   53  178 1    
   110   54   55 am   BACKBONE|DICT|INTERRES
   111   54  179 1    
   112   55   56 2    
   113   55   57 1    
   114   57   58 1    
   115   57   59 1    
   116   57  180 1    
   117   58  181 1    
   118   58  182 1    
   119   58  183 1    
   120   59   60 am   BACKBONE|DICT|INTERRES
   121   59  184 1    
   122   60   61 2    
   123   60   62 1    
   124   62   63 1    
   125   62   64 1    
   126   62  185 1    
   127   63  186 1    
   128   63  187 1    
   129   63  188 1    
   130   64   65 am   BACKBONE|DICT|INTERRES
   131   64  189 1    
   132   65   66 2    
   133   67   68 2    
   134   67   69 am   BACKBONE|DICT|INTERRES
   135   69   70 1    
   136   69  190 1    
   137   70   71 1    
   138   70   72 1    
   139   70  191 1    
   140   71  192 1    
   141   71  193 1    
   142   71  194 1    
   143   72   73 2    
   144   72   74 am   BACKBONE|DICT|INTERRES
   145   74   75 1    
   146   74  195 1    
   147   75   76 1    
   148   75   77 1    
   149   75  196 1    
   150   76  197 1    
   151   76  198 1    
   152   76  199 1    
   153   77   78 2    
   154   77   79 am   BACKBONE|DICT|INTERRES
   155   79   80 1    
   156   79  200 1    
   157   80   81 1    
   158   80   82 1    
   159   80  201 1    
   160   81  202 1    
   161   81  203 1    
   162   81  204 1    
   163   82   83 2    
   164   82   84 am   BACKBONE|DICT|INTERRES
   165   84   85 1    
   166   84  205 1    
   167   85   86 1    
   168   85   87 1    
   169   85  206 1    
   170   86  207 1    
   171   86  208 1    
   172   86  209 1    
   173   87   88 2    
   174   87   89 am   BACKBONE|DICT|INTERRES
   175   89   90 1    
   176   89  210 1    
   177   90   91 1    
   178   90   92 1    
   179   90  211 1    
   180   91  212 1    
   181   91  213 1    
   182   91  214 1    
   183   92   93 2    
   184   92   94 am   BACKBONE|DICT|INTERRES
   185   94   95 1    
   186   94  215 1    
   187   95   96 1    
   188   95   97 1    
   189   95  216 1    
   190   96  217 1    
   191   96  218 1    
   192   96  219 1    
   193   97   98 2    
   194   97   99 am   BACKBONE|DICT|INTERRES
   195   99  100 1    
   196   99  220 1    
   197  100  101 1    
   198  100  102 1    
   199  100  221 1    
   200  101  222 1    
   201  101  223 1    
   202  101  224 1    
   203  102  103 2    
   204  102  104 am   BACKBONE|DICT|INTERRES
   205  104  105 1    
   206  104  225 1    
   207  105  106 1    
   208  105  107 1    
   209  105  226 1    
   210  106  227 1    
   211  106  228 1    
   212  106  229 1    
   213  107  108 2    
   214  107  109 am   BACKBONE|DICT|INTERRES
   215  109  110 1    
   216  109  230 1    
   217  110  111 1    
   218  110  112 1    
   219  110  231 1    
   220  111  232 1    
   221  111  233 1    
   222  111  234 1    
   223  112  113 2    
   224  112  114 am   BACKBONE|DICT|INTERRES
   225  114  115 1    
   226  114  235 1    
   227  115  116 1    
   228  115  117 1    
   229  115  236 1    
   230  116  237 1    
   231  116  238 1    
   232  116  239 1    
   233  117  118 2    
   234  117  119 am   BACKBONE|DICT|INTERRES
   235  119  120 1    
   236  119  240 1    
   237  120  121 1    
   238  120  124 1    
   239  120  241 1    
   240  121  122 am   BACKBONE|DICT|INTERRES
   241  121  123 2    
   242  122  242 1    
   243  122  243 1    
   244  124  125 1    
   245  124  244 1    
   246  124  245 1    
   247  125  126 1    
   248  126  246 1    
   249  126  247 1    
@<TRIPOS>SUBSTRUCTURE
     1 UNK         1 GROUP             0       ****    0 ROOT    
