@<TRIPOS>MOLECULE
3R540
247   249    1
SMALL
USER_CHARGES


@<TRIPOS>ATOM
      1 CA         -0.7008  -12.2920  -52.7624 C.3       0 UNK        -0.1800 
      2 C          -1.3584  -12.9194  -51.5418 C.2       0 UNK         0.5000 
      3 O          -2.5848  -12.9221  -51.4440 O.2       0 UNK        -0.5000 
      4 N          -0.5444  -13.4422  -50.6132 N.am      1 UNK        -0.5000 
      5 CA         -0.9479  -14.1779  -49.4010 C.3       1 UNK         0.1400 
      6 C6         -1.7740  -15.4611  -49.7009 C.3       23 UNK        -0.0398 
      7 S7         -0.8687  -16.6214  -50.7801 S.3       23 UNK        -0.2404 
      8 C8         -0.8781  -18.1220  -49.7566 C.3       23 UNK        -0.0205 
      9 C9         -0.0386  -19.2226  -50.3788 C.ar      23 UNK        -0.0193 
     10 C10        -0.4800  -19.8708  -51.5342 C.ar      23 UNK        -0.1150 
     11 C11         0.3043  -20.8560  -52.1385 C.ar      23 UNK        -0.0193 
     12 C12         1.5117  -21.2332  -51.5433 C.ar      23 UNK        -0.1150 
     13 C13         1.9598  -20.5971  -50.3823 C.ar      23 UNK        -0.0193 
     14 C14         1.1839  -19.5856  -49.8088 C.ar      23 UNK        -0.1150 
     15 C15         3.3019  -20.9783  -49.7780 C.3       23 UNK        -0.0205 
     16 S16         3.1842  -22.4587  -48.7273 S.3       23 UNK        -0.2404 
     17 C17         2.4018  -21.7809  -47.2267 C.3       23 UNK        -0.0398 
     18 CA          1.2435  -22.6597  -46.7029 C.3       11 UNK         0.1400 
     19 N           1.0317  -22.4599  -45.2678 N.am      11 UNK        -0.5000 
     20 C           0.2520  -23.2284  -44.4955 C.2       10 UNK         0.5000 
     21 O          -0.3335  -24.2333  -44.8991 O.2       10 UNK        -0.5000 
     22 CA          0.0545  -22.7612  -43.0417 C.3       10 UNK         0.1400 
     23 CB          1.2235  -23.2128  -42.1542 C.3       10 UNK        -0.1800 
     24 N          -0.1024  -21.3087  -42.9471 N.am      10 UNK        -0.5000 
     25 C          -1.1382  -20.6290  -43.4594 C.2       9 UNK         0.5000 
     26 O          -2.1055  -21.1692  -43.9952 O.2       9 UNK        -0.5000 
     27 CA         -1.0546  -19.0920  -43.4085 C.3       9 UNK         0.1400 
     28 CB         -1.4299  -18.5764  -42.0090 C.3       9 UNK        -0.1800 
     29 N           0.2739  -18.6027  -43.7844 N.am      9 UNK        -0.5000 
     30 C           0.8217  -18.7228  -45.0026 C.2       8 UNK         0.5000 
     31 O           0.2267  -19.1876  -45.9701 O.2       8 UNK        -0.5000 
     32 CA          2.2992  -18.3246  -45.1685 C.3       8 UNK         0.1400 
     33 CB          2.4659  -16.9192  -45.7656 C.3       8 UNK        -0.1800 
     34 N           3.0556  -18.4495  -43.9226 N.am      8 UNK        -0.5000 
     35 C           3.4243  -19.6300  -43.4062 C.2       7 UNK         0.5000 
     36 O           3.1784  -20.7123  -43.9413 O.2       7 UNK        -0.5000 
     37 CA          4.1490  -19.5957  -42.0492 C.3       7 UNK         0.1400 
     38 CB          5.5966  -19.1081  -42.2138 C.3       7 UNK        -0.1800 
     39 N           3.4645  -18.7694  -41.0510 N.am      7 UNK        -0.5000 
     40 C           2.2528  -19.0470  -40.5453 C.2       6 UNK         0.5000 
     41 O           1.5665  -20.0008  -40.9108 O.2       6 UNK        -0.5000 
     42 CA          1.7070  -18.0878  -39.4777 C.3       6 UNK         0.1400 
     43 CB          2.3830  -18.3148  -38.1153 C.3       6 UNK        -0.1800 
     44 N           1.8866  -16.7065  -39.9118 N.am      6 UNK        -0.5000 
     45 C           1.0508  -15.6944  -39.6555 C.2       5 UNK         0.5000 
     46 O           0.0688  -15.7809  -38.9169 O.2       5 UNK        -0.5000 
     47 CA          1.3452  -14.3587  -40.3732 C.3       5 UNK         0.1400 
     48 CB          2.8514  -14.1128  -40.6138 C.3       5 UNK        -0.1800 
     49 N           0.6025  -14.2201  -41.6318 N.am      5 UNK        -0.5000 
     50 C           0.6017  -15.0712  -42.6696 C.2       4 UNK         0.5000 
     51 O           1.2455  -16.1203  -42.6991 O.2       4 UNK        -0.5000 
     52 CA         -0.2321  -14.6621  -43.8992 C.3       4 UNK         0.1400 
     53 CB         -1.7197  -14.9859  -43.7004 C.3       4 UNK        -0.1800 
     54 N          -0.0908  -13.2472  -44.2438 N.am      4 UNK        -0.5000 
     55 C           1.0375  -12.6729  -44.6814 C.2       3 UNK         0.5000 
     56 O           2.1060  -13.2727  -44.8091 O.2       3 UNK        -0.5000 
     57 CA          0.9205  -11.1961  -45.1040 C.3       3 UNK         0.1400 
     58 CB          2.2782  -10.5700  -45.4706 C.3       3 UNK        -0.1800 
     59 N           0.0231  -11.0807  -46.2527 N.am      3 UNK        -0.5000 
     60 C          -1.3086  -10.9558  -46.1856 C.2       2 UNK         0.5000 
     61 O          -1.9334  -10.8703  -45.1276 O.2       2 UNK        -0.5000 
     62 CA         -2.0660  -10.9764  -47.5258 C.3       2 UNK         0.1400 
     63 CB         -2.0562   -9.5860  -48.1792 C.3       2 UNK        -0.1800 
     64 N          -1.5161  -11.9576  -48.4648 N.am      2 UNK        -0.5000 
     65 C          -1.6182  -13.2883  -48.3249 C.2       1 UNK         0.5000 
     66 O          -2.1931  -13.8184  -47.3732 O.2       1 UNK        -0.5000 
     67 C          -0.0628  -22.4752  -47.5098 C.2       11 UNK         0.5000 
     68 O          -0.3642  -23.3043  -48.3667 O.2       11 UNK        -0.5000 
     69 N          -0.8518  -21.4431  -47.1728 N.am      12 UNK        -0.5000 
     70 CA         -2.1863  -21.1897  -47.7165 C.3       12 UNK         0.1400 
     71 CB         -2.7493  -19.8726  -47.1579 C.3       12 UNK        -0.1800 
     72 C          -3.1620  -22.3392  -47.4264 C.2       12 UNK         0.5000 
     73 O          -3.8618  -22.7760  -48.3382 O.2       12 UNK        -0.5000 
     74 N          -3.1729  -22.8293  -46.1786 N.am      13 UNK        -0.5000 
     75 CA         -3.9771  -23.9726  -45.7435 C.3       13 UNK         0.1400 
     76 CB         -3.8415  -24.1588  -44.2253 C.3       13 UNK        -0.1800 
     77 C          -3.6240  -25.2678  -46.4982 C.2       13 UNK         0.5000 
     78 O          -4.5313  -25.9741  -46.9401 O.2       13 UNK        -0.5000 
     79 N          -2.3201  -25.5204  -46.6873 N.am      14 UNK        -0.5000 
     80 CA         -1.7919  -26.6199  -47.5001 C.3       14 UNK         0.1400 
     81 CB         -0.2696  -26.7103  -47.3160 C.3       14 UNK        -0.1800 
     82 C          -2.1613  -26.4977  -48.9929 C.2       14 UNK         0.5000 
     83 O          -2.4180  -27.5129  -49.6399 O.2       14 UNK        -0.5000 
     84 N          -2.2463  -25.2592  -49.4953 N.am      15 UNK        -0.5000 
     85 CA         -2.7119  -24.8940  -50.8350 C.3       15 UNK         0.1400 
     86 CB         -2.0250  -23.5843  -51.2597 C.3       15 UNK        -0.1800 
     87 C          -4.2522  -24.7965  -50.9399 C.2       15 UNK         0.5000 
     88 O          -4.7560  -24.0270  -51.7608 O.2       15 UNK        -0.5000 
     89 N          -4.9725  -25.5696  -50.1127 N.am      16 UNK        -0.5000 
     90 CA         -6.4306  -25.7162  -50.0608 C.3       16 UNK         0.1400 
     91 CB         -6.9454  -26.4298  -51.3279 C.3       16 UNK        -0.1800 
     92 C          -7.1628  -24.3919  -49.7626 C.2       16 UNK         0.5000 
     93 O          -8.1364  -24.0533  -50.4376 O.2       16 UNK        -0.5000 
     94 N          -6.6602  -23.6721  -48.7492 N.am      17 UNK        -0.5000 
     95 CA         -7.0950  -22.3449  -48.2978 C.3       17 UNK         0.1400 
     96 CB         -8.5387  -22.3808  -47.7538 C.3       17 UNK        -0.1800 
     97 C          -6.8665  -21.2691  -49.3796 C.2       17 UNK         0.5000 
     98 O          -7.7547  -20.4599  -49.6529 O.2       17 UNK        -0.5000 
     99 N          -5.6621  -21.3040  -49.9678 N.am      18 UNK        -0.5000 
    100 CA        -5.1642  -20.4705  -51.0624 C.3       18 UNK         0.1400 
    101 CB        -4.9407  -19.0182  -50.5928 C.3       18 UNK        -0.1800 
    102 C         -6.0536  -20.5662  -52.3163 C.2       18 UNK         0.5000 
    103 O         -6.6354  -19.5676  -52.7465 O.2       18 UNK        -0.5000 
    104 N         -6.1321  -21.7754  -52.8927 N.am      19 UNK        -0.5000 
    105 CA        -6.8005  -22.0434  -54.1729 C.3       19 UNK         0.1400 
    106 CB        -6.8183  -23.5563  -54.4317 C.3       19 UNK        -0.1800 
    107 C         -6.1546  -21.2881  -55.3546 C.2       19 UNK         0.5000 
    108 O         -6.8469  -20.9310  -56.3087 O.2       19 UNK        -0.5000 
    109 N         -4.8538  -21.0105  -55.2273 N.am      20 UNK        -0.5000 
    110 CA        -4.1302  -19.9637  -55.9322 C.3       20 UNK         0.1400 
    111 CB        -3.0738  -20.5993  -56.8483 C.3       20 UNK        -0.1800 
    112 C         -3.4672  -19.1004  -54.8488 C.2       20 UNK         0.5000 
    113 O         -3.0646  -19.6374  -53.8141 O.2       20 UNK        -0.5000 
    114 N         -3.3582  -17.7912  -55.0919 N.am      21 UNK        -0.5000 
    115 CA        -2.6959  -16.8414  -54.1989 C.3       21 UNK         0.1400 
    116 CB        -3.4557  -15.5040  -54.2358 C.3       21 UNK        -0.1800 
    117 C         -1.2271  -16.7013  -54.6306 C.2       21 UNK         0.5000 
    118 O         -0.8755  -15.7440  -55.3226 O.2       21 UNK        -0.5000 
    119 N         -0.4152  -17.7044  -54.2775 N.am      22 UNK        -0.5000 
    120 CA         0.9866  -17.8402  -54.7090 C.3       22 UNK         0.1400 
    121 C          1.9629  -16.7637  -54.1488 C.2       22 UNK         0.5000 
    122 N          1.6356  -16.0662  -53.0679 N.am      22 UNK        -0.7600 
    123 O          3.0369  -16.5596  -54.7082 O.2       22 UNK        -0.5000 
    124 C124        1.5574  -19.2599  -54.4497 C.3       23 UNK        -0.0398 
    125 S125        0.4411  -20.6231  -54.9682 S.3       23 UNK        -0.2404 
    126 C126       -0.1293  -21.4896  -53.4522 C.3       23 UNK        -0.0205 
    127 H127       -0.9990  -12.8288  -53.6634 H         1 UNK         0.0600 
    128 H128        0.3872  -12.3192  -52.6968 H         1 UNK         0.0600 
    129 H129       -1.0103  -11.2519  -52.8644 H         1 UNK         0.0600 
    130 H130        0.4537  -13.3881  -50.7609 H         1 UNK         0.3000 
    131 H131       -0.0143  -14.5040  -48.9398 H         1 UNK         0.0600 
    132 H132       -2.0326  -15.9759  -48.7742 H         1 UNK         0.0800 
    133 H133       -2.7242  -15.2148  -50.1760 H         1 UNK         0.0800 
    134 H134       -0.5113  -17.8838  -48.7567 H         1 UNK         0.0800 
    135 H135       -1.9048  -18.4702  -49.6471 H         1 UNK         0.0800 
    136 H136       -1.4216  -19.5818  -51.9742 H         1 UNK         0.1150 
    137 H137        2.1199  -21.9997  -52.0026 H         1 UNK         0.1150 
    138 H138        1.5311  -19.0759  -48.9213 H         1 UNK         0.1150 
    139 H139        4.0152  -21.1753  -50.5797 H         1 UNK         0.0800 
    140 H140        3.7176  -20.1492  -49.2030 H         1 UNK         0.0800 
    141 H141        2.0696  -20.7566  -47.3884 H         1 UNK         0.0800 
    142 H142        3.1912  -21.7198  -46.4763 H         1 UNK         0.0800 
    143 H143        1.5416  -23.7043  -46.8173 H         1 UNK         0.0600 
    144 H144        1.5167  -21.6814  -44.8366 H         1 UNK         0.3000 
    145 H145       -0.8587  -23.2251  -42.6633 H         1 UNK         0.0600 
    146 H146        1.0542  -22.9396  -41.1125 H         1 UNK         0.0600 
    147 H147        1.3465  -24.2958  -42.1918 H         1 UNK         0.0600 
    148 H148        2.1663  -22.7631  -42.4667 H         1 UNK         0.0600 
    149 H149        0.6297  -20.7990  -42.4615 H         1 UNK         0.3000 
    150 H150       -1.7713  -18.6872  -44.1259 H         1 UNK         0.0600 
    151 H151       -2.4842  -18.7627  -41.8020 H         1 UNK         0.0600 
    152 H152       -1.2621  -17.5052  -41.9087 H         1 UNK         0.0600 
    153 H153       -0.8578  -19.0704  -41.2251 H         1 UNK         0.0600 
    154 H154        0.8137  -18.1326  -43.0682 H         1 UNK         0.3000 
    155 H155        2.7268  -19.0204  -45.8925 H         1 UNK         0.0600 
    156 H156        1.8075  -16.7729  -46.6231 H         1 UNK         0.0600 
    157 H157        2.2507  -16.1339  -45.0452 H         1 UNK         0.0600 
    158 H158        3.4874  -16.7668  -46.1139 H         1 UNK         0.0600 
    159 H159        3.2343  -17.5992  -43.4075 H         1 UNK         0.3000 
    160 H160        4.1804  -20.6195  -41.6699 H         1 UNK         0.0600 
    161 H161        5.6401  -18.0708  -42.5480 H         1 UNK         0.0600 
    162 H162        6.1307  -19.7123  -42.9484 H         1 UNK         0.0600 
    163 H163        6.1458  -19.1813  -41.2750 H         1 UNK         0.0600 
    164 H164        3.9916  -17.9974  -40.6720 H         1 UNK         0.3000 
    165 H165        0.6402  -18.2972  -39.3739 H         1 UNK         0.0600 
    166 H166        1.9330  -17.6885  -37.3449 H         1 UNK         0.0600 
    167 H167        2.2760  -19.3518  -37.7946 H         1 UNK         0.0600 
    168 H168        3.4490  -18.0876  -38.1496 H         1 UNK         0.0600 
    169 H169        2.5877  -16.5494  -40.6208 H         1 UNK         0.3000 
    170 H170        0.9875  -13.5688  -39.7109 H         1 UNK         0.0600 
    171 H171        3.2740  -14.7950  -41.3520 H         1 UNK         0.0600 
    172 H172        3.0239  -13.0984  -40.9738 H         1 UNK         0.0600 
    173 H173        3.4205  -14.2274  -39.6903 H         1 UNK         0.0600 
    174 H174        0.0269  -13.3938  -41.7071 H         1 UNK         0.3000 
    175 H175        0.1187  -15.2446  -44.7525 H         1 UNK         0.0600 
    176 H176       -2.3071  -14.6809  -44.5671 H         1 UNK         0.0600 
    177 H177       -2.1322  -14.4860  -42.8233 H         1 UNK         0.0600 
    178 H178       -1.8728  -16.0570  -43.5769 H         1 UNK         0.0600 
    179 H179       -0.9303  -12.6821  -44.2143 H         1 UNK         0.3000 
    180 H180        0.5149  -10.6388  -44.2569 H         1 UNK         0.0600 
    181 H181        2.7409  -11.0732  -46.3206 H         1 UNK         0.0600 
    182 H182        2.9745  -10.6300  -44.6331 H         1 UNK         0.0600 
    183 H183        2.1685   -9.5158  -45.7255 H         1 UNK         0.0600 
    184 H184        0.4462  -11.1885  -47.1627 H         1 UNK         0.3000 
    185 H185       -3.1037  -11.2465  -47.3180 H         1 UNK         0.0600 
    186 H186       -2.4790   -8.8370  -47.5083 H         1 UNK         0.0600 
    187 H187       -1.0454   -9.2653  -48.4342 H         1 UNK         0.0600 
    188 H188       -2.6519   -9.5761  -49.0922 H         1 UNK         0.0600 
    189 H189       -1.0409  -11.5992  -49.2800 H         1 UNK         0.3000 
    190 H190       -0.5030  -20.7535  -46.5113 H         1 UNK         0.3000 
    191 H191       -2.0883  -21.0908  -48.7993 H         1 UNK         0.0600 
    192 H192       -2.0857  -19.0332  -47.3541 H         1 UNK         0.0600 
    193 H193       -3.7157  -19.6411  -47.6051 H         1 UNK         0.0600 
    194 H194       -2.9022  -19.9183  -46.0814 H         1 UNK         0.0600 
    195 H195       -2.6017  -22.3754  -45.4716 H         1 UNK         0.3000 
    196 H196       -5.0214  -23.7393  -45.9596 H         1 UNK         0.0600 
    197 H197       -4.4701  -24.9787  -43.8758 H         1 UNK         0.0600 
    198 H198       -4.1496  -23.2607  -43.6895 H         1 UNK         0.0600 
    199 H199       -2.8162  -24.3851  -43.9341 H         1 UNK         0.0600 
    200 H200       -1.6374  -24.9056  -46.2539 H         1 UNK         0.3000 
    201 H201       -2.2327  -27.5468  -47.1274 H         1 UNK         0.0600 
    202 H202       -0.0072  -26.8550  -46.2679 H         1 UNK         0.0600 
    203 H203        0.2340  -25.8089  -47.6645 H         1 UNK         0.0600 
    204 H204        0.1414  -27.5521  -47.8745 H         1 UNK         0.0600 
    205 H205       -1.9698  -24.4847  -48.9009 H         1 UNK         0.3000 
    206 H206       -2.3999  -25.6708  -51.5354 H         1 UNK         0.0600 
    207 H207       -0.9398  -23.6682  -51.1982 H         1 UNK         0.0600 
    208 H208       -2.2725  -23.3300  -52.2902 H         1 UNK         0.0600 
    209 H209       -2.3290  -22.7467  -50.6321 H         1 UNK         0.0600 
    210 H210       -4.4610  -26.1293  -49.4441 H         1 UNK         0.3000 
    211 H211       -6.6393  -26.3697  -49.2125 H         1 UNK         0.0600 
    212 H212       -6.7658  -25.8405  -52.2263 H         1 UNK         0.0600 
    213 H213       -8.0180  -26.6166  -51.2659 H         1 UNK         0.0600 
    214 H214       -6.4566  -27.3950  -51.4601 H         1 UNK         0.0600 
    215 H215       -5.8050  -24.0101  -48.3264 H         1 UNK         0.3000 
    216 H216       -6.4441  -22.0778  -47.4642 H         1 UNK         0.0600 
    217 H217       -8.8051  -21.4266  -47.2981 H         1 UNK         0.0600 
    218 H218       -8.6522  -23.1484  -46.9884 H         1 UNK         0.0600 
    219 H219       -9.2676  -22.5795  -48.5398 H         1 UNK         0.0600 
    220 H220       -5.0150  -22.0124  -49.6310 H         1 UNK         0.3000 
    221 H221       -4.1897  -20.8755  -51.3406 H         1 UNK         0.0600 
    222 H222       -5.8728  -18.5373  -50.2952 H         1 UNK         0.0600 
    223 H223       -4.2580  -18.9775  -49.7469 H         1 UNK         0.0600 
    224 H224       -4.5006  -18.4175  -51.3902 H         1 UNK         0.0600 
    225 H225       -5.6513  -22.5626  -52.4593 H         1 UNK         0.3000 
    226 H226       -7.8331  -21.6991  -54.0889 H         1 UNK         0.0600 
    227 H227       -7.3788  -24.0752  -53.6546 H         1 UNK         0.0600 
    228 H228       -7.2959  -23.7864  -55.3849 H         1 UNK         0.0600 
    229 H229       -5.8107  -23.9730  -54.4568 H         1 UNK         0.0600 
    230 H230       -4.3959  -21.3084  -54.3755 H         1 UNK         0.3000 
    231 H231       -4.8102  -19.3450  -56.5217 H         1 UNK         0.0600 
    232 H232       -2.3732  -21.2178  -56.2857 H         1 UNK         0.0600 
    233 H233       -2.4942  -19.8345  -57.3666 H         1 UNK         0.0600 
    234 H234       -3.5397  -21.2280  -57.6071 H         1 UNK         0.0600 
    235 H235       -3.6773  -17.4232  -55.9767 H         1 UNK         0.3000 
    236 H236       -2.7174  -17.2035  -53.1686 H         1 UNK         0.0600 
    237 H237       -4.4781  -15.6248  -53.8775 H         1 UNK         0.0600 
    238 H238       -2.9728  -14.7665  -53.5940 H         1 UNK         0.0600 
    239 H239       -3.5008  -15.0867  -55.2424 H         1 UNK         0.0600 
    240 H240       -0.7935  -18.4816  -53.7539 H         1 UNK         0.3000 
    241 H241        0.9807  -17.6981  -55.7915 H         1 UNK         0.0600 
    242 H242        0.7695  -16.2479  -52.5825 H         1 UNK         0.3800 
    243 H243        2.2775  -15.3756  -52.7147 H         1 UNK         0.3800 
    244 H244        1.8619  -19.3575  -53.4110 H         1 UNK         0.0800 
    245 H245        2.4814  -19.3814  -55.0174 H         1 UNK         0.0800 
    246 H246        0.2222  -22.5216  -53.4914 H         1 UNK         0.0800 
    247 H247       -1.2174  -21.5491  -53.4855 H         1 UNK         0.0800 
@<TRIPOS>BOND
     1    1    2 1    
     2    1  127 1    
     3    1  128 1    
     4    1  129 1    
     5    2    3 2    
     6    2    4 am   BACKBONE|DICT|INTERRES
     7    4    5 1    
     8    4  130 1    
     9    5    6 1    
    10    5   65 1    
    11    5  131 1    
    12    6    7 1    
    13    6  132 1    
    14    6  133 1    
    15    7    8 1    
    16    8    9 1    
    17    8  134 1    
    18    8  135 1    
    19    9   10 ar   
    20    9   14 ar   
    21   10   11 ar   
    22   10  136 1    
    23   11   12 ar   
    24   11  126 1    
    25   12   13 ar   
    26   12  137 1    
    27   13   14 ar   
    28   13   15 1    
    29   14  138 1    
    30   15   16 1    
    31   15  139 1    
    32   15  140 1    
    33   16   17 1    
    34   17   18 1    
    35   17  141 1    
    36   17  142 1    
    37   18   19 1    
    38   18   67 1    
    39   18  143 1    
    40   19   20 am   BACKBONE|DICT|INTERRES
    41   19  144 1    
    42   20   21 2    
    43   20   22 1    
    44   22   23 1    
    45   22   24 1    
    46   22  145 1    
    47   23  146 1    
    48   23  147 1    
    49   23  148 1    
    50   24   25 am   BACKBONE|DICT|INTERRES
    51   24  149 1    
    52   25   26 2    
    53   25   27 1    
    54   27   28 1    
    55   27   29 1    
    56   27  150 1    
    57   28  151 1    
    58   28  152 1    
    59   28  153 1    
    60   29   30 am   BACKBONE|DICT|INTERRES
    61   29  154 1    
    62   30   31 2    
    63   30   32 1    
    64   32   33 1    
    65   32   34 1    
    66   32  155 1    
    67   33  156 1    
    68   33  157 1    
    69   33  158 1    
    70   34   35 am   BACKBONE|DICT|INTERRES
    71   34  159 1    
    72   35   36 2    
    73   35   37 1    
    74   37   38 1    
    75   37   39 1    
    76   37  160 1    
    77   38  161 1    
    78   38  162 1    
    79   38  163 1    
    80   39   40 am   BACKBONE|DICT|INTERRES
    81   39  164 1    
    82   40   41 2    
    83   40   42 1    
    84   42   43 1    
    85   42   44 1    
    86   42  165 1    
    87   43  166 1    
    88   43  167 1    
    89   43  168 1    
    90   44   45 am   BACKBONE|DICT|INTERRES
    91   44  169 1    
    92   45   46 2    
    93   45   47 1    
    94   47   48 1    
    95   47   49 1    
    96   47  170 1    
    97   48  171 1    
    98   48  172 1    
    99   48  173 1    
   100   49   50 am   BACKBONE|DICT|INTERRES
   101   49  174 1    
   102   50   51 2    
   103   50   52 1    
   104   52   53 1    
   105   52   54 1    
   106   52  175 1    
   107   53  176 1    
   108   53  177 1    
   109   53  178 1    
   110   54   55 am   BACKBONE|DICT|INTERRES
   111   54  179 1    
   112   55   56 2    
   113   55   57 1    
   114   57   58 1    
   115   57   59 1    
   116   57  180 1    
   117   58  181 1    
   118   58  182 1    
   119   58  183 1    
   120   59   60 am   BACKBONE|DICT|INTERRES
   121   59  184 1    
   122   60   61 2    
   123   60   62 1    
   124   62   63 1    
   125   62   64 1    
   126   62  185 1    
   127   63  186 1    
   128   63  187 1    
   129   63  188 1    
   130   64   65 am   BACKBONE|DICT|INTERRES
   131   64  189 1    
   132   65   66 2    
   133   67   68 2    
   134   67   69 am   BACKBONE|DICT|INTERRES
   135   69   70 1    
   136   69  190 1    
   137   70   71 1    
   138   70   72 1    
   139   70  191 1    
   140   71  192 1    
   141   71  193 1    
   142   71  194 1    
   143   72   73 2    
   144   72   74 am   BACKBONE|DICT|INTERRES
   145   74   75 1    
   146   74  195 1    
   147   75   76 1    
   148   75   77 1    
   149   75  196 1    
   150   76  197 1    
   151   76  198 1    
   152   76  199 1    
   153   77   78 2    
   154   77   79 am   BACKBONE|DICT|INTERRES
   155   79   80 1    
   156   79  200 1    
   157   80   81 1    
   158   80   82 1    
   159   80  201 1    
   160   81  202 1    
   161   81  203 1    
   162   81  204 1    
   163   82   83 2    
   164   82   84 am   BACKBONE|DICT|INTERRES
   165   84   85 1    
   166   84  205 1    
   167   85   86 1    
   168   85   87 1    
   169   85  206 1    
   170   86  207 1    
   171   86  208 1    
   172   86  209 1    
   173   87   88 2    
   174   87   89 am   BACKBONE|DICT|INTERRES
   175   89   90 1    
   176   89  210 1    
   177   90   91 1    
   178   90   92 1    
   179   90  211 1    
   180   91  212 1    
   181   91  213 1    
   182   91  214 1    
   183   92   93 2    
   184   92   94 am   BACKBONE|DICT|INTERRES
   185   94   95 1    
   186   94  215 1    
   187   95   96 1    
   188   95   97 1    
   189   95  216 1    
   190   96  217 1    
   191   96  218 1    
   192   96  219 1    
   193   97   98 2    
   194   97   99 am   BACKBONE|DICT|INTERRES
   195   99  100 1    
   196   99  220 1    
   197  100  101 1    
   198  100  102 1    
   199  100  221 1    
   200  101  222 1    
   201  101  223 1    
   202  101  224 1    
   203  102  103 2    
   204  102  104 am   BACKBONE|DICT|INTERRES
   205  104  105 1    
   206  104  225 1    
   207  105  106 1    
   208  105  107 1    
   209  105  226 1    
   210  106  227 1    
   211  106  228 1    
   212  106  229 1    
   213  107  108 2    
   214  107  109 am   BACKBONE|DICT|INTERRES
   215  109  110 1    
   216  109  230 1    
   217  110  111 1    
   218  110  112 1    
   219  110  231 1    
   220  111  232 1    
   221  111  233 1    
   222  111  234 1    
   223  112  113 2    
   224  112  114 am   BACKBONE|DICT|INTERRES
   225  114  115 1    
   226  114  235 1    
   227  115  116 1    
   228  115  117 1    
   229  115  236 1    
   230  116  237 1    
   231  116  238 1    
   232  116  239 1    
   233  117  118 2    
   234  117  119 am   BACKBONE|DICT|INTERRES
   235  119  120 1    
   236  119  240 1    
   237  120  121 1    
   238  120  124 1    
   239  120  241 1    
   240  121  122 am   BACKBONE|DICT|INTERRES
   241  121  123 2    
   242  122  242 1    
   243  122  243 1    
   244  124  125 1    
   245  124  244 1    
   246  124  245 1    
   247  125  126 1    
   248  126  246 1    
   249  126  247 1    
@<TRIPOS>SUBSTRUCTURE
     1 UNK         1 GROUP             0       ****    0 ROOT    
