@<TRIPOS>MOLECULE
3R540
247   249    1
SMALL
USER_CHARGES


@<TRIPOS>ATOM
      1 CA          0.0157  -10.5652  -51.1904 C.3       0 UNK        -0.1800 
      2 C           0.0205  -11.9398  -50.5361 C.2       0 UNK         0.5000 
      3 O           0.8292  -12.7910  -50.9066 O.2       0 UNK        -0.5000 
      4 N          -0.8832  -12.1605  -49.5733 N.am      1 UNK        -0.5000 
      5 CA         -0.9844  -13.3940  -48.7905 C.3       1 UNK         0.1400 
      6 C6         -2.3776  -13.5018  -48.1070 C.3       23 UNK        -0.0398 
      7 S7         -2.6223  -14.9390  -46.9960 S.3       23 UNK        -0.2404 
      8 C8         -3.3655  -16.1899  -48.0866 C.3       23 UNK        -0.0205 
      9 C9         -2.3920  -16.6584  -49.1565 C.ar      23 UNK        -0.0193 
     10 C10        -2.4844  -16.1539  -50.4552 C.ar      23 UNK        -0.1150 
     11 C11        -1.5726  -16.5442  -51.4369 C.ar      23 UNK        -0.0193 
     12 C12        -0.5703  -17.4609  -51.1075 C.ar      23 UNK        -0.1150 
     13 C13        -0.4822  -18.0118  -49.8243 C.ar      23 UNK        -0.0193 
     14 C14        -1.3941  -17.5876  -48.8464 C.ar      23 UNK        -0.1150 
     15 C15         0.6169  -19.0505  -49.5686 C.3       23 UNK        -0.0205 
     16 S16         0.6714  -19.8079  -47.9044 S.3       23 UNK        -0.2404 
     17 C17        -0.8563  -20.8023  -47.8835 C.3       23 UNK        -0.0398 
     18 CA         -0.6388  -22.2783  -47.4732 C.3       11 UNK         0.1400 
     19 N           0.0931  -22.4257  -46.2106 N.am      11 UNK        -0.5000 
     20 C           0.5133  -23.5917  -45.6983 C.2       10 UNK         0.5000 
     21 O           0.3693  -24.6783  -46.2569 O.2       10 UNK        -0.5000 
     22 CA          1.1497  -23.5410  -44.2999 C.3       10 UNK         0.1400 
     23 CB          2.6384  -23.1733  -44.3872 C.3       10 UNK        -0.1800 
     24 N           0.4514  -22.5986  -43.4251 N.am      10 UNK        -0.5000 
     25 C          -0.7747  -22.8144  -42.9233 C.2       9 UNK         0.5000 
     26 O          -1.4156  -23.8475  -43.1140 O.2       9 UNK        -0.5000 
     27 CA         -1.4170  -21.6689  -42.1167 C.3       9 UNK         0.1400 
     28 CB         -1.0046  -21.7509  -40.6398 C.3       9 UNK        -0.1800 
     29 N          -1.0810  -20.3443  -42.6389 N.am      9 UNK        -0.5000 
     30 C          -1.3901  -19.9090  -43.8680 C.2       8 UNK         0.5000 
     31 O          -2.0701  -20.5539  -44.6655 O.2       8 UNK        -0.5000 
     32 CA         -0.8057  -18.5522  -44.3040 C.3       8 UNK         0.1400 
     33 CB         -1.8678  -17.4538  -44.1765 C.3       8 UNK        -0.1800 
     34 N           0.4139  -18.1495  -43.5889 N.am      8 UNK        -0.5000 
     35 C           1.5640  -18.8421  -43.5737 C.2       7 UNK         0.5000 
     36 O           1.7033  -19.9201  -44.1517 O.2       7 UNK        -0.5000 
     37 CA          2.7369  -18.2753  -42.7508 C.3       7 UNK         0.1400 
     38 CB          4.0057  -18.1059  -43.6025 C.3       7 UNK        -0.1800 
     39 N           2.4298  -16.9905  -42.1202 N.am      7 UNK        -0.5000 
     40 C           2.1557  -16.8162  -40.8204 C.2       6 UNK         0.5000 
     41 O           2.0075  -17.7492  -40.0297 O.2       6 UNK        -0.5000 
     42 CA          2.0203  -15.3575  -40.3251 C.3       6 UNK         0.1400 
     43 CB          2.3562  -15.1997  -38.8278 C.3       6 UNK        -0.1800 
     44 N           2.7743  -14.3900  -41.1330 N.am      6 UNK        -0.5000 
     45 C           4.1013  -14.3420  -41.3412 C.2       5 UNK         0.5000 
     46 O           4.9059  -15.0921  -40.7873 O.2       5 UNK        -0.5000 
     47 CA          4.6202  -13.3069  -42.3628 C.3       5 UNK         0.1400 
     48 CB          5.4869  -13.9888  -43.4359 C.3       5 UNK        -0.1800 
     49 N           3.5220  -12.6135  -43.0381 N.am      5 UNK        -0.5000 
     50 C           3.1381  -11.3492  -42.8152 C.2       4 UNK         0.5000 
     51 O           3.7262  -10.5785  -42.0561 O.2       4 UNK        -0.5000 
     52 CA          1.8629  -10.8685  -43.5431 C.3       4 UNK         0.1400 
     53 CB          2.2313  -10.1202  -44.8329 C.3       4 UNK        -0.1800 
     54 N           0.9326  -11.9513  -43.8761 N.am      4 UNK        -0.5000 
     55 C           0.3166  -12.7411  -42.9836 C.2       3 UNK         0.5000 
     56 O           0.4070  -12.5918  -41.7658 O.2       3 UNK        -0.5000 
     57 CA         -0.4645  -13.9500  -43.5330 C.3       3 UNK         0.1400 
     58 CB         -1.9565  -13.6062  -43.6527 C.3       3 UNK        -0.1800 
     59 N           0.0301  -14.4273  -44.8274 N.am      3 UNK        -0.5000 
     60 C           1.2747  -14.8506  -45.0945 C.2       2 UNK         0.5000 
     61 O           2.1373  -14.9831  -44.2250 O.2       2 UNK        -0.5000 
     62 CA          1.6325  -15.1468  -46.5674 C.3       2 UNK         0.1400 
     63 CB          1.9156  -16.6404  -46.7618 C.3       2 UNK        -0.1800 
     64 N           0.6063  -14.7535  -47.5350 N.am      2 UNK        -0.5000 
     65 C           0.1893  -13.5073  -47.7933 C.2       1 UNK         0.5000 
     66 O           0.6435  -12.5017  -47.2403 O.2       1 UNK        -0.5000 
     67 C          -1.9951  -23.0078  -47.4135 C.2       11 UNK         0.5000 
     68 O          -2.3363  -23.7401  -48.3415 O.2       11 UNK        -0.5000 
     69 N          -2.7246  -22.8185  -46.3048 N.am      12 UNK        -0.5000 
     70 CA         -3.9975  -23.4754  -46.0166 C.3       12 UNK         0.1400 
     71 CB         -4.6151  -22.8640  -44.7506 C.3       12 UNK        -0.1800 
     72 C          -3.8604  -25.0024  -45.8835 C.2       12 UNK         0.5000 
     73 O          -4.6620  -25.7291  -46.4702 O.2       12 UNK        -0.5000 
     74 N          -2.8281  -25.4632  -45.1607 N.am      13 UNK        -0.5000 
     75 CA         -2.5011  -26.8823  -44.9879 C.3       13 UNK         0.1400 
     76 CB         -1.3812  -27.0309  -43.9473 C.3       13 UNK        -0.1800 
     77 C          -2.1121  -27.5801  -46.3053 C.2       13 UNK         0.5000 
     78 O          -2.4930  -28.7314  -46.5196 O.2       13 UNK        -0.5000 
     79 N          -1.3912  -26.8610  -47.1756 N.am      14 UNK        -0.5000 
     80 CA         -1.0202  -27.3011  -48.5217 C.3       14 UNK         0.1400 
     81 CB          0.1487  -26.4337  -49.0165 C.3       14 UNK        -0.1800 
     82 C          -2.1840  -27.2489  -49.5335 C.2       14 UNK         0.5000 
     83 O          -2.0446  -27.8001  -50.6260 O.2       14 UNK        -0.5000 
     84 N          -3.2857  -26.5719  -49.1708 N.am      15 UNK        -0.5000 
     85 CA         -4.4414  -26.2301  -50.0080 C.3       15 UNK         0.1400 
     86 CB         -5.2297  -27.4929  -50.4125 C.3       15 UNK        -0.1800 
     87 C          -4.0374  -25.3465  -51.2078 C.2       15 UNK         0.5000 
     88 O          -4.5013  -25.5581  -52.3293 O.2       15 UNK        -0.5000 
     89 N          -3.1540  -24.3798  -50.9370 N.am      16 UNK        -0.5000 
     90 CA         -2.5132  -23.5020  -51.9086 C.3       16 UNK         0.1400 
     91 CB         -1.1014  -24.0372  -52.2128 C.3       16 UNK        -0.1800 
     92 C          -2.5051  -22.0545  -51.3914 C.2       16 UNK         0.5000 
     93 O          -1.5117  -21.3476  -51.5480 O.2       16 UNK        -0.5000 
     94 N          -3.6170  -21.6390  -50.7746 N.am      17 UNK        -0.5000 
     95 CA         -3.8728  -20.2669  -50.3390 C.3       17 UNK         0.1400 
     96 CB         -4.7678  -20.3147  -49.0860 C.3       17 UNK        -0.1800 
     97 C          -4.4699  -19.4111  -51.4774 C.2       17 UNK         0.5000 
     98 O          -4.3963  -19.7976  -52.6499 O.2       17 UNK        -0.5000 
     99 N          -5.0414  -18.2582  -51.0978 N.am      18 UNK        -0.5000 
    100 CA        -5.6378  -17.2358  -51.9600 C.3       18 UNK         0.1400 
    101 CB        -6.2978  -16.1565  -51.0858 C.3       18 UNK        -0.1800 
    102 C         -6.6540  -17.8093  -52.9609 C.2       18 UNK         0.5000 
    103 O         -7.6951  -18.3221  -52.5468 O.2       18 UNK        -0.5000 
    104 N         -6.3012  -17.7350  -54.2508 N.am      19 UNK        -0.5000 
    105 CA        -7.0401  -18.2257  -55.4209 C.3       19 UNK         0.1400 
    106 CB        -8.4144  -17.5351  -55.5407 C.3       19 UNK        -0.1800 
    107 C         -7.1584  -19.7629  -55.5241 C.2       19 UNK         0.5000 
    108 O         -7.7211  -20.2477  -56.5071 O.2       19 UNK        -0.5000 
    109 N         -6.6111  -20.5103  -54.5546 N.am      20 UNK        -0.5000 
    110 CA        -6.5263  -21.9696  -54.5932 C.3       20 UNK         0.1400 
    111 CB        -6.4232  -22.5279  -53.1660 C.3       20 UNK        -0.1800 
    112 C         -5.3328  -22.4173  -55.4515 C.2       20 UNK         0.5000 
    113 O         -5.4740  -23.3551  -56.2367 O.2       20 UNK        -0.5000 
    114 N         -4.2050  -21.7035  -55.3214 N.am      21 UNK        -0.5000 
    115 CA        -3.0134  -21.8474  -56.1601 C.3       21 UNK         0.1400 
    116 CB        -2.3308  -23.2172  -55.9625 C.3       21 UNK        -0.1800 
    117 C         -2.0001  -20.7238  -55.8985 C.2       21 UNK         0.5000 
    118 O         -1.3435  -20.2827  -56.8426 O.2       21 UNK        -0.5000 
    119 N         -1.8759  -20.2993  -54.6322 N.am      22 UNK        -0.5000 
    120 CA        -0.8041  -19.4290  -54.1166 C.3       22 UNK         0.1400 
    121 C          0.6201  -20.0687  -54.2214 C.2       22 UNK         0.5000 
    122 N          1.6870  -19.3225  -53.9613 N.am      22 UNK        -0.7600 
    123 O          0.7819  -21.2563  -54.4952 O.2       22 UNK        -0.5000 
    124 C124       -0.8827  -17.9717  -54.6574 C.3       23 UNK        -0.0398 
    125 S125       -2.3653  -17.0865  -54.0632 S.3       23 UNK        -0.2404 
    126 C126       -1.6547  -15.9388  -52.8334 C.3       23 UNK        -0.0205 
    127 H127       -0.1618  -10.6601  -52.2617 H         1 UNK         0.0600 
    128 H128        0.9798  -10.0777  -51.0452 H         1 UNK         0.0600 
    129 H129       -0.7577   -9.9197  -50.7735 H         1 UNK         0.0600 
    130 H130       -1.4954  -11.4082  -49.2924 H         1 UNK         0.3000 
    131 H131       -0.8885  -14.2231  -49.4917 H         1 UNK         0.0600 
    132 H132       -2.5612  -12.6074  -47.5093 H         1 UNK         0.0800 
    133 H133       -3.1600  -13.5116  -48.8670 H         1 UNK         0.0800 
    134 H134       -3.6751  -17.0427  -47.4808 H         1 UNK         0.0800 
    135 H135       -4.2752  -15.7857  -48.5301 H         1 UNK         0.0800 
    136 H136       -3.2502  -15.4314  -50.6967 H         1 UNK         0.1150 
    137 H137        0.1488  -17.7529  -51.8573 H         1 UNK         0.1150 
    138 H138       -1.3386  -17.9664  -47.8372 H         1 UNK         0.1150 
    139 H139        0.5289  -19.8482  -50.3082 H         1 UNK         0.0800 
    140 H140        1.5821  -18.5751  -49.7471 H         1 UNK         0.0800 
    141 H141       -1.2999  -20.7713  -48.8768 H         1 UNK         0.0800 
    142 H142       -1.5667  -20.3084  -47.2200 H         1 UNK         0.0800 
    143 H143       -0.0421  -22.7587  -48.2516 H         1 UNK         0.0600 
    144 H144        0.2657  -21.5779  -45.6890 H         1 UNK         0.3000 
    145 H145        1.0749  -24.5373  -43.8591 H         1 UNK         0.0600 
    146 H146        3.0945  -23.1319  -43.3980 H         1 UNK         0.0600 
    147 H147        3.1863  -23.9165  -44.9677 H         1 UNK         0.0600 
    148 H148        2.7919  -22.2076  -44.8691 H         1 UNK         0.0600 
    149 H149        0.8893  -21.6945  -43.2952 H         1 UNK         0.3000 
    150 H150       -2.5008  -21.7876  -42.1776 H         1 UNK         0.0600 
    151 H151       -1.2594  -22.7238  -40.2172 H         1 UNK         0.0600 
    152 H152       -1.5171  -20.9950  -40.0445 H         1 UNK         0.0600 
    153 H153        0.0693  -21.6082  -40.5125 H         1 UNK         0.0600 
    154 H154       -0.5213  -19.7490  -42.0466 H         1 UNK         0.3000 
    155 H155       -0.5498  -18.6498  -45.3598 H         1 UNK         0.0600 
    156 H156       -1.5454  -16.5480  -44.6818 H         1 UNK         0.0600 
    157 H157       -2.8071  -17.7552  -44.6427 H         1 UNK         0.0600 
    158 H158       -2.0786  -17.2095  -43.1350 H         1 UNK         0.0600 
    159 H159        0.3774  -17.2850  -43.0712 H         1 UNK         0.3000 
    160 H160        2.9576  -19.0254  -41.9888 H         1 UNK         0.0600 
    161 H161        4.8715  -17.9151  -42.9681 H         1 UNK         0.0600 
    162 H162        3.9218  -17.2690  -44.2934 H         1 UNK         0.0600 
    163 H163        4.2240  -19.0019  -44.1851 H         1 UNK         0.0600 
    164 H164        2.4965  -16.1738  -42.7217 H         1 UNK         0.3000 
    165 H165        0.9685  -15.0980  -40.4511 H         1 UNK         0.0600 
    166 H166        2.2448  -14.1642  -38.5065 H         1 UNK         0.0600 
    167 H167        1.6888  -15.8022  -38.2106 H         1 UNK         0.0600 
    168 H168        3.3767  -15.5126  -38.6056 H         1 UNK         0.0600 
    169 H169        2.2053  -13.6937  -41.5978 H         1 UNK         0.3000 
    170 H170        5.2445  -12.5973  -41.8165 H         1 UNK         0.0600 
    171 H171        5.8612  -13.2636  -44.1586 H         1 UNK         0.0600 
    172 H172        4.9265  -14.7483  -43.9827 H         1 UNK         0.0600 
    173 H173        6.3542  -14.4777  -42.9907 H         1 UNK         0.0600 
    174 H174        2.9693  -13.1903  -43.6622 H         1 UNK         0.3000 
    175 H175        1.3456  -10.1748  -42.8772 H         1 UNK         0.0600 
    176 H176        1.3458   -9.7059  -45.3154 H         1 UNK         0.0600 
    177 H177        2.7265  -10.7763  -45.5501 H         1 UNK         0.0600 
    178 H178        2.9067   -9.2892  -44.6250 H         1 UNK         0.0600 
    179 H179        0.8036  -12.1459  -44.8610 H         1 UNK         0.3000 
    180 H180       -0.3549  -14.7649  -42.8150 H         1 UNK         0.0600 
    181 H181       -2.1326  -12.8389  -44.4077 H         1 UNK         0.0600 
    182 H182       -2.3498  -13.2324  -42.7063 H         1 UNK         0.0600 
    183 H183       -2.5476  -14.4813  -43.9204 H         1 UNK         0.0600 
    184 H184       -0.6198  -14.3701  -45.5989 H         1 UNK         0.3000 
    185 H185        2.5415  -14.5881  -46.7980 H         1 UNK         0.0600 
    186 H186        1.0542  -17.2456  -46.4818 H         1 UNK         0.0600 
    187 H187        2.1633  -16.8669  -47.7989 H         1 UNK         0.0600 
    188 H188        2.7582  -16.9667  -46.1565 H         1 UNK         0.0600 
    189 H189        0.1545  -15.5150  -48.0218 H         1 UNK         0.3000 
    190 H190       -2.3916  -22.1539  -45.6106 H         1 UNK         0.3000 
    191 H191       -4.6701  -23.2739  -46.8531 H         1 UNK         0.0600 
    192 H192       -4.7732  -21.7917  -44.8686 H         1 UNK         0.0600 
    193 H193       -5.5838  -23.3146  -44.5316 H         1 UNK         0.0600 
    194 H194       -3.9781  -23.0129  -43.8786 H         1 UNK         0.0600 
    195 H195       -2.2377  -24.8008  -44.6671 H         1 UNK         0.3000 
    196 H196       -3.3911  -27.3827  -44.6010 H         1 UNK         0.0600 
    197 H197       -1.1274  -28.0803  -43.7922 H         1 UNK         0.0600 
    198 H198       -1.6836  -26.6244  -42.9822 H         1 UNK         0.0600 
    199 H199       -0.4725  -26.5151  -44.2585 H         1 UNK         0.0600 
    200 H200       -1.0555  -25.9451  -46.8933 H         1 UNK         0.3000 
    201 H201       -0.6786  -28.3368  -48.4679 H         1 UNK         0.0600 
    202 H202        1.0089  -26.5150  -48.3518 H         1 UNK         0.0600 
    203 H203       -0.1308  -25.3811  -49.0746 H         1 UNK         0.0600 
    204 H204        0.4762  -26.7418  -50.0102 H         1 UNK         0.0600 
    205 H205       -3.2907  -26.1583  -48.2473 H         1 UNK         0.3000 
    206 H206       -5.0966  -25.6187  -49.3861 H         1 UNK         0.0600 
    207 H207       -5.4976  -28.0856  -49.5378 H         1 UNK         0.0600 
    208 H208       -6.1572  -27.2262  -50.9203 H         1 UNK         0.0600 
    209 H209       -4.6600  -28.1305  -51.0888 H         1 UNK         0.0600 
    210 H210       -2.8518  -24.2505  -49.9708 H         1 UNK         0.3000 
    211 H211       -3.0899  -23.4901  -52.8348 H         1 UNK         0.0600 
    212 H212       -0.4812  -24.0550  -51.3159 H         1 UNK         0.0600 
    213 H213       -0.5925  -23.4174  -52.9521 H         1 UNK         0.0600 
    214 H214       -1.1426  -25.0511  -52.6111 H         1 UNK         0.0600 
    215 H215       -4.3857  -22.2871  -50.6923 H         1 UNK         0.3000 
    216 H216       -2.9318  -19.7904  -50.0642 H         1 UNK         0.0600 
    217 H217       -4.8663  -19.3325  -48.6230 H         1 UNK         0.0600 
    218 H218       -4.3456  -20.9756  -48.3285 H         1 UNK         0.0600 
    219 H219       -5.7700  -20.6755  -49.3211 H         1 UNK         0.0600 
    220 H220       -5.0714  -18.0565  -50.1108 H         1 UNK         0.3000 
    221 H221       -4.8264  -16.7626  -52.5137 H         1 UNK         0.0600 
    222 H222       -7.0610  -16.5795  -50.4313 H         1 UNK         0.0600 
    223 H223       -5.5688  -15.6433  -50.4623 H         1 UNK         0.0600 
    224 H224       -6.7804  -15.3969  -51.7024 H         1 UNK         0.0600 
    225 H225       -5.3956  -17.3379  -54.4624 H         1 UNK         0.3000 
    226 H226       -6.4488  -17.9202  -56.2853 H         1 UNK         0.0600 
    227 H227       -8.3170  -16.4504  -55.4941 H         1 UNK         0.0600 
    228 H228       -8.8907  -17.7755  -56.4919 H         1 UNK         0.0600 
    229 H229       -9.0976  -17.8461  -54.7502 H         1 UNK         0.0600 
    230 H230       -6.1350  -20.0457  -53.7901 H         1 UNK         0.3000 
    231 H231       -7.4388  -22.3691  -55.0412 H         1 UNK         0.0600 
    232 H232       -5.4965  -22.2280  -52.6819 H         1 UNK         0.0600 
    233 H233       -6.4465  -23.6182  -53.1750 H         1 UNK         0.0600 
    234 H234       -7.2531  -22.1877  -52.5465 H         1 UNK         0.0600 
    235 H235       -4.2119  -20.9156  -54.6850 H         1 UNK         0.3000 
    236 H236       -3.3282  -21.7635  -57.2024 H         1 UNK         0.0600 
    237 H237       -2.9728  -24.0450  -56.2608 H         1 UNK         0.0600 
    238 H238       -1.4243  -23.2885  -56.5650 H         1 UNK         0.0600 
    239 H239       -2.0406  -23.3745  -54.9256 H         1 UNK         0.0600 
    240 H240       -2.4447  -20.7191  -53.9123 H         1 UNK         0.3000 
    241 H241       -0.9906  -19.3825  -53.0464 H         1 UNK         0.0600 
    242 H242        1.6230  -18.3472  -53.7219 H         1 UNK         0.3800 
    243 H243        2.5964  -19.7543  -54.0173 H         1 UNK         0.3800 
    244 H244       -0.0068  -17.3904  -54.3737 H         1 UNK         0.0800 
    245 H245       -0.8882  -17.9628  -55.7473 H         1 UNK         0.0800 
    246 H246       -2.2793  -15.0446  -52.8109 H         1 UNK         0.0800 
    247 H247       -0.6689  -15.5944  -53.1478 H         1 UNK         0.0800 
@<TRIPOS>BOND
     1    1    2 1    
     2    1  127 1    
     3    1  128 1    
     4    1  129 1    
     5    2    3 2    
     6    2    4 am   BACKBONE|DICT|INTERRES
     7    4    5 1    
     8    4  130 1    
     9    5    6 1    
    10    5   65 1    
    11    5  131 1    
    12    6    7 1    
    13    6  132 1    
    14    6  133 1    
    15    7    8 1    
    16    8    9 1    
    17    8  134 1    
    18    8  135 1    
    19    9   10 ar   
    20    9   14 ar   
    21   10   11 ar   
    22   10  136 1    
    23   11   12 ar   
    24   11  126 1    
    25   12   13 ar   
    26   12  137 1    
    27   13   14 ar   
    28   13   15 1    
    29   14  138 1    
    30   15   16 1    
    31   15  139 1    
    32   15  140 1    
    33   16   17 1    
    34   17   18 1    
    35   17  141 1    
    36   17  142 1    
    37   18   19 1    
    38   18   67 1    
    39   18  143 1    
    40   19   20 am   BACKBONE|DICT|INTERRES
    41   19  144 1    
    42   20   21 2    
    43   20   22 1    
    44   22   23 1    
    45   22   24 1    
    46   22  145 1    
    47   23  146 1    
    48   23  147 1    
    49   23  148 1    
    50   24   25 am   BACKBONE|DICT|INTERRES
    51   24  149 1    
    52   25   26 2    
    53   25   27 1    
    54   27   28 1    
    55   27   29 1    
    56   27  150 1    
    57   28  151 1    
    58   28  152 1    
    59   28  153 1    
    60   29   30 am   BACKBONE|DICT|INTERRES
    61   29  154 1    
    62   30   31 2    
    63   30   32 1    
    64   32   33 1    
    65   32   34 1    
    66   32  155 1    
    67   33  156 1    
    68   33  157 1    
    69   33  158 1    
    70   34   35 am   BACKBONE|DICT|INTERRES
    71   34  159 1    
    72   35   36 2    
    73   35   37 1    
    74   37   38 1    
    75   37   39 1    
    76   37  160 1    
    77   38  161 1    
    78   38  162 1    
    79   38  163 1    
    80   39   40 am   BACKBONE|DICT|INTERRES
    81   39  164 1    
    82   40   41 2    
    83   40   42 1    
    84   42   43 1    
    85   42   44 1    
    86   42  165 1    
    87   43  166 1    
    88   43  167 1    
    89   43  168 1    
    90   44   45 am   BACKBONE|DICT|INTERRES
    91   44  169 1    
    92   45   46 2    
    93   45   47 1    
    94   47   48 1    
    95   47   49 1    
    96   47  170 1    
    97   48  171 1    
    98   48  172 1    
    99   48  173 1    
   100   49   50 am   BACKBONE|DICT|INTERRES
   101   49  174 1    
   102   50   51 2    
   103   50   52 1    
   104   52   53 1    
   105   52   54 1    
   106   52  175 1    
   107   53  176 1    
   108   53  177 1    
   109   53  178 1    
   110   54   55 am   BACKBONE|DICT|INTERRES
   111   54  179 1    
   112   55   56 2    
   113   55   57 1    
   114   57   58 1    
   115   57   59 1    
   116   57  180 1    
   117   58  181 1    
   118   58  182 1    
   119   58  183 1    
   120   59   60 am   BACKBONE|DICT|INTERRES
   121   59  184 1    
   122   60   61 2    
   123   60   62 1    
   124   62   63 1    
   125   62   64 1    
   126   62  185 1    
   127   63  186 1    
   128   63  187 1    
   129   63  188 1    
   130   64   65 am   BACKBONE|DICT|INTERRES
   131   64  189 1    
   132   65   66 2    
   133   67   68 2    
   134   67   69 am   BACKBONE|DICT|INTERRES
   135   69   70 1    
   136   69  190 1    
   137   70   71 1    
   138   70   72 1    
   139   70  191 1    
   140   71  192 1    
   141   71  193 1    
   142   71  194 1    
   143   72   73 2    
   144   72   74 am   BACKBONE|DICT|INTERRES
   145   74   75 1    
   146   74  195 1    
   147   75   76 1    
   148   75   77 1    
   149   75  196 1    
   150   76  197 1    
   151   76  198 1    
   152   76  199 1    
   153   77   78 2    
   154   77   79 am   BACKBONE|DICT|INTERRES
   155   79   80 1    
   156   79  200 1    
   157   80   81 1    
   158   80   82 1    
   159   80  201 1    
   160   81  202 1    
   161   81  203 1    
   162   81  204 1    
   163   82   83 2    
   164   82   84 am   BACKBONE|DICT|INTERRES
   165   84   85 1    
   166   84  205 1    
   167   85   86 1    
   168   85   87 1    
   169   85  206 1    
   170   86  207 1    
   171   86  208 1    
   172   86  209 1    
   173   87   88 2    
   174   87   89 am   BACKBONE|DICT|INTERRES
   175   89   90 1    
   176   89  210 1    
   177   90   91 1    
   178   90   92 1    
   179   90  211 1    
   180   91  212 1    
   181   91  213 1    
   182   91  214 1    
   183   92   93 2    
   184   92   94 am   BACKBONE|DICT|INTERRES
   185   94   95 1    
   186   94  215 1    
   187   95   96 1    
   188   95   97 1    
   189   95  216 1    
   190   96  217 1    
   191   96  218 1    
   192   96  219 1    
   193   97   98 2    
   194   97   99 am   BACKBONE|DICT|INTERRES
   195   99  100 1    
   196   99  220 1    
   197  100  101 1    
   198  100  102 1    
   199  100  221 1    
   200  101  222 1    
   201  101  223 1    
   202  101  224 1    
   203  102  103 2    
   204  102  104 am   BACKBONE|DICT|INTERRES
   205  104  105 1    
   206  104  225 1    
   207  105  106 1    
   208  105  107 1    
   209  105  226 1    
   210  106  227 1    
   211  106  228 1    
   212  106  229 1    
   213  107  108 2    
   214  107  109 am   BACKBONE|DICT|INTERRES
   215  109  110 1    
   216  109  230 1    
   217  110  111 1    
   218  110  112 1    
   219  110  231 1    
   220  111  232 1    
   221  111  233 1    
   222  111  234 1    
   223  112  113 2    
   224  112  114 am   BACKBONE|DICT|INTERRES
   225  114  115 1    
   226  114  235 1    
   227  115  116 1    
   228  115  117 1    
   229  115  236 1    
   230  116  237 1    
   231  116  238 1    
   232  116  239 1    
   233  117  118 2    
   234  117  119 am   BACKBONE|DICT|INTERRES
   235  119  120 1    
   236  119  240 1    
   237  120  121 1    
   238  120  124 1    
   239  120  241 1    
   240  121  122 am   BACKBONE|DICT|INTERRES
   241  121  123 2    
   242  122  242 1    
   243  122  243 1    
   244  124  125 1    
   245  124  244 1    
   246  124  245 1    
   247  125  126 1    
   248  126  246 1    
   249  126  247 1    
@<TRIPOS>SUBSTRUCTURE
     1 UNK         1 GROUP             0       ****    0 ROOT    
