@<TRIPOS>MOLECULE
3R540
247   249    1
SMALL
USER_CHARGES


@<TRIPOS>ATOM
      1 CA         -4.1951  -20.9140  -44.6050 C.3       0 UNK        -0.1800 
      2 C          -3.6348  -19.5463  -44.9551 C.2       0 UNK         0.5000 
      3 O          -4.0541  -18.5466  -44.3724 O.2       0 UNK        -0.5000 
      4 N          -2.6492  -19.4940  -45.8612 N.am      1 UNK        -0.5000 
      5 CA         -1.8844  -18.2777  -46.1682 C.3       1 UNK         0.1400 
      6 C6         -1.0037  -18.4160  -47.4289 C.3       23 UNK        -0.0398 
      7 S7         -1.9810  -18.5310  -48.9575 S.3       23 UNK        -0.2404 
      8 C8         -0.6688  -18.4577  -50.2179 C.3       23 UNK        -0.0205 
      9 C9         -0.0133  -19.8132  -50.4235 C.ar      23 UNK        -0.0193 
     10 C10        -0.5466  -20.7142  -51.3474 C.ar      23 UNK        -0.1150 
     11 C11         0.0429  -21.9694  -51.5425 C.ar      23 UNK        -0.0193 
     12 C12         1.1496  -22.3244  -50.7642 C.ar      23 UNK        -0.1150 
     13 C13         1.6866  -21.4439  -49.8194 C.ar      23 UNK        -0.0193 
     14 C14         1.1156  -20.1728  -49.6853 C.ar      23 UNK        -0.1150 
     15 C15         2.8719  -21.9190  -48.9719 C.3       23 UNK        -0.0205 
     16 S16         3.2437  -20.9588  -47.4570 S.3       23 UNK        -0.2404 
     17 C17         1.6958  -21.1075  -46.4987 C.3       23 UNK        -0.0398 
     18 CA          1.6676  -22.2937  -45.5072 C.3       11 UNK         0.1400 
     19 N           2.7957  -22.2612  -44.5689 N.am      11 UNK        -0.5000 
     20 C           3.3560  -23.3361  -43.9959 C.2       10 UNK         0.5000 
     21 O           2.9086  -24.4759  -44.1288 O.2       10 UNK        -0.5000 
     22 CA          4.6066  -23.1181  -43.1206 C.3       10 UNK         0.1400 
     23 CB          5.8794  -23.3856  -43.9382 C.3       10 UNK        -0.1800 
     24 N           4.6909  -21.7769  -42.5453 N.am      10 UNK        -0.5000 
     25 C           3.8788  -21.2957  -41.5951 C.2       9 UNK         0.5000 
     26 O           3.0098  -21.9668  -41.0383 O.2       9 UNK        -0.5000 
     27 CA          4.0544  -19.8119  -41.2078 C.3       9 UNK         0.1400 
     28 CB          4.8308  -19.6959  -39.8872 C.3       9 UNK        -0.1800 
     29 N           4.7126  -18.9733  -42.2168 N.am      9 UNK        -0.5000 
     30 C           4.3029  -18.7776  -43.4778 C.2       8 UNK         0.5000 
     31 O           3.3483  -19.3653  -43.9920 O.2       8 UNK        -0.5000 
     32 CA          5.1607  -17.8059  -44.3102 C.3       8 UNK         0.1400 
     33 CB          6.4276  -18.5190  -44.8102 C.3       8 UNK        -0.1800 
     34 N           4.4542  -17.2592  -45.4675 N.am      8 UNK        -0.5000 
     35 C           3.3682  -16.4780  -45.4268 C.2       7 UNK         0.5000 
     36 O           2.8432  -16.0738  -44.3851 O.2       7 UNK        -0.5000 
     37 CA          2.7881  -16.0736  -46.7919 C.3       7 UNK         0.1400 
     38 CB          2.5482  -17.2930  -47.6995 C.3       7 UNK        -0.1800 
     39 N           1.5367  -15.3529  -46.5932 N.am      7 UNK        -0.5000 
     40 C           1.0096  -14.4526  -47.4315 C.2       6 UNK         0.5000 
     41 O           1.5183  -14.1461  -48.5102 O.2       6 UNK        -0.5000 
     42 CA         -0.3064  -13.7781  -47.0015 C.3       6 UNK         0.1400 
     43 CB         -1.4963  -14.3721  -47.7742 C.3       6 UNK        -0.1800 
     44 N          -0.5579  -13.9367  -45.5717 N.am      6 UNK        -0.5000 
     45 C          -0.1435  -13.1095  -44.6049 C.2       5 UNK         0.5000 
     46 O           0.4779  -12.0667  -44.8165 O.2       5 UNK        -0.5000 
     47 CA         -0.4884  -13.5413  -43.1622 C.3       5 UNK         0.1400 
     48 CB         -0.4582  -12.3762  -42.1516 C.3       5 UNK        -0.1800 
     49 N          -1.7546  -14.2803  -43.0874 N.am      5 UNK        -0.5000 
     50 C          -2.9845  -13.8340  -43.3897 C.2       4 UNK         0.5000 
     51 O          -3.2405  -12.6659  -43.6836 O.2       4 UNK        -0.5000 
     52 CA         -4.1239  -14.8744  -43.4038 C.3       4 UNK         0.1400 
     53 CB         -4.5292  -15.1931  -44.8518 C.3       4 UNK        -0.1800 
     54 N          -3.7822  -16.1278  -42.7282 N.am      4 UNK        -0.5000 
     55 C          -3.6702  -16.2758  -41.4013 C.2       3 UNK         0.5000 
     56 O          -3.8956  -15.3782  -40.5891 O.2       3 UNK        -0.5000 
     57 CA         -3.1921  -17.6504  -40.9037 C.3       3 UNK         0.1400 
     58 CB         -4.3696  -18.6302  -40.7854 C.3       3 UNK        -0.1800 
     59 N          -2.1643  -18.2297  -41.7702 N.am      3 UNK        -0.5000 
     60 C          -0.8976  -17.7967  -41.8500 C.2       2 UNK         0.5000 
     61 O          -0.4550  -16.8436  -41.2098 O.2       2 UNK        -0.5000 
     62 CA          0.0200  -18.5558  -42.8263 C.3       2 UNK         0.1400 
     63 CB          0.4235  -19.9030  -42.2097 C.3       2 UNK        -0.1800 
     64 N          -0.6174  -18.7952  -44.1212 N.am      2 UNK        -0.5000 
     65 C          -1.0298  -17.8352  -44.9626 C.2       1 UNK         0.5000 
     66 O          -0.8057  -16.6369  -44.7975 O.2       1 UNK        -0.5000 
     67 C           0.3042  -22.3938  -44.7803 C.2       11 UNK         0.5000 
     68 O          -0.6387  -21.6757  -45.1240 O.2       11 UNK        -0.5000 
     69 N           0.2154  -23.2720  -43.7750 N.am      12 UNK        -0.5000 
     70 CA         -0.9985  -23.5351  -42.9993 C.3       12 UNK         0.1400 
     71 CB         -0.6006  -24.1469  -41.6483 C.3       12 UNK        -0.1800 
     72 C          -1.9901  -24.4489  -43.7440 C.2       12 UNK         0.5000 
     73 O          -3.1908  -24.3795  -43.4843 O.2       12 UNK        -0.5000 
     74 N          -1.4731  -25.2760  -44.6633 N.am      13 UNK        -0.5000 
     75 CA         -2.2487  -26.1834  -45.5142 C.3       13 UNK         0.1400 
     76 CB         -1.3463  -27.3625  -45.9133 C.3       13 UNK        -0.1800 
     77 C          -2.8273  -25.4954  -46.7691 C.2       13 UNK         0.5000 
     78 O          -3.6102  -26.1157  -47.4906 O.2       13 UNK        -0.5000 
     79 N          -2.4163  -24.2465  -47.0232 N.am      14 UNK        -0.5000 
     80 CA         -2.8660  -23.4115  -48.1349 C.3       14 UNK         0.1400 
     81 CB         -1.7751  -22.3613  -48.4051 C.3       14 UNK        -0.1800 
     82 C          -4.2347  -22.7537  -47.8544 C.2       14 UNK         0.5000 
     83 O          -4.9067  -23.0896  -46.8773 O.2       14 UNK        -0.5000 
     84 N          -4.6149  -21.8011  -48.7093 N.am      15 UNK        -0.5000 
     85 CA         -5.7679  -20.9269  -48.5460 C.3       15 UNK         0.1400 
     86 CB         -7.0391  -21.6140  -49.0736 C.3       15 UNK        -0.1800 
     87 C          -5.4764  -19.6447  -49.3285 C.2       15 UNK         0.5000 
     88 O          -4.8934  -19.7234  -50.4120 O.2       15 UNK        -0.5000 
     89 N          -5.9136  -18.4931  -48.8042 N.am      16 UNK        -0.5000 
     90 CA         -5.6999  -17.1774  -49.4196 C.3       16 UNK         0.1400 
     91 CB         -6.1677  -16.0832  -48.4492 C.3       16 UNK        -0.1800 
     92 C          -6.3782  -17.0209  -50.7963 C.2       16 UNK         0.5000 
     93 O          -5.8812  -16.2746  -51.6385 O.2       16 UNK        -0.5000 
     94 N          -7.4735  -17.7610  -51.0166 N.am      17 UNK        -0.5000 
     95 CA         -8.1711  -17.8568  -52.2992 C.3       17 UNK         0.1400 
     96 CB         -9.5619  -18.4652  -52.0624 C.3       17 UNK        -0.1800 
     97 C          -7.3989  -18.6782  -53.3523 C.2       17 UNK         0.5000 
     98 O          -7.6030  -18.4637  -54.5476 O.2       17 UNK        -0.5000 
     99 N          -6.5300  -19.5972  -52.9048 N.am      18 UNK        -0.5000 
    100 CA        -5.7134  -20.4524  -53.7685 C.3       18 UNK         0.1400 
    101 CB        -5.3980  -21.7683  -53.0387 C.3       18 UNK        -0.1800 
    102 C         -4.4141  -19.7663  -54.2239 C.2       18 UNK         0.5000 
    103 O         -3.7887  -20.2477  -55.1674 O.2       18 UNK        -0.5000 
    104 N         -4.0348  -18.6533  -53.5769 N.am      19 UNK        -0.5000 
    105 CA        -2.8020  -17.8932  -53.8107 C.3       19 UNK         0.1400 
    106 CB        -2.8065  -16.6469  -52.9130 C.3       19 UNK        -0.1800 
    107 C         -2.5671  -17.4885  -55.2797 C.2       19 UNK         0.5000 
    108 O         -1.4243  -17.4989  -55.7382 O.2       19 UNK        -0.5000 
    109 N         -3.6567  -17.1871  -55.9993 N.am      20 UNK        -0.5000 
    110 CA        -3.6572  -16.8608  -57.4259 C.3       20 UNK         0.1400 
    111 CB        -5.0443  -16.3247  -57.8113 C.3       20 UNK        -0.1800 
    112 C         -3.2652  -18.0441  -58.3350 C.2       20 UNK         0.5000 
    113 O         -2.7362  -17.8128  -59.4231 O.2       20 UNK        -0.5000 
    114 N         -3.5241  -19.2788  -57.8829 N.am      21 UNK        -0.5000 
    115 CA        -3.1259  -20.5094  -58.5643 C.3       21 UNK         0.1400 
    116 CB        -4.1660  -21.6083  -58.2929 C.3       21 UNK        -0.1800 
    117 C         -1.7246  -20.9596  -58.1183 C.2       21 UNK         0.5000 
    118 O         -0.9459  -21.4200  -58.9546 O.2       21 UNK        -0.5000 
    119 N         -1.4271  -20.8156  -56.8193 N.am      22 UNK        -0.5000 
    120 CA        -0.1205  -21.1335  -56.2198 C.3       22 UNK         0.1400 
    121 C          1.0338  -20.2176  -56.7165 C.2       22 UNK         0.5000 
    122 N          0.8054  -18.9235  -56.9059 N.am      22 UNK        -0.7600 
    123 O          2.1474  -20.6876  -56.9331 O.2       22 UNK        -0.5000 
    124 C124       -0.1657  -21.1246  -54.6724 C.3       23 UNK        -0.0398 
    125 S125       -1.4057  -22.2674  -53.9704 S.3       23 UNK        -0.2404 
    126 C126       -0.5014  -22.9816  -52.5525 C.3       23 UNK        -0.0205 
    127 H127       -4.2709  -21.0241  -43.5233 H         1 UNK         0.0600 
    128 H128       -3.5565  -21.7156  -44.9764 H         1 UNK         0.0600 
    129 H129       -5.1908  -21.0344  -45.0307 H         1 UNK         0.0600 
    130 H130       -2.3014  -20.3515  -46.2658 H         1 UNK         0.3000 
    131 H131       -2.6028  -17.4769  -46.3529 H         1 UNK         0.0600 
    132 H132       -0.3508  -17.5485  -47.5330 H         1 UNK         0.0800 
    133 H133       -0.3592  -19.2885  -47.3527 H         1 UNK         0.0800 
    134 H134       -1.1032  -18.1241  -51.1587 H         1 UNK         0.0800 
    135 H135        0.0729  -17.7052  -49.9479 H         1 UNK         0.0800 
    136 H136       -1.4290  -20.4336  -51.9040 H         1 UNK         0.1150 
    137 H137        1.5927  -23.3029  -50.8878 H         1 UNK         0.1150 
    138 H138        1.5253  -19.4664  -48.9832 H         1 UNK         0.1150 
    139 H139        2.7086  -22.9568  -48.6773 H         1 UNK         0.0800 
    140 H140        3.7624  -21.9159  -49.6014 H         1 UNK         0.0800 
    141 H141        0.8639  -21.1985  -47.1951 H         1 UNK         0.0800 
    142 H142        1.5495  -20.1685  -45.9619 H         1 UNK         0.0800 
    143 H143        1.7520  -23.2027  -46.1065 H         1 UNK         0.0600 
    144 H144        3.1758  -21.3399  -44.3737 H         1 UNK         0.3000 
    145 H145        4.5662  -23.8394  -42.3017 H         1 UNK         0.0600 
    146 H146        6.7720  -23.3067  -43.3173 H         1 UNK         0.0600 
    147 H147        5.8677  -24.3907  -44.3620 H         1 UNK         0.0600 
    148 H148        5.9809  -22.6818  -44.7656 H         1 UNK         0.0600 
    149 H149        5.3756  -21.1533  -42.9452 H         1 UNK         0.3000 
    150 H150        3.0594  -19.3969  -41.0484 H         1 UNK         0.0600 
    151 H151        5.8540  -20.0597  -39.9896 H         1 UNK         0.0600 
    152 H152        4.3528  -20.2789  -39.0986 H         1 UNK         0.0600 
    153 H153        4.8734  -18.6626  -39.5423 H         1 UNK         0.0600 
    154 H154        5.5265  -18.4683  -41.8965 H         1 UNK         0.3000 
    155 H155        5.4522  -16.9700  -43.6711 H         1 UNK         0.0600 
    156 H156        6.1837  -19.3607  -45.4605 H         1 UNK         0.0600 
    157 H157        7.0187  -18.9069  -43.9797 H         1 UNK         0.0600 
    158 H158        7.0694  -17.8381  -45.3697 H         1 UNK         0.0600 
    159 H159        4.7899  -17.5648  -46.3685 H         1 UNK         0.3000 
    160 H160        3.5102  -15.4065  -47.2672 H         1 UNK         0.0600 
    161 H161        1.9485  -18.0458  -47.1892 H         1 UNK         0.0600 
    162 H162        3.4864  -17.7650  -47.9919 H         1 UNK         0.0600 
    163 H163        2.0356  -17.0132  -48.6195 H         1 UNK         0.0600 
    164 H164        1.0931  -15.5165  -45.6967 H         1 UNK         0.3000 
    165 H165       -0.2334  -12.7163  -47.2453 H         1 UNK         0.0600 
    166 H166       -1.3570  -14.2673  -48.8509 H         1 UNK         0.0600 
    167 H167       -1.6275  -15.4329  -47.5625 H         1 UNK         0.0600 
    168 H168       -2.4256  -13.8640  -47.5158 H         1 UNK         0.0600 
    169 H169       -0.9785  -14.8156  -45.2839 H         1 UNK         0.3000 
    170 H170        0.2877  -14.2501  -42.8689 H         1 UNK         0.0600 
    171 H171        0.5363  -11.9318  -42.0994 H         1 UNK         0.0600 
    172 H172       -1.1549  -11.5829  -42.4230 H         1 UNK         0.0600 
    173 H173       -0.7125  -12.7190  -41.1487 H         1 UNK         0.0600 
    174 H174       -1.6606  -15.2663  -42.8839 H         1 UNK         0.3000 
    175 H175       -4.9830  -14.4317  -42.8956 H         1 UNK         0.0600 
    176 H176       -5.3470  -15.9133  -44.8849 H         1 UNK         0.0600 
    177 H177       -4.8650  -14.2953  -45.3721 H         1 UNK         0.0600 
    178 H178       -3.6950  -15.6059  -45.4188 H         1 UNK         0.0600 
    179 H179       -3.6574  -16.9446  -43.3197 H         1 UNK         0.3000 
    180 H180       -2.7631  -17.5142  -39.9085 H         1 UNK         0.0600 
    181 H181       -4.8402  -18.8175  -41.7512 H         1 UNK         0.0600 
    182 H182       -5.1376  -18.2368  -40.1182 H         1 UNK         0.0600 
    183 H183       -4.0463  -19.5884  -40.3783 H         1 UNK         0.0600 
    184 H184       -2.4550  -18.9898  -42.3661 H         1 UNK         0.3000 
    185 H185        0.9198  -17.9579  -42.9884 H         1 UNK         0.0600 
    186 H186        0.8148  -19.7747  -41.2007 H         1 UNK         0.0600 
    187 H187       -0.4239  -20.5840  -42.1375 H         1 UNK         0.0600 
    188 H188        1.1957  -20.3916  -42.8010 H         1 UNK         0.0600 
    189 H189       -0.8187  -19.7601  -44.3590 H         1 UNK         0.3000 
    190 H190        1.0372  -23.8234  -43.5540 H         1 UNK         0.3000 
    191 H191       -1.5094  -22.5895  -42.8076 H         1 UNK         0.0600 
    192 H192        0.0554  -23.4763  -41.0923 H         1 UNK         0.0600 
    193 H193       -1.4789  -24.3312  -41.0283 H         1 UNK         0.0600 
    194 H194       -0.0802  -25.0971  -41.7740 H         1 UNK         0.0600 
    195 H195       -0.4728  -25.2755  -44.7995 H         1 UNK         0.3000 
    196 H196       -3.0907  -26.5779  -44.9414 H         1 UNK         0.0600 
    197 H197       -1.8937  -28.0898  -46.5145 H         1 UNK         0.0600 
    198 H198       -0.9717  -27.8877  -45.0345 H         1 UNK         0.0600 
    199 H199       -0.4878  -27.0321  -46.4994 H         1 UNK         0.0600 
    200 H200       -1.8182  -23.8019  -46.3440 H         1 UNK         0.3000 
    201 H201       -2.9735  -24.0340  -49.0255 H         1 UNK         0.0600 
    202 H202       -1.9991  -21.7815  -49.2989 H         1 UNK         0.0600 
    203 H203       -1.6741  -21.6586  -47.5797 H         1 UNK         0.0600 
    204 H204       -0.8047  -22.8308  -48.5651 H         1 UNK         0.0600 
    205 H205       -4.0168  -21.5415  -49.4843 H         1 UNK         0.3000 
    206 H206       -5.8921  -20.6774  -47.4902 H         1 UNK         0.0600 
    207 H207       -7.2551  -22.5260  -48.5170 H         1 UNK         0.0600 
    208 H208       -7.9072  -20.9612  -48.9756 H         1 UNK         0.0600 
    209 H209       -6.9438  -21.8809  -50.1270 H         1 UNK         0.0600 
    210 H210       -6.3964  -18.5023  -47.9175 H         1 UNK         0.3000 
    211 H211       -4.6260  -17.0541  -49.5752 H         1 UNK         0.0600 
    212 H212       -7.2320  -16.1691  -48.2270 H         1 UNK         0.0600 
    213 H213       -5.9976  -15.0905  -48.8684 H         1 UNK         0.0600 
    214 H214       -5.6209  -16.1339  -47.5077 H         1 UNK         0.0600 
    215 H215       -7.8205  -18.3381  -50.2651 H         1 UNK         0.3000 
    216 H216       -8.3023  -16.8484  -52.6977 H         1 UNK         0.0600 
    217 H217      -10.1249  -18.5278  -52.9947 H         1 UNK         0.0600 
    218 H218      -10.1465  -17.8570  -51.3720 H         1 UNK         0.0600 
    219 H219       -9.4959  -19.4732  -51.6505 H         1 UNK         0.0600 
    220 H220       -6.3492  -19.6707  -51.9111 H         1 UNK         0.3000 
    221 H221       -6.2832  -20.6998  -54.6666 H         1 UNK         0.0600 
    222 H222       -4.7574  -21.6114  -52.1712 H         1 UNK         0.0600 
    223 H223       -6.3085  -22.2637  -52.7018 H         1 UNK         0.0600 
    224 H224       -4.8766  -22.4612  -53.7005 H         1 UNK         0.0600 
    225 H225       -4.6146  -18.3378  -52.8123 H         1 UNK         0.3000 
    226 H226       -1.9717  -18.5319  -53.5073 H         1 UNK         0.0600 
    227 H227       -1.8519  -16.1222  -52.9680 H         1 UNK         0.0600 
    228 H228       -3.5857  -15.9433  -53.2091 H         1 UNK         0.0600 
    229 H229       -2.9786  -16.9063  -51.8683 H         1 UNK         0.0600 
    230 H230       -4.5556  -17.2215  -55.5405 H         1 UNK         0.3000 
    231 H231       -2.9259  -16.0664  -57.5890 H         1 UNK         0.0600 
    232 H232       -5.8240  -17.0687  -57.6421 H         1 UNK         0.0600 
    233 H233       -5.0776  -16.0476  -58.8658 H         1 UNK         0.0600 
    234 H234       -5.2979  -15.4348  -57.2348 H         1 UNK         0.0600 
    235 H235       -3.8960  -19.3915  -56.9462 H         1 UNK         0.3000 
    236 H236       -3.0980  -20.3386  -59.6427 H         1 UNK         0.0600 
    237 H237       -3.9123  -22.5230  -58.8299 H         1 UNK         0.0600 
    238 H238       -4.2286  -21.8592  -57.2337 H         1 UNK         0.0600 
    239 H239       -5.1583  -21.3014  -58.6237 H         1 UNK         0.0600 
    240 H240       -2.1516  -20.4963  -56.1838 H         1 UNK         0.3000 
    241 H241        0.1306  -22.1497  -56.5304 H         1 UNK         0.0600 
    242 H242       -0.0846  -18.5043  -56.6494 H         1 UNK         0.3800 
    243 H243        1.5532  -18.3332  -57.2329 H         1 UNK         0.3800 
    244 H244       -0.3824  -20.1206  -54.3061 H         1 UNK         0.0800 
    245 H245        0.8153  -21.3872  -54.2721 H         1 UNK         0.0800 
    246 H246       -1.1689  -23.6654  -52.0270 H         1 UNK         0.0800 
    247 H247        0.3164  -23.5881  -52.9448 H         1 UNK         0.0800 
@<TRIPOS>BOND
     1    1    2 1    
     2    1  127 1    
     3    1  128 1    
     4    1  129 1    
     5    2    3 2    
     6    2    4 am   BACKBONE|DICT|INTERRES
     7    4    5 1    
     8    4  130 1    
     9    5    6 1    
    10    5   65 1    
    11    5  131 1    
    12    6    7 1    
    13    6  132 1    
    14    6  133 1    
    15    7    8 1    
    16    8    9 1    
    17    8  134 1    
    18    8  135 1    
    19    9   10 ar   
    20    9   14 ar   
    21   10   11 ar   
    22   10  136 1    
    23   11   12 ar   
    24   11  126 1    
    25   12   13 ar   
    26   12  137 1    
    27   13   14 ar   
    28   13   15 1    
    29   14  138 1    
    30   15   16 1    
    31   15  139 1    
    32   15  140 1    
    33   16   17 1    
    34   17   18 1    
    35   17  141 1    
    36   17  142 1    
    37   18   19 1    
    38   18   67 1    
    39   18  143 1    
    40   19   20 am   BACKBONE|DICT|INTERRES
    41   19  144 1    
    42   20   21 2    
    43   20   22 1    
    44   22   23 1    
    45   22   24 1    
    46   22  145 1    
    47   23  146 1    
    48   23  147 1    
    49   23  148 1    
    50   24   25 am   BACKBONE|DICT|INTERRES
    51   24  149 1    
    52   25   26 2    
    53   25   27 1    
    54   27   28 1    
    55   27   29 1    
    56   27  150 1    
    57   28  151 1    
    58   28  152 1    
    59   28  153 1    
    60   29   30 am   BACKBONE|DICT|INTERRES
    61   29  154 1    
    62   30   31 2    
    63   30   32 1    
    64   32   33 1    
    65   32   34 1    
    66   32  155 1    
    67   33  156 1    
    68   33  157 1    
    69   33  158 1    
    70   34   35 am   BACKBONE|DICT|INTERRES
    71   34  159 1    
    72   35   36 2    
    73   35   37 1    
    74   37   38 1    
    75   37   39 1    
    76   37  160 1    
    77   38  161 1    
    78   38  162 1    
    79   38  163 1    
    80   39   40 am   BACKBONE|DICT|INTERRES
    81   39  164 1    
    82   40   41 2    
    83   40   42 1    
    84   42   43 1    
    85   42   44 1    
    86   42  165 1    
    87   43  166 1    
    88   43  167 1    
    89   43  168 1    
    90   44   45 am   BACKBONE|DICT|INTERRES
    91   44  169 1    
    92   45   46 2    
    93   45   47 1    
    94   47   48 1    
    95   47   49 1    
    96   47  170 1    
    97   48  171 1    
    98   48  172 1    
    99   48  173 1    
   100   49   50 am   BACKBONE|DICT|INTERRES
   101   49  174 1    
   102   50   51 2    
   103   50   52 1    
   104   52   53 1    
   105   52   54 1    
   106   52  175 1    
   107   53  176 1    
   108   53  177 1    
   109   53  178 1    
   110   54   55 am   BACKBONE|DICT|INTERRES
   111   54  179 1    
   112   55   56 2    
   113   55   57 1    
   114   57   58 1    
   115   57   59 1    
   116   57  180 1    
   117   58  181 1    
   118   58  182 1    
   119   58  183 1    
   120   59   60 am   BACKBONE|DICT|INTERRES
   121   59  184 1    
   122   60   61 2    
   123   60   62 1    
   124   62   63 1    
   125   62   64 1    
   126   62  185 1    
   127   63  186 1    
   128   63  187 1    
   129   63  188 1    
   130   64   65 am   BACKBONE|DICT|INTERRES
   131   64  189 1    
   132   65   66 2    
   133   67   68 2    
   134   67   69 am   BACKBONE|DICT|INTERRES
   135   69   70 1    
   136   69  190 1    
   137   70   71 1    
   138   70   72 1    
   139   70  191 1    
   140   71  192 1    
   141   71  193 1    
   142   71  194 1    
   143   72   73 2    
   144   72   74 am   BACKBONE|DICT|INTERRES
   145   74   75 1    
   146   74  195 1    
   147   75   76 1    
   148   75   77 1    
   149   75  196 1    
   150   76  197 1    
   151   76  198 1    
   152   76  199 1    
   153   77   78 2    
   154   77   79 am   BACKBONE|DICT|INTERRES
   155   79   80 1    
   156   79  200 1    
   157   80   81 1    
   158   80   82 1    
   159   80  201 1    
   160   81  202 1    
   161   81  203 1    
   162   81  204 1    
   163   82   83 2    
   164   82   84 am   BACKBONE|DICT|INTERRES
   165   84   85 1    
   166   84  205 1    
   167   85   86 1    
   168   85   87 1    
   169   85  206 1    
   170   86  207 1    
   171   86  208 1    
   172   86  209 1    
   173   87   88 2    
   174   87   89 am   BACKBONE|DICT|INTERRES
   175   89   90 1    
   176   89  210 1    
   177   90   91 1    
   178   90   92 1    
   179   90  211 1    
   180   91  212 1    
   181   91  213 1    
   182   91  214 1    
   183   92   93 2    
   184   92   94 am   BACKBONE|DICT|INTERRES
   185   94   95 1    
   186   94  215 1    
   187   95   96 1    
   188   95   97 1    
   189   95  216 1    
   190   96  217 1    
   191   96  218 1    
   192   96  219 1    
   193   97   98 2    
   194   97   99 am   BACKBONE|DICT|INTERRES
   195   99  100 1    
   196   99  220 1    
   197  100  101 1    
   198  100  102 1    
   199  100  221 1    
   200  101  222 1    
   201  101  223 1    
   202  101  224 1    
   203  102  103 2    
   204  102  104 am   BACKBONE|DICT|INTERRES
   205  104  105 1    
   206  104  225 1    
   207  105  106 1    
   208  105  107 1    
   209  105  226 1    
   210  106  227 1    
   211  106  228 1    
   212  106  229 1    
   213  107  108 2    
   214  107  109 am   BACKBONE|DICT|INTERRES
   215  109  110 1    
   216  109  230 1    
   217  110  111 1    
   218  110  112 1    
   219  110  231 1    
   220  111  232 1    
   221  111  233 1    
   222  111  234 1    
   223  112  113 2    
   224  112  114 am   BACKBONE|DICT|INTERRES
   225  114  115 1    
   226  114  235 1    
   227  115  116 1    
   228  115  117 1    
   229  115  236 1    
   230  116  237 1    
   231  116  238 1    
   232  116  239 1    
   233  117  118 2    
   234  117  119 am   BACKBONE|DICT|INTERRES
   235  119  120 1    
   236  119  240 1    
   237  120  121 1    
   238  120  124 1    
   239  120  241 1    
   240  121  122 am   BACKBONE|DICT|INTERRES
   241  121  123 2    
   242  122  242 1    
   243  122  243 1    
   244  124  125 1    
   245  124  244 1    
   246  124  245 1    
   247  125  126 1    
   248  126  246 1    
   249  126  247 1    
@<TRIPOS>SUBSTRUCTURE
     1 UNK         1 GROUP             0       ****    0 ROOT    
