@<TRIPOS>MOLECULE
3R540
247   249    1
SMALL
USER_CHARGES


@<TRIPOS>ATOM
      1 CA          4.5157  -11.2175  -48.7254 C.3       0 UNK        -0.1800 
      2 C           4.6112  -12.6451  -49.2431 C.2       0 UNK         0.5000 
      3 O           5.2758  -13.4776  -48.6258 O.2       0 UNK        -0.5000 
      4 N           3.9326  -12.9374  -50.3608 N.am      1 UNK        -0.5000 
      5 CA          3.9068  -14.2427  -51.0402 C.3       1 UNK         0.1400 
      6 C6          3.2620  -14.1585  -52.4461 C.3       23 UNK        -0.0398 
      7 S7          1.6140  -13.3652  -52.4783 S.3       23 UNK        -0.2404 
      8 C8          0.5194  -14.7181  -53.0241 C.3       23 UNK        -0.0205 
      9 C9         -0.1620  -15.4379  -51.8675 C.ar      23 UNK        -0.0193 
     10 C10        -1.0308  -14.7351  -51.0281 C.ar      23 UNK        -0.1150 
     11 C11        -1.7422  -15.3970  -50.0248 C.ar      23 UNK        -0.0193 
     12 C12        -1.5794  -16.7737  -49.8604 C.ar      23 UNK        -0.1150 
     13 C13        -0.7073  -17.4899  -50.6841 C.ar      23 UNK        -0.0193 
     14 C14         0.0064  -16.8143  -51.6811 C.ar      23 UNK        -0.1150 
     15 C15        -0.5731  -18.9982  -50.5290 C.3       23 UNK        -0.0205 
     16 S16         0.6945  -19.4478  -49.3065 S.3       23 UNK        -0.2404 
     17 C17        -0.2198  -19.3078  -47.7303 C.3       23 UNK        -0.0398 
     18 CA         -0.2719  -20.6550  -46.9762 C.3       11 UNK         0.1400 
     19 N          -0.4829  -20.4790  -45.5378 N.am      11 UNK        -0.5000 
     20 C          -0.3569  -21.4636  -44.6369 C.2       10 UNK         0.5000 
     21 O          -0.0548  -22.6213  -44.9254 O.2       10 UNK        -0.5000 
     22 CA         -0.6522  -21.1070  -43.1735 C.3       10 UNK         0.1400 
     23 CB          0.5557  -20.4267  -42.5171 C.3       10 UNK        -0.1800 
     24 N          -1.8304  -20.2518  -43.0506 N.am      10 UNK        -0.5000 
     25 C          -3.0876  -20.6882  -43.1996 C.2       9 UNK         0.5000 
     26 O          -3.3854  -21.8635  -43.4177 O.2       9 UNK        -0.5000 
     27 CA         -4.1931  -19.6197  -43.1267 C.3       9 UNK         0.1400 
     28 CB         -4.5122  -19.2658  -41.6664 C.3       9 UNK        -0.1800 
     29 N          -3.8544  -18.3975  -43.8586 N.am      9 UNK        -0.5000 
     30 C          -3.6780  -18.3378  -45.1863 C.2       8 UNK         0.5000 
     31 O          -3.7463  -19.3115  -45.9311 O.2       8 UNK        -0.5000 
     32 CA         -3.3275  -16.9692  -45.7893 C.3       8 UNK         0.1400 
     33 CB         -4.6091  -16.1626  -46.0454 C.3       8 UNK        -0.1800 
     34 N          -2.4137  -16.1694  -44.9757 N.am      8 UNK        -0.5000 
     35 C          -1.2161  -16.5530  -44.5133 C.2       7 UNK         0.5000 
     36 O          -0.7498  -17.6856  -44.6578 O.2       7 UNK        -0.5000 
     37 CA         -0.3826  -15.4845  -43.7793 C.3       7 UNK         0.1400 
     38 CB         -0.9723  -14.0582  -43.8434 C.3       7 UNK        -0.1800 
     39 N          -0.1029  -15.8458  -42.3923 N.am      7 UNK        -0.5000 
     40 C          -0.9759  -16.1805  -41.4297 C.2       6 UNK         0.5000 
     41 O          -2.1895  -16.2924  -41.6105 O.2       6 UNK        -0.5000 
     42 CA         -0.3957  -16.4378  -40.0219 C.3       6 UNK         0.1400 
     43 CB         -0.6120  -17.8990  -39.6015 C.3       6 UNK        -0.1800 
     44 N           1.0347  -16.1267  -39.9281 N.am      6 UNK        -0.5000 
     45 C           1.5446  -14.8973  -39.7649 C.2       5 UNK         0.5000 
     46 O           0.8603  -13.8910  -39.5785 O.2       5 UNK        -0.5000 
     47 CA          3.0775  -14.7695  -39.8692 C.3       5 UNK         0.1400 
     48 CB          3.7275  -14.9316  -38.4867 C.3       5 UNK        -0.1800 
     49 N           3.6737  -15.7350  -40.8003 N.am      5 UNK        -0.5000 
     50 C           3.5051  -15.7150  -42.1292 C.2       4 UNK         0.5000 
     51 O           2.8237  -14.8767  -42.7237 O.2       4 UNK        -0.5000 
     52 CA          4.1543  -16.8565  -42.9185 C.3       4 UNK         0.1400 
     53 CB          3.2175  -18.0763  -42.9598 C.3       4 UNK        -0.1800 
     54 N           4.4332  -16.4101  -44.2800 N.am      4 UNK        -0.5000 
     55 C           5.3502  -16.9529  -45.0887 C.2       3 UNK         0.5000 
     56 O           6.0892  -17.8773  -44.7423 O.2       3 UNK        -0.5000 
     57 CA          5.4721  -16.3631  -46.5127 C.3       3 UNK         0.1400 
     58 CB          6.1960  -17.3143  -47.4880 C.3       3 UNK        -0.1800 
     59 N           4.2105  -15.9136  -47.1140 N.am      3 UNK        -0.5000 
     60 C           3.0888  -16.6300  -47.3035 C.2       2 UNK         0.5000 
     61 O           2.9049  -17.7582  -46.8490 O.2       2 UNK        -0.5000 
     62 CA          1.9925  -15.9815  -48.1774 C.3       2 UNK         0.1400 
     63 CB          0.9535  -15.2612  -47.3105 C.3       2 UNK        -0.1800 
     64 N           2.5258  -15.0414  -49.1608 N.am      2 UNK        -0.5000 
     65 C           3.2948  -15.3869  -50.2033 C.2       1 UNK         0.5000 
     66 O           3.5604  -16.5523  -50.5001 O.2       1 UNK        -0.5000 
     67 C          -1.2903  -21.6345  -47.5973 C.2       11 UNK         0.5000 
     68 O          -0.8947  -22.4886  -48.3885 O.2       11 UNK        -0.5000 
     69 N          -2.5640  -21.5438  -47.1859 N.am      12 UNK        -0.5000 
     70 CA         -3.6329  -22.4630  -47.5768 C.3       12 UNK         0.1400 
     71 CB         -4.9671  -21.9953  -46.9754 C.3       12 UNK        -0.1800 
     72 C          -3.3519  -23.9152  -47.1624 C.2       12 UNK         0.5000 
     73 O          -3.5229  -24.8198  -47.9793 O.2       12 UNK        -0.5000 
     74 N          -2.8985  -24.1025  -45.9151 N.am      13 UNK        -0.5000 
     75 CA         -2.5216  -25.4017  -45.3598 C.3       13 UNK         0.1400 
     76 CB         -2.2947  -25.2625  -43.8468 C.3       13 UNK        -0.1800 
     77 C          -1.2844  -26.0068  -46.0483 C.2       13 UNK         0.5000 
     78 O          -1.2540  -27.2150  -46.2845 O.2       13 UNK        -0.5000 
     79 N          -0.2984  -25.1575  -46.3675 N.am      14 UNK        -0.5000 
     80 CA          0.9208  -25.5322  -47.0805 C.3       14 UNK         0.1400 
     81 CB          1.9455  -24.3916  -46.9780 C.3       14 UNK        -0.1800 
     82 C           0.6590  -25.9017  -48.5517 C.2       14 UNK         0.5000 
     83 O           1.1842  -26.9115  -49.0229 O.2       14 UNK        -0.5000 
     84 N          -0.1350  -25.0788  -49.2507 N.am      15 UNK        -0.5000 
     85 CA         -0.4660  -25.2585  -50.6629 C.3       15 UNK         0.1400 
     86 CB         -1.0423  -23.9523  -51.2337 C.3       15 UNK        -0.1800 
     87 C          -1.4416  -26.4204  -50.9043 C.2       15 UNK         0.5000 
     88 O          -1.2090  -27.2186  -51.8131 O.2       15 UNK        -0.5000 
     89 N          -2.5203  -26.4728  -50.1050 N.am      16 UNK        -0.5000 
     90 CA         -3.6613  -27.3902  -50.2216 C.3       16 UNK         0.1400 
     91 CB         -3.2462  -28.8205  -49.8205 C.3       16 UNK        -0.1800 
     92 C          -4.3363  -27.3159  -51.6110 C.2       16 UNK         0.5000 
     93 O          -4.6796  -28.3453  -52.1962 O.2       16 UNK        -0.5000 
     94 N          -4.4748  -26.0897  -52.1292 N.am      17 UNK        -0.5000 
     95 CA         -4.9098  -25.7778  -53.4865 C.3       17 UNK         0.1400 
     96 CB         -3.7130  -25.9316  -54.4473 C.3       17 UNK        -0.1800 
     97 C          -5.4883  -24.3539  -53.5288 C.2       17 UNK         0.5000 
     98 O          -5.5098  -23.6645  -52.5051 O.2       17 UNK        -0.5000 
     99 N          -5.9183  -23.9266  -54.7253 N.am      18 UNK        -0.5000 
    100 CA        -6.5611  -22.6384  -55.0228 C.3       18 UNK         0.1400 
    101 CB        -6.9094  -22.5930  -56.5183 C.3       18 UNK        -0.1800 
    102 C         -5.7615  -21.3805  -54.6224 C.2       18 UNK         0.5000 
    103 O         -6.3589  -20.3155  -54.4631 O.2       18 UNK        -0.5000 
    104 N         -4.4454  -21.5253  -54.4055 N.am      19 UNK        -0.5000 
    105 CA        -3.5556  -20.5080  -53.8343 C.3       19 UNK         0.1400 
    106 CB        -2.1252  -21.0629  -53.7902 C.3       19 UNK        -0.1800 
    107 C         -3.9868  -20.0142  -52.4356 C.2       19 UNK         0.5000 
    108 O         -3.6334  -18.8984  -52.0578 O.2       19 UNK        -0.5000 
    109 N         -4.7972  -20.8145  -51.7247 N.am      20 UNK        -0.5000 
    110 CA        -5.4937  -20.4645  -50.4841 C.3       20 UNK         0.1400 
    111 CB        -6.3640  -21.6612  -50.0686 C.3       20 UNK        -0.1800 
    112 C         -6.3754  -19.2001  -50.5783 C.2       20 UNK         0.5000 
    113 O         -6.5972  -18.5452  -49.5602 O.2       20 UNK        -0.5000 
    114 N         -6.8559  -18.8752  -51.7880 N.am      21 UNK        -0.5000 
    115 CA        -7.6351  -17.6714  -52.0820 C.3       21 UNK         0.1400 
    116 CB        -8.4701  -17.9238  -53.3482 C.3       21 UNK        -0.1800 
    117 C         -6.7716  -16.4010  -52.2427 C.2       21 UNK         0.5000 
    118 O         -7.3374  -15.3194  -52.4071 O.2       21 UNK        -0.5000 
    119 N         -5.4380  -16.5429  -52.2138 N.am      22 UNK        -0.5000 
    120 CA        -4.4341  -15.4730  -52.3660 C.3       22 UNK         0.1400 
    121 C         -4.3137  -14.8966  -53.8100 C.2       22 UNK         0.5000 
    122 N         -4.8658  -15.5425  -54.8304 N.am      22 UNK        -0.7600 
    123 O         -3.6847  -13.8633  -54.0214 O.2       22 UNK        -0.5000 
    124 C124       -4.5394  -14.3547  -51.2860 C.3       23 UNK        -0.0398 
    125 S125       -4.4466  -14.9948  -49.5771 S.3       23 UNK        -0.2404 
    126 C126       -2.7151  -14.6336  -49.1410 C.3       23 UNK        -0.0205 
    127 H127        3.8848  -10.5967  -49.3620 H         1 UNK         0.0600 
    128 H128        5.5072  -10.7667  -48.6856 H         1 UNK         0.0600 
    129 H129        4.0961  -11.2107  -47.7195 H         1 UNK         0.0600 
    130 H130        3.3832  -12.2165  -50.8081 H         1 UNK         0.3000 
    131 H131        4.9510  -14.5255  -51.1907 H         1 UNK         0.0600 
    132 H132        3.2206  -15.1442  -52.9125 H         1 UNK         0.0800 
    133 H133        3.9105  -13.5673  -53.0939 H         1 UNK         0.0800 
    134 H134        1.0645  -15.4173  -53.6593 H         1 UNK         0.0800 
    135 H135       -0.2590  -14.2893  -53.6572 H         1 UNK         0.0800 
    136 H136       -1.1721  -13.6739  -51.1776 H         1 UNK         0.1150 
    137 H137       -2.1595  -17.2876  -49.1093 H         1 UNK         0.1150 
    138 H138        0.6695  -17.3677  -52.3309 H         1 UNK         0.1150 
    139 H139       -1.5318  -19.4434  -50.2580 H         1 UNK         0.0800 
    140 H140       -0.2978  -19.4408  -51.4866 H         1 UNK         0.0800 
    141 H141       -1.2226  -18.9106  -47.8833 H         1 UNK         0.0800 
    142 H142        0.3051  -18.5661  -47.1274 H         1 UNK         0.0800 
    143 H143        0.7117  -21.1209  -47.0718 H         1 UNK         0.0600 
    144 H144       -0.7047  -19.5412  -45.2148 H         1 UNK         0.3000 
    145 H145       -0.8386  -22.0427  -42.6417 H         1 UNK         0.0600 
    146 H146        0.4634  -20.4399  -41.4323 H         1 UNK         0.0600 
    147 H147        1.4856  -20.9411  -42.7637 H         1 UNK         0.0600 
    148 H148        0.6531  -19.3906  -42.8394 H         1 UNK         0.0600 
    149 H149       -1.6706  -19.2597  -42.9473 H         1 UNK         0.3000 
    150 H150       -5.0920  -20.0433  -43.5797 H         1 UNK         0.0600 
    151 H151       -4.7762  -20.1576  -41.0965 H         1 UNK         0.0600 
    152 H152       -5.3560  -18.5785  -41.6032 H         1 UNK         0.0600 
    153 H153       -3.6615  -18.7974  -41.1698 H         1 UNK         0.0600 
    154 H154       -3.7284  -17.5552  -43.3135 H         1 UNK         0.3000 
    155 H155       -2.8355  -17.1466  -46.7471 H         1 UNK         0.0600 
    156 H156       -5.1604  -15.9779  -45.1225 H         1 UNK         0.0600 
    157 H157       -5.2748  -16.6961  -46.7258 H         1 UNK         0.0600 
    158 H158       -4.3901  -15.1967  -46.4993 H         1 UNK         0.0600 
    159 H159       -2.7127  -15.2268  -44.7731 H         1 UNK         0.3000 
    160 H160        0.5838  -15.4615  -44.2839 H         1 UNK         0.0600 
    161 H161       -1.9295  -13.9840  -43.3259 H         1 UNK         0.0600 
    162 H162       -1.1173  -13.7340  -44.8749 H         1 UNK         0.0600 
    163 H163       -0.2943  -13.3415  -43.3795 H         1 UNK         0.0600 
    164 H164        0.8705  -15.7702  -42.1316 H         1 UNK         0.3000 
    165 H165       -0.9454  -15.8010  -39.3257 H         1 UNK         0.0600 
    166 H166       -0.2760  -18.0681  -38.5783 H         1 UNK         0.0600 
    167 H167       -1.6673  -18.1714  -39.6443 H         1 UNK         0.0600 
    168 H168       -0.0682  -18.5833  -40.2498 H         1 UNK         0.0600 
    169 H169        1.6742  -16.8969  -40.0564 H         1 UNK         0.3000 
    170 H170        3.3000  -13.7645  -40.2347 H         1 UNK         0.0600 
    171 H171        3.3208  -14.2099  -37.7771 H         1 UNK         0.0600 
    172 H172        3.5584  -15.9275  -38.0752 H         1 UNK         0.0600 
    173 H173        4.8039  -14.7658  -38.5350 H         1 UNK         0.0600 
    174 H174        4.2451  -16.4593  -40.3887 H         1 UNK         0.3000 
    175 H175        5.0897  -17.1267  -42.4238 H         1 UNK         0.0600 
    176 H176        2.2940  -17.8447  -43.4926 H         1 UNK         0.0600 
    177 H177        3.6867  -18.9206  -43.4650 H         1 UNK         0.0600 
    178 H178        2.9505  -18.4081  -41.9559 H         1 UNK         0.0600 
    179 H179        3.8764  -15.6272  -44.5973 H         1 UNK         0.3000 
    180 H180        6.0893  -15.4694  -46.4114 H         1 UNK         0.0600 
    181 H181        5.6535  -18.2525  -47.6099 H         1 UNK         0.0600 
    182 H182        7.1989  -17.5562  -47.1345 H         1 UNK         0.0600 
    183 H183        6.3027  -16.8597  -48.4733 H         1 UNK         0.0600 
    184 H184        4.2625  -15.0017  -47.5542 H         1 UNK         0.3000 
    185 H185        1.4843  -16.7736  -48.7264 H         1 UNK         0.0600 
    186 H186        0.1961  -14.7699  -47.9207 H         1 UNK         0.0600 
    187 H187        0.4394  -15.9813  -46.6786 H         1 UNK         0.0600 
    188 H188        1.4095  -14.5091  -46.6656 H         1 UNK         0.0600 
    189 H189        2.3480  -14.0606  -49.0042 H         1 UNK         0.3000 
    190 H190       -2.8359  -20.7865  -46.5626 H         1 UNK         0.3000 
    191 H191       -3.7093  -22.4368  -48.6652 H         1 UNK         0.0600 
    192 H192       -4.9199  -21.9369  -45.8873 H         1 UNK         0.0600 
    193 H193       -5.7758  -22.6808  -47.2312 H         1 UNK         0.0600 
    194 H194       -5.2453  -21.0096  -47.3475 H         1 UNK         0.0600 
    195 H195       -2.7883  -23.2995  -45.3099 H         1 UNK         0.3000 
    196 H196       -3.3568  -26.0876  -45.5162 H         1 UNK         0.0600 
    197 H197       -2.0414  -26.2246  -43.3998 H         1 UNK         0.0600 
    198 H198       -3.1913  -24.8963  -43.3460 H         1 UNK         0.0600 
    199 H199       -1.4820  -24.5713  -43.6218 H         1 UNK         0.0600 
    200 H200       -0.3770  -24.1872  -46.0778 H         1 UNK         0.3000 
    201 H201        1.3441  -26.4093  -46.5865 H         1 UNK         0.0600 
    202 H202        2.1894  -24.1737  -45.9380 H         1 UNK         0.0600 
    203 H203        1.5736  -23.4729  -47.4325 H         1 UNK         0.0600 
    204 H204        2.8756  -24.6552  -47.4828 H         1 UNK         0.0600 
    205 H205       -0.4917  -24.2355  -48.8054 H         1 UNK         0.3000 
    206 H206        0.4572  -25.4794  -51.2030 H         1 UNK         0.0600 
    207 H207       -0.3276  -23.1337  -51.1456 H         1 UNK         0.0600 
    208 H208       -1.2810  -24.0650  -52.2918 H         1 UNK         0.0600 
    209 H209       -1.9566  -23.6528  -50.7195 H         1 UNK         0.0600 
    210 H210       -2.6202  -25.7715  -49.3754 H         1 UNK         0.3000 
    211 H211       -4.4059  -27.0486  -49.5014 H         1 UNK         0.0600 
    212 H212       -2.5316  -29.2479  -50.5245 H         1 UNK         0.0600 
    213 H213       -4.1109  -29.4841  -49.7873 H         1 UNK         0.0600 
    214 H214       -2.7894  -28.8327  -48.8307 H         1 UNK         0.0600 
    215 H215       -4.2528  -25.2805  -51.5640 H         1 UNK         0.3000 
    216 H216       -5.7059  -26.4656  -53.7783 H         1 UNK         0.0600 
    217 H217       -4.0024  -25.7576  -55.4839 H         1 UNK         0.0600 
    218 H218       -3.2950  -26.9374  -54.4004 H         1 UNK         0.0600 
    219 H219       -2.9129  -25.2310  -54.2043 H         1 UNK         0.0600 
    220 H220       -5.8431  -24.5603  -55.5079 H         1 UNK         0.3000 
    221 H221       -7.4936  -22.6084  -54.4559 H         1 UNK         0.0600 
    222 H222       -6.0160  -22.6598  -57.1405 H         1 UNK         0.0600 
    223 H223       -7.5747  -23.4112  -56.7948 H         1 UNK         0.0600 
    224 H224       -7.4193  -21.6632  -56.7748 H         1 UNK         0.0600 
    225 H225       -4.0441  -22.4381  -54.5585 H         1 UNK         0.3000 
    226 H226       -3.5706  -19.6448  -54.5026 H         1 UNK         0.0600 
    227 H227       -1.7904  -21.3772  -54.7788 H         1 UNK         0.0600 
    228 H228       -1.4248  -20.3052  -53.4383 H         1 UNK         0.0600 
    229 H229       -2.0496  -21.9187  -53.1198 H         1 UNK         0.0600 
    230 H230       -5.0229  -21.7265  -52.1094 H         1 UNK         0.3000 
    231 H231       -4.7382  -20.2863  -49.7166 H         1 UNK         0.0600 
    232 H232       -5.7629  -22.5549  -49.9025 H         1 UNK         0.0600 
    233 H233       -7.1034  -21.9002  -50.8342 H         1 UNK         0.0600 
    234 H234       -6.9084  -21.4539  -49.1468 H         1 UNK         0.0600 
    235 H235       -6.6265  -19.4627  -52.5828 H         1 UNK         0.3000 
    236 H236       -8.3249  -17.4909  -51.2550 H         1 UNK         0.0600 
    237 H237       -9.1381  -17.0858  -53.5506 H         1 UNK         0.0600 
    238 H238       -7.8381  -18.0571  -54.2267 H         1 UNK         0.0600 
    239 H239       -9.0904  -18.8140  -53.2427 H         1 UNK         0.0600 
    240 H240       -5.0469  -17.4684  -52.0744 H         1 UNK         0.3000 
    241 H241       -3.4796  -15.9753  -52.2099 H         1 UNK         0.0600 
    242 H242       -5.3777  -16.3962  -54.6788 H         1 UNK         0.3800 
    243 H243       -4.7752  -15.1681  -55.7618 H         1 UNK         0.3800 
    244 H244       -5.4734  -13.8031  -51.3942 H         1 UNK         0.0800 
    245 H245       -3.7495  -13.6146  -51.4196 H         1 UNK         0.0800 
    246 H246       -2.5423  -14.9070  -48.0997 H         1 UNK         0.0800 
    247 H247       -2.5402  -13.5587  -49.2063 H         1 UNK         0.0800 
@<TRIPOS>BOND
     1    1    2 1    
     2    1  127 1    
     3    1  128 1    
     4    1  129 1    
     5    2    3 2    
     6    2    4 am   BACKBONE|DICT|INTERRES
     7    4    5 1    
     8    4  130 1    
     9    5    6 1    
    10    5   65 1    
    11    5  131 1    
    12    6    7 1    
    13    6  132 1    
    14    6  133 1    
    15    7    8 1    
    16    8    9 1    
    17    8  134 1    
    18    8  135 1    
    19    9   10 ar   
    20    9   14 ar   
    21   10   11 ar   
    22   10  136 1    
    23   11   12 ar   
    24   11  126 1    
    25   12   13 ar   
    26   12  137 1    
    27   13   14 ar   
    28   13   15 1    
    29   14  138 1    
    30   15   16 1    
    31   15  139 1    
    32   15  140 1    
    33   16   17 1    
    34   17   18 1    
    35   17  141 1    
    36   17  142 1    
    37   18   19 1    
    38   18   67 1    
    39   18  143 1    
    40   19   20 am   BACKBONE|DICT|INTERRES
    41   19  144 1    
    42   20   21 2    
    43   20   22 1    
    44   22   23 1    
    45   22   24 1    
    46   22  145 1    
    47   23  146 1    
    48   23  147 1    
    49   23  148 1    
    50   24   25 am   BACKBONE|DICT|INTERRES
    51   24  149 1    
    52   25   26 2    
    53   25   27 1    
    54   27   28 1    
    55   27   29 1    
    56   27  150 1    
    57   28  151 1    
    58   28  152 1    
    59   28  153 1    
    60   29   30 am   BACKBONE|DICT|INTERRES
    61   29  154 1    
    62   30   31 2    
    63   30   32 1    
    64   32   33 1    
    65   32   34 1    
    66   32  155 1    
    67   33  156 1    
    68   33  157 1    
    69   33  158 1    
    70   34   35 am   BACKBONE|DICT|INTERRES
    71   34  159 1    
    72   35   36 2    
    73   35   37 1    
    74   37   38 1    
    75   37   39 1    
    76   37  160 1    
    77   38  161 1    
    78   38  162 1    
    79   38  163 1    
    80   39   40 am   BACKBONE|DICT|INTERRES
    81   39  164 1    
    82   40   41 2    
    83   40   42 1    
    84   42   43 1    
    85   42   44 1    
    86   42  165 1    
    87   43  166 1    
    88   43  167 1    
    89   43  168 1    
    90   44   45 am   BACKBONE|DICT|INTERRES
    91   44  169 1    
    92   45   46 2    
    93   45   47 1    
    94   47   48 1    
    95   47   49 1    
    96   47  170 1    
    97   48  171 1    
    98   48  172 1    
    99   48  173 1    
   100   49   50 am   BACKBONE|DICT|INTERRES
   101   49  174 1    
   102   50   51 2    
   103   50   52 1    
   104   52   53 1    
   105   52   54 1    
   106   52  175 1    
   107   53  176 1    
   108   53  177 1    
   109   53  178 1    
   110   54   55 am   BACKBONE|DICT|INTERRES
   111   54  179 1    
   112   55   56 2    
   113   55   57 1    
   114   57   58 1    
   115   57   59 1    
   116   57  180 1    
   117   58  181 1    
   118   58  182 1    
   119   58  183 1    
   120   59   60 am   BACKBONE|DICT|INTERRES
   121   59  184 1    
   122   60   61 2    
   123   60   62 1    
   124   62   63 1    
   125   62   64 1    
   126   62  185 1    
   127   63  186 1    
   128   63  187 1    
   129   63  188 1    
   130   64   65 am   BACKBONE|DICT|INTERRES
   131   64  189 1    
   132   65   66 2    
   133   67   68 2    
   134   67   69 am   BACKBONE|DICT|INTERRES
   135   69   70 1    
   136   69  190 1    
   137   70   71 1    
   138   70   72 1    
   139   70  191 1    
   140   71  192 1    
   141   71  193 1    
   142   71  194 1    
   143   72   73 2    
   144   72   74 am   BACKBONE|DICT|INTERRES
   145   74   75 1    
   146   74  195 1    
   147   75   76 1    
   148   75   77 1    
   149   75  196 1    
   150   76  197 1    
   151   76  198 1    
   152   76  199 1    
   153   77   78 2    
   154   77   79 am   BACKBONE|DICT|INTERRES
   155   79   80 1    
   156   79  200 1    
   157   80   81 1    
   158   80   82 1    
   159   80  201 1    
   160   81  202 1    
   161   81  203 1    
   162   81  204 1    
   163   82   83 2    
   164   82   84 am   BACKBONE|DICT|INTERRES
   165   84   85 1    
   166   84  205 1    
   167   85   86 1    
   168   85   87 1    
   169   85  206 1    
   170   86  207 1    
   171   86  208 1    
   172   86  209 1    
   173   87   88 2    
   174   87   89 am   BACKBONE|DICT|INTERRES
   175   89   90 1    
   176   89  210 1    
   177   90   91 1    
   178   90   92 1    
   179   90  211 1    
   180   91  212 1    
   181   91  213 1    
   182   91  214 1    
   183   92   93 2    
   184   92   94 am   BACKBONE|DICT|INTERRES
   185   94   95 1    
   186   94  215 1    
   187   95   96 1    
   188   95   97 1    
   189   95  216 1    
   190   96  217 1    
   191   96  218 1    
   192   96  219 1    
   193   97   98 2    
   194   97   99 am   BACKBONE|DICT|INTERRES
   195   99  100 1    
   196   99  220 1    
   197  100  101 1    
   198  100  102 1    
   199  100  221 1    
   200  101  222 1    
   201  101  223 1    
   202  101  224 1    
   203  102  103 2    
   204  102  104 am   BACKBONE|DICT|INTERRES
   205  104  105 1    
   206  104  225 1    
   207  105  106 1    
   208  105  107 1    
   209  105  226 1    
   210  106  227 1    
   211  106  228 1    
   212  106  229 1    
   213  107  108 2    
   214  107  109 am   BACKBONE|DICT|INTERRES
   215  109  110 1    
   216  109  230 1    
   217  110  111 1    
   218  110  112 1    
   219  110  231 1    
   220  111  232 1    
   221  111  233 1    
   222  111  234 1    
   223  112  113 2    
   224  112  114 am   BACKBONE|DICT|INTERRES
   225  114  115 1    
   226  114  235 1    
   227  115  116 1    
   228  115  117 1    
   229  115  236 1    
   230  116  237 1    
   231  116  238 1    
   232  116  239 1    
   233  117  118 2    
   234  117  119 am   BACKBONE|DICT|INTERRES
   235  119  120 1    
   236  119  240 1    
   237  120  121 1    
   238  120  124 1    
   239  120  241 1    
   240  121  122 am   BACKBONE|DICT|INTERRES
   241  121  123 2    
   242  122  242 1    
   243  122  243 1    
   244  124  125 1    
   245  124  244 1    
   246  124  245 1    
   247  125  126 1    
   248  126  246 1    
   249  126  247 1    
@<TRIPOS>SUBSTRUCTURE
     1 UNK         1 GROUP             0       ****    0 ROOT    
