@<TRIPOS>MOLECULE
3R540
247   249    1
SMALL
USER_CHARGES


@<TRIPOS>ATOM
      1 CA         -4.4777  -16.2430  -47.2809 C.3       0 UNK        -0.1800 
      2 C          -3.8173  -15.1034  -48.0450 C.2       0 UNK         0.5000 
      3 O          -4.4773  -14.4181  -48.8261 O.2       0 UNK        -0.5000 
      4 N          -2.5153  -14.9045  -47.8139 N.am      1 UNK        -0.5000 
      5 CA         -1.7185  -13.7933  -48.3473 C.3       1 UNK         0.1400 
      6 C6         -0.2144  -14.1750  -48.4018 C.3       23 UNK        -0.0398 
      7 S7          0.1683  -15.3829  -49.7121 S.3       23 UNK        -0.2404 
      8 C8          0.0417  -16.9527  -48.8098 C.3       23 UNK        -0.0205 
      9 C9          0.8789  -18.0355  -49.4677 C.ar      23 UNK        -0.0193 
     10 C10         0.2995  -18.9349  -50.3680 C.ar      23 UNK        -0.1150 
     11 C11         1.0695  -19.9445  -50.9536 C.ar      23 UNK        -0.0193 
     12 C12         2.4240  -20.0516  -50.6290 C.ar      23 UNK        -0.1150 
     13 C13         3.0116  -19.1646  -49.7232 C.ar      23 UNK        -0.0193 
     14 C14         2.2351  -18.1550  -49.1493 C.ar      23 UNK        -0.1150 
     15 C15         4.4811  -19.3115  -49.3546 C.3       23 UNK        -0.0205 
     16 S16         4.7069  -20.1217  -47.7378 S.3       23 UNK        -0.2404 
     17 C17         3.7811  -21.6736  -47.9846 C.3       23 UNK        -0.0398 
     18 CA          4.1023  -22.7549  -46.9249 C.3       11 UNK         0.1400 
     19 N           3.7107  -22.3320  -45.5736 N.am      11 UNK        -0.5000 
     20 C           4.2093  -22.8276  -44.4332 C.2       10 UNK         0.5000 
     21 O           5.1265  -23.6481  -44.3907 O.2       10 UNK        -0.5000 
     22 CA          3.5369  -22.3742  -43.1207 C.3       10 UNK         0.1400 
     23 CB          4.2076  -21.1079  -42.5678 C.3       10 UNK        -0.1800 
     24 N           2.0937  -22.1523  -43.2592 N.am      10 UNK        -0.5000 
     25 C           1.2014  -23.1161  -43.5336 C.2       9 UNK         0.5000 
     26 O           1.5003  -24.3039  -43.6530 O.2       9 UNK        -0.5000 
     27 CA         -0.2569  -22.6836  -43.7755 C.3       9 UNK         0.1400 
     28 CB         -1.0150  -22.5383  -42.4482 C.3       9 UNK        -0.1800 
     29 N          -0.3630  -21.4403  -44.5367 N.am      9 UNK        -0.5000 
     30 C           0.0778  -21.2683  -45.7899 C.2       8 UNK         0.5000 
     31 O           0.5955  -22.1618  -46.4594 O.2       8 UNK        -0.5000 
     32 CA         -0.0222  -19.8427  -46.3643 C.3       8 UNK         0.1400 
     33 CB         -1.4574  -19.5100  -46.7984 C.3       8 UNK        -0.1800 
     34 N           0.4288  -18.8351  -45.4059 N.am      8 UNK        -0.5000 
     35 C           1.6782  -18.7470  -44.9310 C.2       7 UNK         0.5000 
     36 O           2.5932  -19.4949  -45.2671 O.2       7 UNK        -0.5000 
     37 CA          1.9260  -17.6771  -43.8564 C.3       7 UNK         0.1400 
     38 CB          2.1391  -16.3010  -44.5003 C.3       7 UNK        -0.1800 
     39 N           0.8251  -17.6050  -42.8955 N.am      7 UNK        -0.5000 
     40 C           0.5316  -18.5773  -42.0191 C.2       6 UNK         0.5000 
     41 O           1.1935  -19.6077  -41.8942 O.2       6 UNK        -0.5000 
     42 CA         -0.7459  -18.3902  -41.1799 C.3       6 UNK         0.1400 
     43 CB         -0.4668  -17.5028  -39.9578 C.3       6 UNK        -0.1800 
     44 N          -1.8500  -17.8171  -41.9512 N.am      6 UNK        -0.5000 
     45 C          -2.4221  -18.3947  -43.0179 C.2       5 UNK         0.5000 
     46 O          -2.1121  -19.5092  -43.4328 O.2       5 UNK        -0.5000 
     47 CA         -3.4909  -17.5837  -43.7738 C.3       5 UNK         0.1400 
     48 CB         -4.9011  -18.0481  -43.3825 C.3       5 UNK        -0.1800 
     49 N          -3.3860  -16.1417  -43.5456 N.am      5 UNK        -0.5000 
     50 C          -2.3890  -15.3600  -43.9801 C.2       4 UNK         0.5000 
     51 O          -1.4725  -15.7641  -44.7024 O.2       4 UNK        -0.5000 
     52 CA         -2.4661  -13.8897  -43.5263 C.3       4 UNK         0.1400 
     53 CB         -2.6551  -13.7483  -41.9990 C.3       4 UNK        -0.1800 
     54 N          -1.3483  -13.0736  -44.0032 N.am      4 UNK        -0.5000 
     55 C          -0.0722  -13.0569  -43.5903 C.2       3 UNK         0.5000 
     56 O           0.3638  -13.7777  -42.6915 O.2       3 UNK        -0.5000 
     57 CA          0.8815  -12.0577  -44.2929 C.3       3 UNK         0.1400 
     58 CB          2.2410  -12.6973  -44.6210 C.3       3 UNK        -0.1800 
     59 N           0.3267  -11.5039  -45.5308 N.am      3 UNK        -0.5000 
     60 C          -0.5003  -10.4532  -45.6328 C.2       2 UNK         0.5000 
     61 O          -0.8120   -9.7325  -44.6852 O.2       2 UNK        -0.5000 
     62 CA         -1.1314  -10.2101  -47.0235 C.3       2 UNK         0.1400 
     63 CB         -0.3354   -9.1493  -47.7983 C.3       2 UNK        -0.1800 
     64 N          -1.2270  -11.4310  -47.8380 N.am      2 UNK        -0.5000 
     65 C          -1.9399  -12.5170  -47.5000 C.2       1 UNK         0.5000 
     66 O          -2.6914  -12.5356  -46.5223 O.2       1 UNK        -0.5000 
     67 C           3.4639  -24.1036  -47.3401 C.2       11 UNK         0.5000 
     68 O           3.8047  -24.6160  -48.4072 O.2       11 UNK        -0.5000 
     69 N           2.5530  -24.6474  -46.5175 N.am      12 UNK        -0.5000 
     70 CA          1.7580  -25.8606  -46.7364 C.3       12 UNK         0.1400 
     71 CB          2.6560  -27.1120  -46.8348 C.3       12 UNK        -0.1800 
     72 C           0.7581  -25.7283  -47.9057 C.2       12 UNK         0.5000 
     73 O           0.4807  -26.7085  -48.6001 O.2       12 UNK        -0.5000 
     74 N           0.2186  -24.5171  -48.0907 N.am      13 UNK        -0.5000 
     75 CA         -0.8682  -24.2115  -49.0190 C.3       13 UNK         0.1400 
     76 CB         -0.8917  -22.6896  -49.2313 C.3       13 UNK        -0.1800 
     77 C          -2.2276  -24.6778  -48.4628 C.2       13 UNK         0.5000 
     78 O          -2.3282  -25.0516  -47.2908 O.2       13 UNK        -0.5000 
     79 N          -3.2746  -24.5745  -49.2938 N.am      14 UNK        -0.5000 
     80 CA         -4.6690  -24.7793  -48.8786 C.3       14 UNK         0.1400 
     81 CB         -5.5631  -24.8721  -50.1253 C.3       14 UNK        -0.1800 
     82 C          -5.1846  -23.6875  -47.9120 C.2       14 UNK         0.5000 
     83 O          -6.1479  -23.9281  -47.1852 O.2       14 UNK        -0.5000 
     84 N          -4.5277  -22.5162  -47.9271 N.am      15 UNK        -0.5000 
     85 CA         -4.6925  -21.3578  -47.0388 C.3       15 UNK         0.1400 
     86 CB         -4.3388  -21.7336  -45.5855 C.3       15 UNK        -0.1800 
     87 C          -6.0385  -20.6115  -47.1505 C.2       15 UNK         0.5000 
     88 O          -6.2994  -19.7098  -46.3538 O.2       15 UNK        -0.5000 
     89 N          -6.8486  -20.9565  -48.1584 N.am      16 UNK        -0.5000 
     90 CA         -8.1237  -20.3079  -48.4724 C.3       16 UNK         0.1400 
     91 CB         -9.0053  -21.3190  -49.2231 C.3       16 UNK        -0.1800 
     92 C          -7.9578  -19.0185  -49.3041 C.2       16 UNK         0.5000 
     93 O          -8.9286  -18.2802  -49.4754 O.2       16 UNK        -0.5000 
     94 N          -6.7495  -18.7825  -49.8251 N.am      17 UNK        -0.5000 
     95 CA         -6.3765  -17.6900  -50.7144 C.3       17 UNK         0.1400 
     96 CB         -6.9083  -17.9755  -52.1350 C.3       17 UNK        -0.1800 
     97 C          -4.8449  -17.5491  -50.6972 C.2       17 UNK         0.5000 
     98 O          -4.1733  -18.2492  -49.9335 O.2       17 UNK        -0.5000 
     99 N          -4.3274  -16.6482  -51.5403 N.am      18 UNK        -0.5000 
    100 CA        -2.9014  -16.4439  -51.7802 C.3       18 UNK         0.1400 
    101 CB        -2.6770  -14.9714  -52.1789 C.3       18 UNK        -0.1800 
    102 C         -2.3949  -17.4620  -52.8245 C.2       18 UNK         0.5000 
    103 O         -2.4450  -18.6651  -52.5705 O.2       18 UNK        -0.5000 
    104 N         -1.9473  -16.9831  -53.9946 N.am      19 UNK        -0.5000 
    105 CA        -1.3752  -17.7848  -55.0840 C.3       19 UNK         0.1400 
    106 CB        -0.9554  -16.8483  -56.2265 C.3       19 UNK        -0.1800 
    107 C         -2.2947  -18.9034  -55.6172 C.2       19 UNK         0.5000 
    108 O         -1.8001  -19.9362  -56.0683 O.2       19 UNK        -0.5000 
    109 N         -3.6155  -18.6968  -55.5269 N.am      20 UNK        -0.5000 
    110 CA        -4.6389  -19.6756  -55.8969 C.3       20 UNK         0.1400 
    111 CB        -6.0035  -18.9725  -55.9532 C.3       20 UNK        -0.1800 
    112 C         -4.6961  -20.9003  -54.9596 C.2       20 UNK         0.5000 
    113 O         -5.1716  -21.9544  -55.3828 O.2       20 UNK        -0.5000 
    114 N         -4.2070  -20.7591  -53.7185 N.am      21 UNK        -0.5000 
    115 CA        -4.1646  -21.8308  -52.7214 C.3       21 UNK         0.1400 
    116 CB        -4.2876  -21.2156  -51.3218 C.3       21 UNK        -0.1800 
    117 C         -2.8945  -22.6961  -52.8149 C.2       21 UNK         0.5000 
    118 O         -2.7871  -23.6746  -52.0723 O.2       21 UNK        -0.5000 
    119 N         -1.9521  -22.3208  -53.6907 N.am      22 UNK        -0.5000 
    120 CA        -0.6955  -23.0466  -53.9333 C.3       22 UNK         0.1400 
    121 C         -0.8610  -24.3400  -54.7874 C.2       22 UNK         0.5000 
    122 N         -2.0152  -24.6059  -55.3881 N.am      22 UNK        -0.7600 
    123 O          0.0774  -25.1236  -54.9011 O.2       22 UNK        -0.5000 
    124 C124        0.3950  -22.1260  -54.5501 C.3       23 UNK        -0.0398 
    125 S125        0.8609  -20.6048  -53.6364 S.3       23 UNK        -0.2404 
    126 C126        0.4408  -20.9517  -51.9025 C.3       23 UNK        -0.0205 
    127 H127       -4.7609  -15.9137  -46.2815 H         1 UNK         0.0600 
    128 H128       -3.8041  -17.0952  -47.1900 H         1 UNK         0.0600 
    129 H129       -5.3773  -16.5830  -47.7940 H         1 UNK         0.0600 
    130 H130       -2.0584  -15.4596  -47.1038 H         1 UNK         0.3000 
    131 H131       -2.0563  -13.5613  -49.3586 H         1 UNK         0.0600 
    132 H132        0.4101  -13.3098  -48.6265 H         1 UNK         0.0800 
    133 H133        0.1321  -14.5426  -47.4341 H         1 UNK         0.0800 
    134 H134        0.3624  -16.8284  -47.7744 H         1 UNK         0.0800 
    135 H135       -1.0071  -17.2492  -48.7827 H         1 UNK         0.0800 
    136 H136       -0.7524  -18.8565  -50.6023 H         1 UNK         0.1150 
    137 H137        3.0172  -20.8376  -51.0749 H         1 UNK         0.1150 
    138 H138        2.6841  -17.4711  -48.4426 H         1 UNK         0.1150 
    139 H139        5.0131  -19.8804  -50.1186 H         1 UNK         0.0800 
    140 H140        4.9500  -18.3270  -49.3262 H         1 UNK         0.0800 
    141 H141        2.7138  -21.4460  -47.9845 H         1 UNK         0.0800 
    142 H142        4.0185  -22.0378  -48.9858 H         1 UNK         0.0800 
    143 H143        5.1828  -22.9131  -46.9309 H         1 UNK         0.0600 
    144 H144        3.0040  -21.6065  -45.5202 H         1 UNK         0.3000 
    145 H145        3.6778  -23.1727  -42.3894 H         1 UNK         0.0600 
    146 H146        3.7755  -20.8189  -41.6096 H         1 UNK         0.0600 
    147 H147        4.1047  -20.2641  -43.2493 H         1 UNK         0.0600 
    148 H148        5.2741  -21.2705  -42.4081 H         1 UNK         0.0600 
    149 H149        1.7642  -21.2017  -43.1311 H         1 UNK         0.3000 
    150 H150       -0.7422  -23.4684  -44.3599 H         1 UNK         0.0600 
    151 H151       -0.9764  -23.4637  -41.8724 H         1 UNK         0.0600 
    152 H152       -2.0660  -22.3042  -42.6197 H         1 UNK         0.0600 
    153 H153       -0.5935  -21.7465  -41.8287 H         1 UNK         0.0600 
    154 H154       -0.8293  -20.6636  -44.0730 H         1 UNK         0.3000 
    155 H155        0.6294  -19.7848  -47.2377 H         1 UNK         0.0600 
    156 H156       -1.7008  -19.9993  -47.7405 H         1 UNK         0.0600 
    157 H157       -1.5986  -18.4409  -46.9454 H         1 UNK         0.0600 
    158 H158       -2.1872  -19.8268  -46.0551 H         1 UNK         0.0600 
    159 H159       -0.2662  -18.1969  -45.0471 H         1 UNK         0.3000 
    160 H160        2.8363  -17.9469  -43.3169 H         1 UNK         0.0600 
    161 H161        1.2481  -15.9564  -45.0263 H         1 UNK         0.0600 
    162 H162        2.9577  -16.3277  -45.2206 H         1 UNK         0.0600 
    163 H163        2.3928  -15.5570  -43.7458 H         1 UNK         0.0600 
    164 H164        0.2249  -16.7937  -42.9516 H         1 UNK         0.3000 
    165 H165       -1.0589  -19.3748  -40.8261 H         1 UNK         0.0600 
    166 H166       -1.3437  -17.4306  -39.3142 H         1 UNK         0.0600 
    167 H167        0.3445  -17.9132  -39.3551 H         1 UNK         0.0600 
    168 H168       -0.1801  -16.4916  -40.2502 H         1 UNK         0.0600 
    169 H169       -2.1705  -16.9020  -41.6738 H         1 UNK         0.3000 
    170 H170       -3.3502  -17.7757  -44.8390 H         1 UNK         0.0600 
    171 H171       -5.0185  -19.1217  -43.5306 H         1 UNK         0.0600 
    172 H172       -5.1194  -17.8376  -42.3349 H         1 UNK         0.0600 
    173 H173       -5.6599  -17.5563  -43.9917 H         1 UNK         0.0600 
    174 H174       -4.1142  -15.7296  -42.9801 H         1 UNK         0.3000 
    175 H175       -3.3521  -13.4717  -44.0062 H         1 UNK         0.0600 
    176 H176       -1.8857  -14.2817  -41.4400 H         1 UNK         0.0600 
    177 H177       -2.6233  -12.7021  -41.6943 H         1 UNK         0.0600 
    178 H178       -3.6203  -14.1407  -41.6780 H         1 UNK         0.0600 
    179 H179       -1.5877  -12.4965  -44.8003 H         1 UNK         0.3000 
    180 H180        1.0568  -11.2428  -43.5878 H         1 UNK         0.0600 
    181 H181        2.7227  -13.0876  -43.7237 H         1 UNK         0.0600 
    182 H182        2.9229  -11.9670  -45.0571 H         1 UNK         0.0600 
    183 H183        2.1369  -13.5201  -45.3284 H         1 UNK         0.0600 
    184 H184        0.5325  -12.0192  -46.3723 H         1 UNK         0.3000 
    185 H185       -2.1433   -9.8319  -46.8636 H         1 UNK         0.0600 
    186 H186       -0.2682   -8.2201  -47.2309 H         1 UNK         0.0600 
    187 H187        0.6826   -9.4811  -48.0062 H         1 UNK         0.0600 
    188 H188       -0.8136   -8.9132  -48.7492 H         1 UNK         0.0600 
    189 H189       -0.6579  -11.4510  -48.6723 H         1 UNK         0.3000 
    190 H190        2.3364  -24.1480  -45.6638 H         1 UNK         0.3000 
    191 H191        1.1451  -25.9762  -45.8417 H         1 UNK         0.0600 
    192 H192        2.0565  -28.0229  -46.8262 H         1 UNK         0.0600 
    193 H193        3.3441  -27.1702  -45.9915 H         1 UNK         0.0600 
    194 H194        3.2455  -27.1204  -47.7518 H         1 UNK         0.0600 
    195 H195        0.4750  -23.7669  -47.4537 H         1 UNK         0.3000 
    196 H196       -0.6778  -24.7079  -49.9728 H         1 UNK         0.0600 
    197 H197       -1.2971  -22.1759  -48.3611 H         1 UNK         0.0600 
    198 H198        0.1094  -22.2968  -49.4044 H         1 UNK         0.0600 
    199 H199       -1.5099  -22.4157  -50.0844 H         1 UNK         0.0600 
    200 H200       -3.1182  -24.2906  -50.2584 H         1 UNK         0.3000 
    201 H201       -4.7276  -25.7334  -48.3505 H         1 UNK         0.0600 
    202 H202       -6.5982  -25.0758  -49.8482 H         1 UNK         0.0600 
    203 H203       -5.2391  -25.6800  -50.7817 H         1 UNK         0.0600 
    204 H204       -5.5562  -23.9500  -50.7049 H         1 UNK         0.0600 
    205 H205       -3.7634  -22.4435  -48.5812 H         1 UNK         0.3000 
    206 H206       -3.9551  -20.6339  -47.3805 H         1 UNK         0.0600 
    207 H207       -3.3642  -22.2196  -45.5296 H         1 UNK         0.0600 
    208 H208       -4.2902  -20.8495  -44.9507 H         1 UNK         0.0600 
    209 H209       -5.0764  -22.4088  -45.1514 H         1 UNK         0.0600 
    210 H210       -6.5698  -21.7224  -48.7525 H         1 UNK         0.3000 
    211 H211       -8.6280  -20.0382  -47.5420 H         1 UNK         0.0600 
    212 H212       -8.5565  -21.6185  -50.1712 H         1 UNK         0.0600 
    213 H213       -9.9865  -20.8964  -49.4433 H         1 UNK         0.0600 
    214 H214       -9.1669  -22.2187  -48.6288 H         1 UNK         0.0600 
    215 H215       -5.9738  -19.3781  -49.5667 H         1 UNK         0.3000 
    216 H216       -6.8040  -16.7590  -50.3370 H         1 UNK         0.0600 
    217 H217       -7.9903  -18.1067  -52.1372 H         1 UNK         0.0600 
    218 H218       -6.4645  -18.8806  -52.5512 H         1 UNK         0.0600 
    219 H219       -6.6908  -17.1547  -52.8185 H         1 UNK         0.0600 
    220 H220       -4.9551  -16.1138  -52.1221 H         1 UNK         0.3000 
    221 H221       -2.3512  -16.6296  -50.8562 H         1 UNK         0.0600 
    222 H222       -1.6168  -14.7571  -52.3202 H         1 UNK         0.0600 
    223 H223       -3.2031  -14.7067  -53.0969 H         1 UNK         0.0600 
    224 H224       -3.0350  -14.3023  -51.3969 H         1 UNK         0.0600 
    225 H225       -1.9508  -15.9832  -54.1332 H         1 UNK         0.3000 
    226 H226       -0.4765  -18.2624  -54.6930 H         1 UNK         0.0600 
    227 H227       -0.2213  -16.1167  -55.8884 H         1 UNK         0.0600 
    228 H228       -0.4992  -17.4089  -57.0437 H         1 UNK         0.0600 
    229 H229       -1.8084  -16.3059  -56.6361 H         1 UNK         0.0600 
    230 H230       -3.9374  -17.8212  -55.1427 H         1 UNK         0.3000 
    231 H231       -4.4068  -20.0450  -56.8980 H         1 UNK         0.0600 
    232 H232       -6.7920  -19.6698  -56.2398 H         1 UNK         0.0600 
    233 H233       -6.0018  -18.1673  -56.6881 H         1 UNK         0.0600 
    234 H234       -6.2777  -18.5456  -54.9889 H         1 UNK         0.0600 
    235 H235       -3.7642  -19.8856  -53.4487 H         1 UNK         0.3000 
    236 H236       -5.0182  -22.4958  -52.8678 H         1 UNK         0.0600 
    237 H237       -5.2052  -20.6381  -51.2300 H         1 UNK         0.0600 
    238 H238       -4.3139  -21.9880  -50.5581 H         1 UNK         0.0600 
    239 H239       -3.4453  -20.5639  -51.0906 H         1 UNK         0.0600 
    240 H240       -2.1071  -21.4976  -54.2567 H         1 UNK         0.3000 
    241 H241       -0.3282  -23.4013  -52.9698 H         1 UNK         0.0600 
    242 H242       -2.7950  -23.9730  -55.3063 H         1 UNK         0.3800 
    243 H243       -2.1081  -25.4489  -55.9328 H         1 UNK         0.3800 
    244 H244        0.0927  -21.8205  -55.5530 H         1 UNK         0.0800 
    245 H245        1.3181  -22.6925  -54.6852 H         1 UNK         0.0800 
    246 H246        0.7927  -21.9486  -51.6373 H         1 UNK         0.0800 
    247 H247       -0.6424  -20.9446  -51.7838 H         1 UNK         0.0800 
@<TRIPOS>BOND
     1    1    2 1    
     2    1  127 1    
     3    1  128 1    
     4    1  129 1    
     5    2    3 2    
     6    2    4 am   BACKBONE|DICT|INTERRES
     7    4    5 1    
     8    4  130 1    
     9    5    6 1    
    10    5   65 1    
    11    5  131 1    
    12    6    7 1    
    13    6  132 1    
    14    6  133 1    
    15    7    8 1    
    16    8    9 1    
    17    8  134 1    
    18    8  135 1    
    19    9   10 ar   
    20    9   14 ar   
    21   10   11 ar   
    22   10  136 1    
    23   11   12 ar   
    24   11  126 1    
    25   12   13 ar   
    26   12  137 1    
    27   13   14 ar   
    28   13   15 1    
    29   14  138 1    
    30   15   16 1    
    31   15  139 1    
    32   15  140 1    
    33   16   17 1    
    34   17   18 1    
    35   17  141 1    
    36   17  142 1    
    37   18   19 1    
    38   18   67 1    
    39   18  143 1    
    40   19   20 am   BACKBONE|DICT|INTERRES
    41   19  144 1    
    42   20   21 2    
    43   20   22 1    
    44   22   23 1    
    45   22   24 1    
    46   22  145 1    
    47   23  146 1    
    48   23  147 1    
    49   23  148 1    
    50   24   25 am   BACKBONE|DICT|INTERRES
    51   24  149 1    
    52   25   26 2    
    53   25   27 1    
    54   27   28 1    
    55   27   29 1    
    56   27  150 1    
    57   28  151 1    
    58   28  152 1    
    59   28  153 1    
    60   29   30 am   BACKBONE|DICT|INTERRES
    61   29  154 1    
    62   30   31 2    
    63   30   32 1    
    64   32   33 1    
    65   32   34 1    
    66   32  155 1    
    67   33  156 1    
    68   33  157 1    
    69   33  158 1    
    70   34   35 am   BACKBONE|DICT|INTERRES
    71   34  159 1    
    72   35   36 2    
    73   35   37 1    
    74   37   38 1    
    75   37   39 1    
    76   37  160 1    
    77   38  161 1    
    78   38  162 1    
    79   38  163 1    
    80   39   40 am   BACKBONE|DICT|INTERRES
    81   39  164 1    
    82   40   41 2    
    83   40   42 1    
    84   42   43 1    
    85   42   44 1    
    86   42  165 1    
    87   43  166 1    
    88   43  167 1    
    89   43  168 1    
    90   44   45 am   BACKBONE|DICT|INTERRES
    91   44  169 1    
    92   45   46 2    
    93   45   47 1    
    94   47   48 1    
    95   47   49 1    
    96   47  170 1    
    97   48  171 1    
    98   48  172 1    
    99   48  173 1    
   100   49   50 am   BACKBONE|DICT|INTERRES
   101   49  174 1    
   102   50   51 2    
   103   50   52 1    
   104   52   53 1    
   105   52   54 1    
   106   52  175 1    
   107   53  176 1    
   108   53  177 1    
   109   53  178 1    
   110   54   55 am   BACKBONE|DICT|INTERRES
   111   54  179 1    
   112   55   56 2    
   113   55   57 1    
   114   57   58 1    
   115   57   59 1    
   116   57  180 1    
   117   58  181 1    
   118   58  182 1    
   119   58  183 1    
   120   59   60 am   BACKBONE|DICT|INTERRES
   121   59  184 1    
   122   60   61 2    
   123   60   62 1    
   124   62   63 1    
   125   62   64 1    
   126   62  185 1    
   127   63  186 1    
   128   63  187 1    
   129   63  188 1    
   130   64   65 am   BACKBONE|DICT|INTERRES
   131   64  189 1    
   132   65   66 2    
   133   67   68 2    
   134   67   69 am   BACKBONE|DICT|INTERRES
   135   69   70 1    
   136   69  190 1    
   137   70   71 1    
   138   70   72 1    
   139   70  191 1    
   140   71  192 1    
   141   71  193 1    
   142   71  194 1    
   143   72   73 2    
   144   72   74 am   BACKBONE|DICT|INTERRES
   145   74   75 1    
   146   74  195 1    
   147   75   76 1    
   148   75   77 1    
   149   75  196 1    
   150   76  197 1    
   151   76  198 1    
   152   76  199 1    
   153   77   78 2    
   154   77   79 am   BACKBONE|DICT|INTERRES
   155   79   80 1    
   156   79  200 1    
   157   80   81 1    
   158   80   82 1    
   159   80  201 1    
   160   81  202 1    
   161   81  203 1    
   162   81  204 1    
   163   82   83 2    
   164   82   84 am   BACKBONE|DICT|INTERRES
   165   84   85 1    
   166   84  205 1    
   167   85   86 1    
   168   85   87 1    
   169   85  206 1    
   170   86  207 1    
   171   86  208 1    
   172   86  209 1    
   173   87   88 2    
   174   87   89 am   BACKBONE|DICT|INTERRES
   175   89   90 1    
   176   89  210 1    
   177   90   91 1    
   178   90   92 1    
   179   90  211 1    
   180   91  212 1    
   181   91  213 1    
   182   91  214 1    
   183   92   93 2    
   184   92   94 am   BACKBONE|DICT|INTERRES
   185   94   95 1    
   186   94  215 1    
   187   95   96 1    
   188   95   97 1    
   189   95  216 1    
   190   96  217 1    
   191   96  218 1    
   192   96  219 1    
   193   97   98 2    
   194   97   99 am   BACKBONE|DICT|INTERRES
   195   99  100 1    
   196   99  220 1    
   197  100  101 1    
   198  100  102 1    
   199  100  221 1    
   200  101  222 1    
   201  101  223 1    
   202  101  224 1    
   203  102  103 2    
   204  102  104 am   BACKBONE|DICT|INTERRES
   205  104  105 1    
   206  104  225 1    
   207  105  106 1    
   208  105  107 1    
   209  105  226 1    
   210  106  227 1    
   211  106  228 1    
   212  106  229 1    
   213  107  108 2    
   214  107  109 am   BACKBONE|DICT|INTERRES
   215  109  110 1    
   216  109  230 1    
   217  110  111 1    
   218  110  112 1    
   219  110  231 1    
   220  111  232 1    
   221  111  233 1    
   222  111  234 1    
   223  112  113 2    
   224  112  114 am   BACKBONE|DICT|INTERRES
   225  114  115 1    
   226  114  235 1    
   227  115  116 1    
   228  115  117 1    
   229  115  236 1    
   230  116  237 1    
   231  116  238 1    
   232  116  239 1    
   233  117  118 2    
   234  117  119 am   BACKBONE|DICT|INTERRES
   235  119  120 1    
   236  119  240 1    
   237  120  121 1    
   238  120  124 1    
   239  120  241 1    
   240  121  122 am   BACKBONE|DICT|INTERRES
   241  121  123 2    
   242  122  242 1    
   243  122  243 1    
   244  124  125 1    
   245  124  244 1    
   246  124  245 1    
   247  125  126 1    
   248  126  246 1    
   249  126  247 1    
@<TRIPOS>SUBSTRUCTURE
     1 UNK         1 GROUP             0       ****    0 ROOT    
