@<TRIPOS>MOLECULE
3R540
247   249    1
SMALL
USER_CHARGES


@<TRIPOS>ATOM
      1 CA          5.9197  -14.3967  -45.3400 C.3       0 UNK        -0.1800 
      2 C           5.0881  -13.5782  -46.3179 C.2       0 UNK         0.5000 
      3 O           5.5467  -13.3187  -47.4305 O.2       0 UNK        -0.5000 
      4 N           3.8784  -13.1854  -45.8937 N.am      1 UNK        -0.5000 
      5 CA          2.8929  -12.3380  -46.5816 C.3       1 UNK         0.1400 
      6 C6          2.4539  -12.8993  -47.9609 C.3       23 UNK        -0.0398 
      7 S7          1.6322  -14.5198  -47.8204 S.3       23 UNK        -0.2404 
      8 C8          1.6470  -15.0147  -49.5687 C.3       23 UNK        -0.0205 
      9 C9          0.8157  -16.2644  -49.8037 C.ar      23 UNK        -0.0193 
     10 C10        -0.5783  -16.1758  -49.8317 C.ar      23 UNK        -0.1150 
     11 C11        -1.3593  -17.3112  -50.0600 C.ar      23 UNK        -0.0193 
     12 C12        -0.7305  -18.5396  -50.2835 C.ar      23 UNK        -0.1150 
     13 C13         0.6642  -18.6410  -50.2705 C.ar      23 UNK        -0.0193 
     14 C14         1.4322  -17.5004  -50.0177 C.ar      23 UNK        -0.1150 
     15 C15         1.3437  -19.9717  -50.5653 C.3       23 UNK        -0.0205 
     16 S16         1.5780  -20.9805  -49.0683 S.3       23 UNK        -0.2404 
     17 C17        -0.1305  -21.5225  -48.7495 C.3       23 UNK        -0.0398 
     18 CA         -0.2162  -22.7068  -47.7601 C.3       11 UNK         0.1400 
     19 N           0.2044  -22.3336  -46.4031 N.am      11 UNK        -0.5000 
     20 C           0.3176  -23.1897  -45.3772 C.2       10 UNK         0.5000 
     21 O           0.1297  -24.4001  -45.4772 O.2       10 UNK        -0.5000 
     22 CA          0.6302  -22.5983  -43.9922 C.3       10 UNK         0.1400 
     23 CB          2.1304  -22.3079  -43.8387 C.3       10 UNK        -0.1800 
     24 N          -0.1533  -21.3957  -43.7088 N.am      10 UNK        -0.5000 
     25 C          -1.4893  -21.3751  -43.5936 C.2       9 UNK         0.5000 
     26 O          -2.1929  -22.3826  -43.6596 O.2       9 UNK        -0.5000 
     27 CA         -2.1601  -19.9994  -43.4231 C.3       9 UNK         0.1400 
     28 CB         -2.1076  -19.5416  -41.9587 C.3       9 UNK        -0.1800 
     29 N          -1.5697  -18.9733  -44.2821 N.am      9 UNK        -0.5000 
     30 C          -1.5815  -19.0025  -45.6227 C.2       8 UNK         0.5000 
     31 O          -2.1422  -19.8760  -46.2854 O.2       8 UNK        -0.5000 
     32 CA         -0.7835  -17.8983  -46.3382 C.3       8 UNK         0.1400 
     33 CB         -1.6055  -16.6041  -46.4366 C.3       8 UNK        -0.1800 
     34 N           0.4936  -17.6242  -45.6779 N.am      8 UNK        -0.5000 
     35 C           1.4967  -18.5082  -45.5835 C.2       7 UNK         0.5000 
     36 O           1.4530  -19.6433  -46.0545 O.2       7 UNK        -0.5000 
     37 CA          2.7273  -18.0737  -44.7685 C.3       7 UNK         0.1400 
     38 CB          3.6046  -17.1022  -45.5683 C.3       7 UNK        -0.1800 
     39 N           2.3605  -17.4649  -43.4893 N.am      7 UNK        -0.5000 
     40 C           1.7634  -18.1264  -42.4858 C.2       6 UNK         0.5000 
     41 O           1.5274  -19.3329  -42.5111 O.2       6 UNK        -0.5000 
     42 CA          1.3071  -17.2988  -41.2679 C.3       6 UNK         0.1400 
     43 CB          2.4170  -17.2464  -40.2080 C.3       6 UNK        -0.1800 
     44 N           0.9080  -15.9338  -41.6111 N.am      6 UNK        -0.5000 
     45 C          -0.0466  -15.5973  -42.4896 C.2       5 UNK         0.5000 
     46 O          -0.7729  -16.4209  -43.0465 O.2       5 UNK        -0.5000 
     47 CA         -0.1946  -14.1027  -42.8382 C.3       5 UNK         0.1400 
     48 CB         -1.5434  -13.5612  -42.3421 C.3       5 UNK        -0.1800 
     49 N           0.8752  -13.2418  -42.3233 N.am      5 UNK        -0.5000 
     50 C           2.1633  -13.2663  -42.6879 C.2       4 UNK         0.5000 
     51 O           2.6336  -14.0819  -43.4843 O.2       4 UNK        -0.5000 
     52 CA          3.0508  -12.1624  -42.0794 C.3       4 UNK         0.1400 
     53 CB          4.5462  -12.3506  -42.3897 C.3       4 UNK        -0.1800 
     54 N           2.6250  -10.8518  -42.5669 N.am      4 UNK        -0.5000 
     55 C           1.5815  -10.1526  -42.0998 C.2       3 UNK         0.5000 
     56 O           0.9123  -10.4945  -41.1237 O.2       3 UNK        -0.5000 
     57 CA          1.1892   -8.8969  -42.8977 C.3       3 UNK         0.1400 
     58 CB          2.0096   -7.6823  -42.4378 C.3       3 UNK        -0.1800 
     59 N           1.3588   -9.0812  -44.3420 N.am      3 UNK        -0.5000 
     60 C           0.6011   -9.8866  -45.1030 C.2       2 UNK         0.5000 
     61 O          -0.3367  -10.5555  -44.6713 O.2       2 UNK        -0.5000 
     62 CA          0.9738   -9.9851  -46.5932 C.3       2 UNK         0.1400 
     63 CB          0.2781   -8.8725  -47.3913 C.3       2 UNK        -0.1800 
     64 N           2.4232   -9.8817  -46.7941 N.am      2 UNK        -0.5000 
     65 C           3.3430  -10.8546  -46.6974 C.2       1 UNK         0.5000 
     66 O           4.5392  -10.5672  -46.7194 O.2       1 UNK        -0.5000 
     67 C          -1.6380  -23.3081  -47.7806 C.2       11 UNK         0.5000 
     68 O          -1.8652  -24.3228  -48.4476 O.2       11 UNK        -0.5000 
     69 N          -2.5636  -22.6822  -47.0389 N.am      12 UNK        -0.5000 
     70 CA         -3.9393  -23.1440  -46.8628 C.3       12 UNK         0.1400 
     71 CB         -4.7583  -22.0809  -46.1171 C.3       12 UNK        -0.1800 
     72 C          -4.0180  -24.5098  -46.1577 C.2       12 UNK         0.5000 
     73 O          -4.7449  -25.3888  -46.6203 O.2       12 UNK        -0.5000 
     74 N          -3.2405  -24.6793  -45.0811 N.am      13 UNK        -0.5000 
     75 CA         -3.1304  -25.9314  -44.3332 C.3       13 UNK         0.1400 
     76 CB         -2.3481  -25.6817  -43.0347 C.3       13 UNK        -0.1800 
     77 C          -2.4834  -27.0683  -45.1472 C.2       13 UNK         0.5000 
     78 O          -2.9244  -28.2133  -45.0403 O.2       13 UNK        -0.5000 
     79 N          -1.4511  -26.7363  -45.9343 N.am      14 UNK        -0.5000 
     80 CA         -0.6799  -27.6826  -46.7359 C.3       14 UNK         0.1400 
     81 CB          0.6183  -27.0181  -47.2218 C.3       14 UNK        -0.1800 
     82 C          -1.4637  -28.2621  -47.9239 C.2       14 UNK         0.5000 
     83 O          -1.4862  -29.4836  -48.0855 O.2       14 UNK        -0.5000 
     84 N          -2.0586  -27.3909  -48.7511 N.am      15 UNK        -0.5000 
     85 CA         -2.6416  -27.7868  -50.0367 C.3       15 UNK         0.1400 
     86 CB         -1.5193  -27.9696  -51.0820 C.3       15 UNK        -0.1800 
     87 C          -3.7318  -26.8159  -50.5180 C.2       15 UNK         0.5000 
     88 O          -3.8689  -26.6121  -51.7266 O.2       15 UNK        -0.5000 
     89 N          -4.4748  -26.2025  -49.5821 N.am      16 UNK        -0.5000 
     90 CA         -5.5701  -25.2494  -49.8312 C.3       16 UNK         0.1400 
     91 CB         -6.7769  -25.9717  -50.4669 C.3       16 UNK        -0.1800 
     92 C          -5.1344  -24.0126  -50.6475 C.2       16 UNK         0.5000 
     93 O          -5.9464  -23.4392  -51.3750 O.2       16 UNK        -0.5000 
     94 N          -3.8422  -23.6603  -50.5548 N.am      17 UNK        -0.5000 
     95 CA         -3.1434  -22.6500  -51.3511 C.3       17 UNK         0.1400 
     96 CB         -3.5625  -21.2370  -50.9071 C.3       17 UNK        -0.1800 
     97 C          -3.2725  -22.8825  -52.8723 C.2       17 UNK         0.5000 
     98 O          -3.4594  -21.9282  -53.6279 O.2       17 UNK        -0.5000 
     99 N          -3.2096  -24.1609  -53.2799 N.am      18 UNK        -0.5000 
    100 CA        -3.4047  -24.6656  -54.6434 C.3       18 UNK         0.1400 
    101 CB        -2.2560  -24.2126  -55.5683 C.3       18 UNK        -0.1800 
    102 C         -4.8081  -24.3265  -55.1881 C.2       18 UNK         0.5000 
    103 O         -4.9426  -23.8689  -56.3239 O.2       18 UNK        -0.5000 
    104 N         -5.8204  -24.5413  -54.3339 N.am      19 UNK        -0.5000 
    105 CA        -7.2295  -24.1761  -54.5103 C.3       19 UNK         0.1400 
    106 CB        -7.8701  -24.9572  -55.6771 C.3       19 UNK        -0.1800 
    107 C         -7.4146  -22.6475  -54.6127 C.2       19 UNK         0.5000 
    108 O         -8.0676  -22.1574  -55.5361 O.2       19 UNK        -0.5000 
    109 N         -6.8220  -21.9340  -53.6437 N.am      20 UNK        -0.5000 
    110 CA        -6.8227  -20.4787  -53.4721 C.3       20 UNK         0.1400 
    111 CB        -8.2256  -19.9872  -53.0605 C.3       20 UNK        -0.1800 
    112 C         -6.2468  -19.7168  -54.6841 C.2       20 UNK         0.5000 
    113 O         -6.8274  -18.7224  -55.1256 O.2       20 UNK        -0.5000 
    114 N         -5.0931  -20.1763  -55.1899 N.am      21 UNK        -0.5000 
    115 CA        -4.3759  -19.5768  -56.3222 C.3       21 UNK         0.1400 
    116 CB        -3.2146  -20.4949  -56.7289 C.3       21 UNK        -0.1800 
    117 C         -3.8653  -18.1490  -56.0387 C.2       21 UNK         0.5000 
    118 O         -3.7037  -17.3600  -56.9704 O.2       21 UNK        -0.5000 
    119 N         -3.6556  -17.8408  -54.7545 N.am      22 UNK        -0.5000 
    120 CA        -3.3917  -16.4997  -54.2157 C.3       22 UNK         0.1400 
    121 C         -4.6161  -15.5332  -54.2230 C.2       22 UNK         0.5000 
    122 N         -5.8297  -15.9748  -54.5362 N.am      22 UNK        -0.7600 
    123 O         -4.4572  -14.3458  -53.9528 O.2       22 UNK        -0.5000 
    124 C124       -2.7298  -16.5836  -52.8147 C.3       23 UNK        -0.0398 
    125 S125       -3.6463  -17.6436  -51.6387 S.3       23 UNK        -0.2404 
    126 C126       -2.8790  -17.2037  -50.0466 C.3       23 UNK        -0.0205 
    127 H127        6.7957  -13.8283  -45.0282 H         1 UNK         0.0600 
    128 H128        6.2610  -15.3169  -45.8139 H         1 UNK         0.0600 
    129 H129        5.3519  -14.6618  -44.4476 H         1 UNK         0.0600 
    130 H130        3.5691  -13.5083  -44.9804 H         1 UNK         0.3000 
    131 H131        2.0294  -12.3639  -45.9172 H         1 UNK         0.0600 
    132 H132        3.3057  -12.9850  -48.6362 H         1 UNK         0.0800 
    133 H133        1.7554  -12.2252  -48.4579 H         1 UNK         0.0800 
    134 H134        1.2532  -14.2022  -50.1813 H         1 UNK         0.0800 
    135 H135        2.6781  -15.1727  -49.8889 H         1 UNK         0.0800 
    136 H136       -1.0528  -15.2195  -49.6620 H         1 UNK         0.1150 
    137 H137       -1.3288  -19.4168  -50.4728 H         1 UNK         0.1150 
    138 H138        2.5106  -17.5729  -50.0032 H         1 UNK         0.1150 
    139 H139        0.7713  -20.5324  -51.3057 H         1 UNK         0.0800 
    140 H140        2.3203  -19.7921  -51.0173 H         1 UNK         0.0800 
    141 H141       -0.5672  -21.7969  -49.7094 H         1 UNK         0.0800 
    142 H142       -0.7036  -20.6719  -48.3793 H         1 UNK         0.0800 
    143 H143        0.4619  -23.4896  -48.1063 H         1 UNK         0.0600 
    144 H144        0.4345  -21.3554  -46.2516 H         1 UNK         0.3000 
    145 H145        0.3600  -23.3490  -43.2468 H         1 UNK         0.0600 
    146 H146        2.3648  -21.9749  -42.8276 H         1 UNK         0.0600 
    147 H147        2.7219  -23.2039  -44.0306 H         1 UNK         0.0600 
    148 H148        2.4691  -21.5378  -44.5310 H         1 UNK         0.0600 
    149 H149        0.3678  -20.5333  -43.5865 H         1 UNK         0.3000 
    150 H150       -3.2090  -20.1026  -43.7081 H         1 UNK         0.0600 
    151 H151       -2.5910  -18.5732  -41.8285 H         1 UNK         0.0600 
    152 H152       -2.6209  -20.2534  -41.3111 H         1 UNK         0.0600 
    153 H153       -1.0822  -19.4560  -41.6011 H         1 UNK         0.0600 
    154 H154       -1.1227  -18.1861  -43.8210 H         1 UNK         0.3000 
    155 H155       -0.5658  -18.2449  -47.3499 H         1 UNK         0.0600 
    156 H156       -1.8699  -16.2124  -45.4545 H         1 UNK         0.0600 
    157 H157       -2.5349  -16.7760  -46.9802 H         1 UNK         0.0600 
    158 H158       -1.0572  -15.8273  -46.9686 H         1 UNK         0.0600 
    159 H159        0.5875  -16.7288  -45.2233 H         1 UNK         0.3000 
    160 H160        3.3178  -18.9691  -44.5623 H         1 UNK         0.0600 
    161 H161        3.1194  -16.1350  -45.7014 H         1 UNK         0.0600 
    162 H162        3.8299  -17.4976  -46.5598 H         1 UNK         0.0600 
    163 H163        4.5539  -16.9375  -45.0607 H         1 UNK         0.0600 
    164 H164        2.5075  -16.4681  -43.3959 H         1 UNK         0.3000 
    165 H165        0.4395  -17.7967  -40.8321 H         1 UNK         0.0600 
    166 H166        2.0789  -16.7347  -39.3067 H         1 UNK         0.0600 
    167 H167        2.7233  -18.2513  -39.9140 H         1 UNK         0.0600 
    168 H168        3.3026  -16.7278  -40.5778 H         1 UNK         0.0600 
    169 H169        1.4505  -15.1884  -41.2021 H         1 UNK         0.3000 
    170 H170       -0.1794  -14.0300  -43.9277 H         1 UNK         0.0600 
    171 H171       -2.3729  -14.1492  -42.7373 H         1 UNK         0.0600 
    172 H172       -1.6104  -13.5865  -41.2538 H         1 UNK         0.0600 
    173 H173       -1.6955  -12.5308  -42.6651 H         1 UNK         0.0600 
    174 H174        0.5872  -12.5011  -41.6934 H         1 UNK         0.3000 
    175 H175        2.9303  -12.2056  -40.9948 H         1 UNK         0.0600 
    176 H176        4.7633  -12.2198  -43.4490 H         1 UNK         0.0600 
    177 H177        5.1508  -11.6297  -41.8394 H         1 UNK         0.0600 
    178 H178        4.8876  -13.3453  -42.1000 H         1 UNK         0.0600 
    179 H179        3.1039  -10.4985  -43.3814 H         1 UNK         0.3000 
    180 H180        0.1348   -8.6920  -42.6997 H         1 UNK         0.0600 
    181 H181        3.0749   -7.8176  -42.6284 H         1 UNK         0.0600 
    182 H182        1.8867   -7.5117  -41.3674 H         1 UNK         0.0600 
    183 H183        1.6894   -6.7742  -42.9489 H         1 UNK         0.0600 
    184 H184        2.1088   -8.5657  -44.7781 H         1 UNK         0.3000 
    185 H185        0.5971  -10.9357  -46.9708 H         1 UNK         0.0600 
    186 H186        0.4909   -8.9610  -48.4569 H         1 UNK         0.0600 
    187 H187       -0.8051   -8.9254  -47.2723 H         1 UNK         0.0600 
    188 H188        0.5955   -7.8805  -47.0675 H         1 UNK         0.0600 
    189 H189        2.7642   -8.9429  -46.9405 H         1 UNK         0.3000 
    190 H190       -2.3104  -21.8208  -46.5630 H         1 UNK         0.3000 
    191 H191       -4.3767  -23.2550  -47.8539 H         1 UNK         0.0600 
    192 H192       -4.7515  -21.1319  -46.6538 H         1 UNK         0.0600 
    193 H193       -5.7991  -22.3910  -46.0165 H         1 UNK         0.0600 
    194 H194       -4.3722  -21.8996  -45.1147 H         1 UNK         0.0600 
    195 H195       -2.7038  -23.8894  -44.7318 H         1 UNK         0.3000 
    196 H196       -4.1396  -26.2498  -44.0640 H         1 UNK         0.0600 
    197 H197       -2.2682  -26.5949  -42.4438 H         1 UNK         0.0600 
    198 H198       -2.8431  -24.9343  -42.4144 H         1 UNK         0.0600 
    199 H199       -1.3358  -25.3301  -43.2367 H         1 UNK         0.0600 
    200 H200       -1.1033  -25.7815  -45.9061 H         1 UNK         0.3000 
    201 H201       -0.4007  -28.5168  -46.0886 H         1 UNK         0.0600 
    202 H202        1.2508  -26.7313  -46.3817 H         1 UNK         0.0600 
    203 H203        0.4178  -26.1224  -47.8108 H         1 UNK         0.0600 
    204 H204        1.1989  -27.6992  -47.8453 H         1 UNK         0.0600 
    205 H205       -1.9969  -26.3951  -48.5598 H         1 UNK         0.3000 
    206 H206       -3.1497  -28.7455  -49.9141 H         1 UNK         0.0600 
    207 H207       -0.7892  -28.7124  -50.7609 H         1 UNK         0.0600 
    208 H208       -1.9177  -28.3122  -52.0378 H         1 UNK         0.0600 
    209 H209       -0.9876  -27.0344  -51.2614 H         1 UNK         0.0600 
    210 H210       -4.2922  -26.4012  -48.6056 H         1 UNK         0.3000 
    211 H211       -5.8961  -24.8719  -48.8631 H         1 UNK         0.0600 
    212 H212       -6.5581  -26.3203  -51.4766 H         1 UNK         0.0600 
    213 H213       -7.6417  -25.3102  -50.5307 H         1 UNK         0.0600 
    214 H214       -7.0759  -26.8348  -49.8722 H         1 UNK         0.0600 
    215 H215       -3.2547  -24.1856  -49.9155 H         1 UNK         0.3000 
    216 H216       -2.0825  -22.7671  -51.1333 H         1 UNK         0.0600 
    217 H217       -3.0436  -20.4802  -51.4930 H         1 UNK         0.0600 
    218 H218       -3.3194  -21.0639  -49.8585 H         1 UNK         0.0600 
    219 H219       -4.6314  -21.0703  -51.0325 H         1 UNK         0.0600 
    220 H220       -3.1386  -24.8833  -52.5710 H         1 UNK         0.3000 
    221 H221       -3.3610  -25.7537  -54.5765 H         1 UNK         0.0600 
    222 H222       -2.2400  -23.1313  -55.6992 H         1 UNK         0.0600 
    223 H223       -1.2883  -24.5145  -55.1682 H         1 UNK         0.0600 
    224 H224       -2.3513  -24.6604  -56.5581 H         1 UNK         0.0600 
    225 H225       -5.5798  -24.8856  -53.4145 H         1 UNK         0.3000 
    226 H226       -7.7391  -24.4830  -53.5956 H         1 UNK         0.0600 
    227 H227       -7.7270  -26.0311  -55.5578 H         1 UNK         0.0600 
    228 H228       -8.9446  -24.7760  -55.7207 H         1 UNK         0.0600 
    229 H229       -7.4532  -24.6679  -56.6420 H         1 UNK         0.0600 
    230 H230       -6.3415  -22.4537  -52.9122 H         1 UNK         0.3000 
    231 H231       -6.1488  -20.2691  -52.6413 H         1 UNK         0.0600 
    232 H232       -8.9550  -20.1297  -53.8584 H         1 UNK         0.0600 
    233 H233       -8.2113  -18.9245  -52.8152 H         1 UNK         0.0600 
    234 H234       -8.5849  -20.5174  -52.1784 H         1 UNK         0.0600 
    235 H235       -4.6365  -20.9633  -54.7330 H         1 UNK         0.3000 
    236 H236       -5.0722  -19.5149  -57.1608 H         1 UNK         0.0600 
    237 H237       -3.5760  -21.4854  -57.0053 H         1 UNK         0.0600 
    238 H238       -2.6793  -20.0925  -57.5898 H         1 UNK         0.0600 
    239 H239       -2.4942  -20.6127  -55.9185 H         1 UNK         0.0600 
    240 H240       -3.8129  -18.5593  -54.0627 H         1 UNK         0.3000 
    241 H241       -2.6621  -16.0324  -54.8797 H         1 UNK         0.0600 
    242 H242       -6.0011  -16.9471  -54.7686 H         1 UNK         0.3800 
    243 H243       -6.6000  -15.3256  -54.5396 H         1 UNK         0.3800 
    244 H244       -1.7259  -16.9972  -52.9198 H         1 UNK         0.0800 
    245 H245       -2.5950  -15.5906  -52.3820 H         1 UNK         0.0800 
    246 H246       -3.2722  -17.8658  -49.2739 H         1 UNK         0.0800 
    247 H247       -3.1935  -16.1951  -49.7742 H         1 UNK         0.0800 
@<TRIPOS>BOND
     1    1    2 1    
     2    1  127 1    
     3    1  128 1    
     4    1  129 1    
     5    2    3 2    
     6    2    4 am   BACKBONE|DICT|INTERRES
     7    4    5 1    
     8    4  130 1    
     9    5    6 1    
    10    5   65 1    
    11    5  131 1    
    12    6    7 1    
    13    6  132 1    
    14    6  133 1    
    15    7    8 1    
    16    8    9 1    
    17    8  134 1    
    18    8  135 1    
    19    9   10 ar   
    20    9   14 ar   
    21   10   11 ar   
    22   10  136 1    
    23   11   12 ar   
    24   11  126 1    
    25   12   13 ar   
    26   12  137 1    
    27   13   14 ar   
    28   13   15 1    
    29   14  138 1    
    30   15   16 1    
    31   15  139 1    
    32   15  140 1    
    33   16   17 1    
    34   17   18 1    
    35   17  141 1    
    36   17  142 1    
    37   18   19 1    
    38   18   67 1    
    39   18  143 1    
    40   19   20 am   BACKBONE|DICT|INTERRES
    41   19  144 1    
    42   20   21 2    
    43   20   22 1    
    44   22   23 1    
    45   22   24 1    
    46   22  145 1    
    47   23  146 1    
    48   23  147 1    
    49   23  148 1    
    50   24   25 am   BACKBONE|DICT|INTERRES
    51   24  149 1    
    52   25   26 2    
    53   25   27 1    
    54   27   28 1    
    55   27   29 1    
    56   27  150 1    
    57   28  151 1    
    58   28  152 1    
    59   28  153 1    
    60   29   30 am   BACKBONE|DICT|INTERRES
    61   29  154 1    
    62   30   31 2    
    63   30   32 1    
    64   32   33 1    
    65   32   34 1    
    66   32  155 1    
    67   33  156 1    
    68   33  157 1    
    69   33  158 1    
    70   34   35 am   BACKBONE|DICT|INTERRES
    71   34  159 1    
    72   35   36 2    
    73   35   37 1    
    74   37   38 1    
    75   37   39 1    
    76   37  160 1    
    77   38  161 1    
    78   38  162 1    
    79   38  163 1    
    80   39   40 am   BACKBONE|DICT|INTERRES
    81   39  164 1    
    82   40   41 2    
    83   40   42 1    
    84   42   43 1    
    85   42   44 1    
    86   42  165 1    
    87   43  166 1    
    88   43  167 1    
    89   43  168 1    
    90   44   45 am   BACKBONE|DICT|INTERRES
    91   44  169 1    
    92   45   46 2    
    93   45   47 1    
    94   47   48 1    
    95   47   49 1    
    96   47  170 1    
    97   48  171 1    
    98   48  172 1    
    99   48  173 1    
   100   49   50 am   BACKBONE|DICT|INTERRES
   101   49  174 1    
   102   50   51 2    
   103   50   52 1    
   104   52   53 1    
   105   52   54 1    
   106   52  175 1    
   107   53  176 1    
   108   53  177 1    
   109   53  178 1    
   110   54   55 am   BACKBONE|DICT|INTERRES
   111   54  179 1    
   112   55   56 2    
   113   55   57 1    
   114   57   58 1    
   115   57   59 1    
   116   57  180 1    
   117   58  181 1    
   118   58  182 1    
   119   58  183 1    
   120   59   60 am   BACKBONE|DICT|INTERRES
   121   59  184 1    
   122   60   61 2    
   123   60   62 1    
   124   62   63 1    
   125   62   64 1    
   126   62  185 1    
   127   63  186 1    
   128   63  187 1    
   129   63  188 1    
   130   64   65 am   BACKBONE|DICT|INTERRES
   131   64  189 1    
   132   65   66 2    
   133   67   68 2    
   134   67   69 am   BACKBONE|DICT|INTERRES
   135   69   70 1    
   136   69  190 1    
   137   70   71 1    
   138   70   72 1    
   139   70  191 1    
   140   71  192 1    
   141   71  193 1    
   142   71  194 1    
   143   72   73 2    
   144   72   74 am   BACKBONE|DICT|INTERRES
   145   74   75 1    
   146   74  195 1    
   147   75   76 1    
   148   75   77 1    
   149   75  196 1    
   150   76  197 1    
   151   76  198 1    
   152   76  199 1    
   153   77   78 2    
   154   77   79 am   BACKBONE|DICT|INTERRES
   155   79   80 1    
   156   79  200 1    
   157   80   81 1    
   158   80   82 1    
   159   80  201 1    
   160   81  202 1    
   161   81  203 1    
   162   81  204 1    
   163   82   83 2    
   164   82   84 am   BACKBONE|DICT|INTERRES
   165   84   85 1    
   166   84  205 1    
   167   85   86 1    
   168   85   87 1    
   169   85  206 1    
   170   86  207 1    
   171   86  208 1    
   172   86  209 1    
   173   87   88 2    
   174   87   89 am   BACKBONE|DICT|INTERRES
   175   89   90 1    
   176   89  210 1    
   177   90   91 1    
   178   90   92 1    
   179   90  211 1    
   180   91  212 1    
   181   91  213 1    
   182   91  214 1    
   183   92   93 2    
   184   92   94 am   BACKBONE|DICT|INTERRES
   185   94   95 1    
   186   94  215 1    
   187   95   96 1    
   188   95   97 1    
   189   95  216 1    
   190   96  217 1    
   191   96  218 1    
   192   96  219 1    
   193   97   98 2    
   194   97   99 am   BACKBONE|DICT|INTERRES
   195   99  100 1    
   196   99  220 1    
   197  100  101 1    
   198  100  102 1    
   199  100  221 1    
   200  101  222 1    
   201  101  223 1    
   202  101  224 1    
   203  102  103 2    
   204  102  104 am   BACKBONE|DICT|INTERRES
   205  104  105 1    
   206  104  225 1    
   207  105  106 1    
   208  105  107 1    
   209  105  226 1    
   210  106  227 1    
   211  106  228 1    
   212  106  229 1    
   213  107  108 2    
   214  107  109 am   BACKBONE|DICT|INTERRES
   215  109  110 1    
   216  109  230 1    
   217  110  111 1    
   218  110  112 1    
   219  110  231 1    
   220  111  232 1    
   221  111  233 1    
   222  111  234 1    
   223  112  113 2    
   224  112  114 am   BACKBONE|DICT|INTERRES
   225  114  115 1    
   226  114  235 1    
   227  115  116 1    
   228  115  117 1    
   229  115  236 1    
   230  116  237 1    
   231  116  238 1    
   232  116  239 1    
   233  117  118 2    
   234  117  119 am   BACKBONE|DICT|INTERRES
   235  119  120 1    
   236  119  240 1    
   237  120  121 1    
   238  120  124 1    
   239  120  241 1    
   240  121  122 am   BACKBONE|DICT|INTERRES
   241  121  123 2    
   242  122  242 1    
   243  122  243 1    
   244  124  125 1    
   245  124  244 1    
   246  124  245 1    
   247  125  126 1    
   248  126  246 1    
   249  126  247 1    
@<TRIPOS>SUBSTRUCTURE
     1 UNK         1 GROUP             0       ****    0 ROOT    
