@<TRIPOS>MOLECULE
3R540
247   249    1
SMALL
USER_CHARGES


@<TRIPOS>ATOM
      1 CA         -2.0526  -12.1925  -52.8738 C.3       0 UNK        -0.1800 
      2 C          -0.9173  -12.1358  -51.8615 C.2       0 UNK         0.5000 
      3 O           0.0002  -11.3292  -52.0144 O.2       0 UNK        -0.5000 
      4 N          -0.9773  -12.9870  -50.8288 N.am      1 UNK        -0.5000 
      5 CA          0.0334  -13.0927  -49.7632 C.3       1 UNK         0.1400 
      6 C6         -0.1432  -14.3669  -48.9035 C.3       23 UNK        -0.0398 
      7 S7         -0.1315  -15.8907  -49.8950 S.3       23 UNK        -0.2404 
      8 C8          1.4339  -16.6915  -49.3958 C.3       23 UNK        -0.0205 
      9 C9          1.6036  -18.0864  -49.9974 C.ar      23 UNK        -0.0193 
     10 C10         1.1717  -18.3584  -51.2985 C.ar      23 UNK        -0.1150 
     11 C11         1.3088  -19.6286  -51.8557 C.ar      23 UNK        -0.0193 
     12 C12         1.9504  -20.6304  -51.1215 C.ar      23 UNK        -0.1150 
     13 C13         2.4079  -20.3780  -49.8220 C.ar      23 UNK        -0.0193 
     14 C14         2.2193  -19.1070  -49.2627 C.ar      23 UNK        -0.1150 
     15 C15         3.1582  -21.4580  -49.0467 C.3       23 UNK        -0.0205 
     16 S16         2.1668  -22.9568  -48.7298 S.3       23 UNK        -0.2404 
     17 C17         0.9844  -22.3625  -47.4793 C.3       23 UNK        -0.0398 
     18 CA          0.3699  -23.5082  -46.6326 C.3       11 UNK         0.1400 
     19 N           0.0417  -23.0436  -45.2821 N.am      11 UNK        -0.5000 
     20 C          -0.3635  -23.8177  -44.2672 C.2       10 UNK         0.5000 
     21 O          -0.4579  -25.0423  -44.3367 O.2       10 UNK        -0.5000 
     22 CA         -0.7802  -23.0920  -42.9745 C.3       10 UNK         0.1400 
     23 CB          0.4415  -22.7716  -42.1004 C.3       10 UNK        -0.1800 
     24 N          -1.5253  -21.8623  -43.2521 N.am      10 UNK        -0.5000 
     25 C          -2.7652  -21.8354  -43.7617 C.2       9 UNK         0.5000 
     26 O          -3.4282  -22.8458  -43.9948 O.2       9 UNK        -0.5000 
     27 CA         -3.3382  -20.4518  -44.1236 C.3       9 UNK         0.1400 
     28 CB         -3.8870  -19.7425  -42.8770 C.3       9 UNK        -0.1800 
     29 N          -2.3594  -19.5875  -44.7838 N.am      9 UNK        -0.5000 
     30 C          -1.7630  -19.8661  -45.9512 C.2       8 UNK         0.5000 
     31 O          -2.0125  -20.8607  -46.6240 O.2       8 UNK        -0.5000 
     32 CA         -0.6720  -18.8982  -46.4318 C.3       8 UNK         0.1400 
     33 CB         -1.3156  -17.7374  -47.1932 C.3       8 UNK        -0.1800 
     34 N           0.1592  -18.3859  -45.3418 N.am      8 UNK        -0.5000 
     35 C           0.8998  -19.1439  -44.5202 C.2       7 UNK         0.5000 
     36 O           0.9841  -20.3682  -44.6108 O.2       7 UNK        -0.5000 
     37 CA          1.6253  -18.4167  -43.3771 C.3       7 UNK         0.1400 
     38 CB          2.9804  -17.8681  -43.8494 C.3       7 UNK        -0.1800 
     39 N           0.8066  -17.3286  -42.8420 N.am      7 UNK        -0.5000 
     40 C          -0.2337  -17.5084  -42.0152 C.2       6 UNK         0.5000 
     41 O          -0.5511  -18.6021  -41.5470 O.2       6 UNK        -0.5000 
     42 CA         -1.0828  -16.2643  -41.6844 C.3       6 UNK         0.1400 
     43 CB         -0.4782  -15.4961  -40.4998 C.3       6 UNK        -0.1800 
     44 N          -1.2306  -15.3556  -42.8239 N.am      6 UNK        -0.5000 
     45 C          -1.8907  -15.6555  -43.9518 C.2       5 UNK         0.5000 
     46 O          -2.5052  -16.7088  -44.1164 O.2       5 UNK        -0.5000 
     47 CA         -1.8097  -14.6369  -45.1095 C.3       5 UNK         0.1400 
     48 CB         -3.0332  -13.7113  -45.0991 C.3       5 UNK        -0.1800 
     49 N          -0.5781  -13.8363  -45.1293 N.am      5 UNK        -0.5000 
     50 C           0.6643  -14.3423  -45.1982 C.2       4 UNK         0.5000 
     51 O           0.8815  -15.5509  -45.2839 O.2       4 UNK        -0.5000 
     52 CA          1.8617  -13.3706  -45.1416 C.3       4 UNK         0.1400 
     53 CB          2.9269  -13.7072  -46.1996 C.3       4 UNK        -0.1800 
     54 N           1.4730  -11.9657  -45.2737 N.am      4 UNK        -0.5000 
     55 C           1.1091  -11.1743  -44.2542 C.2       3 UNK         0.5000 
     56 O           1.0758  -11.5513  -43.0825 O.2       3 UNK        -0.5000 
     57 CA          0.6847   -9.7298  -44.5926 C.3       3 UNK         0.1400 
     58 CB          1.8523   -8.7594  -44.3586 C.3       3 UNK        -0.1800 
     59 N           0.1930   -9.5588  -45.9621 N.am      3 UNK        -0.5000 
     60 C          -0.9080  -10.1348  -46.4628 C.2       2 UNK         0.5000 
     61 O          -1.6453  -10.8685  -45.8047 O.2       2 UNK        -0.5000 
     62 CA         -1.2240   -9.8941  -47.9542 C.3       2 UNK         0.1400 
     63 CB         -0.4438   -8.7174  -48.5822 C.3       2 UNK        -0.1800 
     64 N          -1.0335  -11.1109  -48.7508 N.am      2 UNK        -0.5000 
     65 C           0.0829  -11.8515  -48.8448 C.2       1 UNK         0.5000 
     66 O           1.1242  -11.5994  -48.2362 O.2       1 UNK        -0.5000 
     67 C          -0.8473  -24.1715  -47.3226 C.2       11 UNK         0.5000 
     68 O          -0.7161  -25.2458  -47.9102 O.2       11 UNK        -0.5000 
     69 N          -2.0263  -23.5497  -47.1881 N.am      12 UNK        -0.5000 
     70 CA         -3.3078  -24.0468  -47.6835 C.3       12 UNK         0.1400 
     71 CB         -4.3593  -22.9305  -47.6097 C.3       12 UNK        -0.1800 
     72 C          -3.7844  -25.3002  -46.9326 C.2       12 UNK         0.5000 
     73 O          -4.2809  -26.2269  -47.5714 O.2       12 UNK        -0.5000 
     74 N          -3.5830  -25.3420  -45.6068 N.am      13 UNK        -0.5000 
     75 CA         -3.8592  -26.5115  -44.7646 C.3       13 UNK         0.1400 
     76 CB         -3.7081  -26.1334  -43.2839 C.3       13 UNK        -0.1800 
     77 C          -2.9738  -27.7249  -45.1147 C.2       13 UNK         0.5000 
     78 O          -3.4395  -28.8619  -45.0363 O.2       13 UNK        -0.5000 
     79 N          -1.7338  -27.4570  -45.5456 N.am      14 UNK        -0.5000 
     80 CA         -0.7946  -28.4373  -46.0944 C.3       14 UNK         0.1400 
     81 CB          0.6326  -27.8809  -45.9557 C.3       14 UNK        -0.1800 
     82 C          -1.0935  -28.8253  -47.5610 C.2       14 UNK         0.5000 
     83 O          -0.3980  -29.6865  -48.1010 O.2       14 UNK        -0.5000 
     84 N          -2.1028  -28.1904  -48.1792 N.am      15 UNK        -0.5000 
     85 CA         -2.5569  -28.3484  -49.5657 C.3       15 UNK         0.1400 
     86 CB         -3.0952  -29.7732  -49.8140 C.3       15 UNK        -0.1800 
     87 C          -1.5090  -27.9047  -50.6082 C.2       15 UNK         0.5000 
     88 O          -1.4864  -28.4330  -51.7215 O.2       15 UNK        -0.5000 
     89 N          -0.6673  -26.9338  -50.2341 N.am      16 UNK        -0.5000 
     90 CA          0.4171  -26.3908  -51.0510 C.3       16 UNK         0.1400 
     91 CB          1.7065  -26.4216  -50.2126 C.3       16 UNK        -0.1800 
     92 C           0.1132  -24.9679  -51.5615 C.2       16 UNK         0.5000 
     93 O           0.9686  -24.3753  -52.2213 O.2       16 UNK        -0.5000 
     94 N          -1.0808  -24.4385  -51.2648 N.am      17 UNK        -0.5000 
     95 CA         -1.5070  -23.0898  -51.6233 C.3       17 UNK         0.1400 
     96 CB         -1.0967  -22.1188  -50.5062 C.3       17 UNK        -0.1800 
     97 C          -3.0249  -23.0289  -51.8109 C.2       17 UNK         0.5000 
     98 O          -3.7495  -23.9142  -51.3484 O.2       17 UNK        -0.5000 
     99 N          -3.4661  -21.9297  -52.4295 N.am      18 UNK        -0.5000 
    100 CA        -4.8303  -21.4159  -52.3471 C.3       18 UNK         0.1400 
    101 CB        -5.0796  -20.5194  -53.5726 C.3       18 UNK        -0.1800 
    102 C         -5.0072  -20.6165  -51.0388 C.2       18 UNK         0.5000 
    103 O         -4.0373  -20.4028  -50.3065 O.2       18 UNK        -0.5000 
    104 N         -6.2321  -20.1434  -50.7763 N.am      19 UNK        -0.5000 
    105 CA        -6.5894  -19.3070  -49.6240 C.3       19 UNK         0.1400 
    106 CB        -8.1187  -19.3343  -49.4523 C.3       19 UNK        -0.1800 
    107 C         -6.0310  -17.8693  -49.7459 C.2       19 UNK         0.5000 
    108 O         -6.7944  -16.9152  -49.8967 O.2       19 UNK        -0.5000 
    109 N         -4.6956  -17.7624  -49.7389 N.am      20 UNK        -0.5000 
    110 CA        -3.8443  -16.5744  -49.8882 C.3       20 UNK         0.1400 
    111 CB        -4.1321  -15.5313  -48.7899 C.3       20 UNK        -0.1800 
    112 C         -3.8404  -15.9390  -51.2940 C.2       20 UNK         0.5000 
    113 O         -3.0278  -15.0475  -51.5442 O.2       20 UNK        -0.5000 
    114 N         -4.7091  -16.4139  -52.1962 N.am      21 UNK        -0.5000 
    115 CA        -4.9015  -15.8959  -53.5520 C.3       21 UNK         0.1400 
    116 CB        -6.1473  -16.5575  -54.1609 C.3       21 UNK        -0.1800 
    117 C         -3.6856  -16.0808  -54.4795 C.2       21 UNK         0.5000 
    118 O         -3.5144  -15.2905  -55.4084 O.2       21 UNK        -0.5000 
    119 N         -2.8653  -17.1055  -54.2125 N.am      22 UNK        -0.5000 
    120 CA        -1.6007  -17.3658  -54.9188 C.3       22 UNK         0.1400 
    121 C         -0.4048  -16.4863  -54.4432 C.2       22 UNK         0.5000 
    122 N         -0.5526  -15.6455  -53.4251 N.am      22 UNK        -0.7600 
    123 O          0.6756  -16.5560  -55.0223 O.2       22 UNK        -0.5000 
    124 C124       -1.2610  -18.8809  -54.9647 C.3       23 UNK        -0.0398 
    125 S125       -1.0430  -19.6586  -53.3256 S.3       23 UNK        -0.2404 
    126 C126        0.7694  -19.8871  -53.2550 C.3       23 UNK        -0.0205 
    127 H127       -2.9818  -12.5246  -52.4109 H         1 UNK         0.0600 
    128 H128       -1.8045  -12.8820  -53.6808 H         1 UNK         0.0600 
    129 H129       -2.2285  -11.2073  -53.3059 H         1 UNK         0.0600 
    130 H130       -1.7224  -13.6772  -50.8116 H         1 UNK         0.3000 
    131 H131        1.0088  -13.1577  -50.2501 H         1 UNK         0.0600 
    132 H132        0.6430  -14.4382  -48.1533 H         1 UNK         0.0800 
    133 H133       -1.0836  -14.3311  -48.3522 H         1 UNK         0.0800 
    134 H134        1.4767  -16.7474  -48.3070 H         1 UNK         0.0800 
    135 H135        2.2703  -16.0675  -49.7122 H         1 UNK         0.0800 
    136 H136        0.7033  -17.5830  -51.8855 H         1 UNK         0.1150 
    137 H137        2.0854  -21.6125  -51.5538 H         1 UNK         0.1150 
    138 H138        2.5731  -18.9040  -48.2616 H         1 UNK         0.1150 
    139 H139        3.5352  -21.0691  -48.0996 H         1 UNK         0.0800 
    140 H140        4.0375  -21.7453  -49.6245 H         1 UNK         0.0800 
    141 H141        0.2178  -21.7512  -47.9560 H         1 UNK         0.0800 
    142 H142        1.5383  -21.6832  -46.8310 H         1 UNK         0.0800 
    143 H143        1.1269  -24.2850  -46.5051 H         1 UNK         0.0600 
    144 H144        0.1413  -22.0476  -45.1099 H         1 UNK         0.3000 
    145 H145       -1.4305  -23.7631  -42.4097 H         1 UNK         0.0600 
    146 H146        0.9855  -23.6820  -41.8457 H         1 UNK         0.0600 
    147 H147        0.1431  -22.2983  -41.1648 H         1 UNK         0.0600 
    148 H148        1.1401  -22.1040  -42.6048 H         1 UNK         0.0600 
    149 H149       -1.0345  -20.9890  -43.1197 H         1 UNK         0.3000 
    150 H150       -4.1649  -20.6073  -44.8198 H         1 UNK         0.0600 
    151 H151       -3.0994  -19.5332  -42.1525 H         1 UNK         0.0600 
    152 H152       -4.6393  -20.3550  -42.3785 H         1 UNK         0.0600 
    153 H153       -4.3590  -18.7954  -43.1391 H         1 UNK         0.0600 
    154 H154       -2.1555  -18.6992  -44.3377 H         1 UNK         0.3000 
    155 H155       -0.0099  -19.4315  -47.1164 H         1 UNK         0.0600 
    156 H156       -0.6401  -16.8889  -47.2711 H         1 UNK         0.0600 
    157 H157       -2.2332  -17.3900  -46.7188 H         1 UNK         0.0600 
    158 H158       -1.5731  -18.0561  -48.2026 H         1 UNK         0.0600 
    159 H159        0.2012  -17.3779  -45.2301 H         1 UNK         0.3000 
    160 H160        1.8133  -19.1420  -42.5824 H         1 UNK         0.0600 
    161 H161        2.8718  -17.1567  -44.6682 H         1 UNK         0.0600 
    162 H162        3.6222  -18.6757  -44.2036 H         1 UNK         0.0600 
    163 H163        3.5071  -17.3668  -43.0374 H         1 UNK         0.0600 
    164 H164        0.9615  -16.4131  -43.2415 H         1 UNK         0.3000 
    165 H165       -2.0779  -16.6100  -41.3960 H         1 UNK         0.0600 
    166 H166       -1.1135  -14.6601  -40.2066 H         1 UNK         0.0600 
    167 H167       -0.3720  -16.1435  -39.6283 H         1 UNK         0.0600 
    168 H168        0.5099  -15.1001  -40.7375 H         1 UNK         0.0600 
    169 H169       -0.7584  -14.4652  -42.7647 H         1 UNK         0.3000 
    170 H170       -1.8385  -15.2024  -46.0400 H         1 UNK         0.0600 
    171 H171       -3.0818  -13.1167  -46.0113 H         1 UNK         0.0600 
    172 H172       -3.0140  -13.0274  -44.2498 H         1 UNK         0.0600 
    173 H173       -3.9598  -14.2842  -45.0420 H         1 UNK         0.0600 
    174 H174       -0.6945  -12.8317  -45.0856 H         1 UNK         0.3000 
    175 H175        2.3262  -13.5204  -44.1649 H         1 UNK         0.0600 
    176 H176        3.2686  -14.7387  -46.1042 H         1 UNK         0.0600 
    177 H177        2.5542  -13.5787  -47.2142 H         1 UNK         0.0600 
    178 H178        3.8029  -13.0685  -46.0869 H         1 UNK         0.0600 
    179 H179        1.4368  -11.5986  -46.2201 H         1 UNK         0.3000 
    180 H180       -0.1253   -9.4609  -43.9115 H         1 UNK         0.0600 
    181 H181        2.6864   -8.9649  -45.0309 H         1 UNK         0.0600 
    182 H182        2.2271   -8.8372  -43.3371 H         1 UNK         0.0600 
    183 H183        1.5434   -7.7252  -44.5115 H         1 UNK         0.0600 
    184 H184        0.7623   -8.9987  -46.5798 H         1 UNK         0.3000 
    185 H185       -2.2861   -9.6498  -48.0044 H         1 UNK         0.0600 
    186 H186       -0.6062   -7.7941  -48.0244 H         1 UNK         0.0600 
    187 H187        0.6302   -8.9025  -48.6190 H         1 UNK         0.0600 
    188 H188       -0.7773   -8.5356  -49.6040 H         1 UNK         0.0600 
    189 H189       -1.8392  -11.4199  -49.2755 H         1 UNK         0.3000 
    190 H190       -2.0416  -22.6253  -46.7593 H         1 UNK         0.3000 
    191 H191       -3.1755  -24.3193  -48.7317 H         1 UNK         0.0600 
    192 H192       -4.0466  -22.0605  -48.1865 H         1 UNK         0.0600 
    193 H193       -5.3141  -23.2645  -48.0173 H         1 UNK         0.0600 
    194 H194       -4.5314  -22.6050  -46.5834 H         1 UNK         0.0600 
    195 H195       -3.2260  -24.5158  -45.1378 H         1 UNK         0.3000 
    196 H196       -4.8977  -26.8031  -44.9338 H         1 UNK         0.0600 
    197 H197       -3.9527  -26.9783  -42.6391 H         1 UNK         0.0600 
    198 H198       -4.3767  -25.3154  -43.0151 H         1 UNK         0.0600 
    199 H199       -2.6899  -25.8259  -43.0475 H         1 UNK         0.0600 
    200 H200       -1.4098  -26.4964  -45.5100 H         1 UNK         0.3000 
    201 H201       -0.8594  -29.3507  -45.5000 H         1 UNK         0.0600 
    202 H202        1.3728  -28.6095  -46.2882 H         1 UNK         0.0600 
    203 H203        0.8615  -27.6370  -44.9181 H         1 UNK         0.0600 
    204 H204        0.7737  -26.9777  -46.5493 H         1 UNK         0.0600 
    205 H205       -2.6158  -27.4972  -47.6482 H         1 UNK         0.3000 
    206 H206       -3.3961  -27.6625  -49.6856 H         1 UNK         0.0600 
    207 H207       -3.8348  -30.0508  -49.0629 H         1 UNK         0.0600 
    208 H208       -3.5821  -29.8430  -50.7873 H         1 UNK         0.0600 
    209 H209       -2.2995  -30.5181  -49.7941 H         1 UNK         0.0600 
    210 H210       -0.7613  -26.5227  -49.3073 H         1 UNK         0.3000 
    211 H211        0.5790  -27.0118  -51.9340 H         1 UNK         0.0600 
    212 H212        1.6038  -25.8378  -49.2980 H         1 UNK         0.0600 
    213 H213        2.5532  -26.0177  -50.7688 H         1 UNK         0.0600 
    214 H214        1.9626  -27.4418  -49.9267 H         1 UNK         0.0600 
    215 H215       -1.7675  -24.9958  -50.7759 H         1 UNK         0.3000 
    216 H216       -1.0337  -22.7909  -52.5611 H         1 UNK         0.0600 
    217 H217       -1.2868  -21.0817  -50.7804 H         1 UNK         0.0600 
    218 H218       -0.0377  -22.2059  -50.2915 H         1 UNK         0.0600 
    219 H219       -1.6452  -22.3082  -49.5850 H         1 UNK         0.0600 
    220 H220       -2.7735  -21.2530  -52.7215 H         1 UNK         0.3000 
    221 H221       -5.5408  -22.2449  -52.3532 H         1 UNK         0.0600 
    222 H222       -4.4242  -19.6478  -53.5749 H         1 UNK         0.0600 
    223 H223       -4.9078  -21.0659  -54.5002 H         1 UNK         0.0600 
    224 H224       -6.1083  -20.1590  -53.5994 H         1 UNK         0.0600 
    225 H225       -6.9778  -20.3361  -51.4293 H         1 UNK         0.3000 
    226 H226       -6.1496  -19.7484  -48.7268 H         1 UNK         0.0600 
    227 H227       -8.4788  -20.3504  -49.2897 H         1 UNK         0.0600 
    228 H228       -8.6310  -18.9328  -50.3276 H         1 UNK         0.0600 
    229 H229       -8.4262  -18.7413  -48.5900 H         1 UNK         0.0600 
    230 H230       -4.1905  -18.6466  -49.7112 H         1 UNK         0.3000 
    231 H231       -2.8289  -16.9355  -49.7392 H         1 UNK         0.0600 
    232 H232       -5.1283  -15.1004  -48.8892 H         1 UNK         0.0600 
    233 H233       -3.4198  -14.7075  -48.8360 H         1 UNK         0.0600 
    234 H234       -4.0535  -15.9718  -47.7961 H         1 UNK         0.0600 
    235 H235       -5.3564  -17.1235  -51.8881 H         1 UNK         0.3000 
    236 H236       -5.0883  -14.8230  -53.4718 H         1 UNK         0.0600 
    237 H237       -6.0263  -17.6373  -54.2512 H         1 UNK         0.0600 
    238 H238       -7.0324  -16.3678  -53.5532 H         1 UNK         0.0600 
    239 H239       -6.3497  -16.1658  -55.1587 H         1 UNK         0.0600 
    240 H240       -3.0566  -17.6899  -53.4129 H         1 UNK         0.3000 
    241 H241       -1.7515  -17.0710  -55.9590 H         1 UNK         0.0600 
    242 H242        0.2346  -15.0922  -53.1308 H         1 UNK         0.3800 
    243 H243       -1.4291  -15.5730  -52.9261 H         1 UNK         0.3800 
    244 H244       -0.3799  -19.0582  -55.5833 H         1 UNK         0.0800 
    245 H245       -2.0710  -19.4100  -55.4683 H         1 UNK         0.0800 
    246 H246        1.0144  -20.8966  -53.5885 H         1 UNK         0.0800 
    247 H247        1.2668  -19.2011  -53.9417 H         1 UNK         0.0800 
@<TRIPOS>BOND
     1    1    2 1    
     2    1  127 1    
     3    1  128 1    
     4    1  129 1    
     5    2    3 2    
     6    2    4 am   BACKBONE|DICT|INTERRES
     7    4    5 1    
     8    4  130 1    
     9    5    6 1    
    10    5   65 1    
    11    5  131 1    
    12    6    7 1    
    13    6  132 1    
    14    6  133 1    
    15    7    8 1    
    16    8    9 1    
    17    8  134 1    
    18    8  135 1    
    19    9   10 ar   
    20    9   14 ar   
    21   10   11 ar   
    22   10  136 1    
    23   11   12 ar   
    24   11  126 1    
    25   12   13 ar   
    26   12  137 1    
    27   13   14 ar   
    28   13   15 1    
    29   14  138 1    
    30   15   16 1    
    31   15  139 1    
    32   15  140 1    
    33   16   17 1    
    34   17   18 1    
    35   17  141 1    
    36   17  142 1    
    37   18   19 1    
    38   18   67 1    
    39   18  143 1    
    40   19   20 am   BACKBONE|DICT|INTERRES
    41   19  144 1    
    42   20   21 2    
    43   20   22 1    
    44   22   23 1    
    45   22   24 1    
    46   22  145 1    
    47   23  146 1    
    48   23  147 1    
    49   23  148 1    
    50   24   25 am   BACKBONE|DICT|INTERRES
    51   24  149 1    
    52   25   26 2    
    53   25   27 1    
    54   27   28 1    
    55   27   29 1    
    56   27  150 1    
    57   28  151 1    
    58   28  152 1    
    59   28  153 1    
    60   29   30 am   BACKBONE|DICT|INTERRES
    61   29  154 1    
    62   30   31 2    
    63   30   32 1    
    64   32   33 1    
    65   32   34 1    
    66   32  155 1    
    67   33  156 1    
    68   33  157 1    
    69   33  158 1    
    70   34   35 am   BACKBONE|DICT|INTERRES
    71   34  159 1    
    72   35   36 2    
    73   35   37 1    
    74   37   38 1    
    75   37   39 1    
    76   37  160 1    
    77   38  161 1    
    78   38  162 1    
    79   38  163 1    
    80   39   40 am   BACKBONE|DICT|INTERRES
    81   39  164 1    
    82   40   41 2    
    83   40   42 1    
    84   42   43 1    
    85   42   44 1    
    86   42  165 1    
    87   43  166 1    
    88   43  167 1    
    89   43  168 1    
    90   44   45 am   BACKBONE|DICT|INTERRES
    91   44  169 1    
    92   45   46 2    
    93   45   47 1    
    94   47   48 1    
    95   47   49 1    
    96   47  170 1    
    97   48  171 1    
    98   48  172 1    
    99   48  173 1    
   100   49   50 am   BACKBONE|DICT|INTERRES
   101   49  174 1    
   102   50   51 2    
   103   50   52 1    
   104   52   53 1    
   105   52   54 1    
   106   52  175 1    
   107   53  176 1    
   108   53  177 1    
   109   53  178 1    
   110   54   55 am   BACKBONE|DICT|INTERRES
   111   54  179 1    
   112   55   56 2    
   113   55   57 1    
   114   57   58 1    
   115   57   59 1    
   116   57  180 1    
   117   58  181 1    
   118   58  182 1    
   119   58  183 1    
   120   59   60 am   BACKBONE|DICT|INTERRES
   121   59  184 1    
   122   60   61 2    
   123   60   62 1    
   124   62   63 1    
   125   62   64 1    
   126   62  185 1    
   127   63  186 1    
   128   63  187 1    
   129   63  188 1    
   130   64   65 am   BACKBONE|DICT|INTERRES
   131   64  189 1    
   132   65   66 2    
   133   67   68 2    
   134   67   69 am   BACKBONE|DICT|INTERRES
   135   69   70 1    
   136   69  190 1    
   137   70   71 1    
   138   70   72 1    
   139   70  191 1    
   140   71  192 1    
   141   71  193 1    
   142   71  194 1    
   143   72   73 2    
   144   72   74 am   BACKBONE|DICT|INTERRES
   145   74   75 1    
   146   74  195 1    
   147   75   76 1    
   148   75   77 1    
   149   75  196 1    
   150   76  197 1    
   151   76  198 1    
   152   76  199 1    
   153   77   78 2    
   154   77   79 am   BACKBONE|DICT|INTERRES
   155   79   80 1    
   156   79  200 1    
   157   80   81 1    
   158   80   82 1    
   159   80  201 1    
   160   81  202 1    
   161   81  203 1    
   162   81  204 1    
   163   82   83 2    
   164   82   84 am   BACKBONE|DICT|INTERRES
   165   84   85 1    
   166   84  205 1    
   167   85   86 1    
   168   85   87 1    
   169   85  206 1    
   170   86  207 1    
   171   86  208 1    
   172   86  209 1    
   173   87   88 2    
   174   87   89 am   BACKBONE|DICT|INTERRES
   175   89   90 1    
   176   89  210 1    
   177   90   91 1    
   178   90   92 1    
   179   90  211 1    
   180   91  212 1    
   181   91  213 1    
   182   91  214 1    
   183   92   93 2    
   184   92   94 am   BACKBONE|DICT|INTERRES
   185   94   95 1    
   186   94  215 1    
   187   95   96 1    
   188   95   97 1    
   189   95  216 1    
   190   96  217 1    
   191   96  218 1    
   192   96  219 1    
   193   97   98 2    
   194   97   99 am   BACKBONE|DICT|INTERRES
   195   99  100 1    
   196   99  220 1    
   197  100  101 1    
   198  100  102 1    
   199  100  221 1    
   200  101  222 1    
   201  101  223 1    
   202  101  224 1    
   203  102  103 2    
   204  102  104 am   BACKBONE|DICT|INTERRES
   205  104  105 1    
   206  104  225 1    
   207  105  106 1    
   208  105  107 1    
   209  105  226 1    
   210  106  227 1    
   211  106  228 1    
   212  106  229 1    
   213  107  108 2    
   214  107  109 am   BACKBONE|DICT|INTERRES
   215  109  110 1    
   216  109  230 1    
   217  110  111 1    
   218  110  112 1    
   219  110  231 1    
   220  111  232 1    
   221  111  233 1    
   222  111  234 1    
   223  112  113 2    
   224  112  114 am   BACKBONE|DICT|INTERRES
   225  114  115 1    
   226  114  235 1    
   227  115  116 1    
   228  115  117 1    
   229  115  236 1    
   230  116  237 1    
   231  116  238 1    
   232  116  239 1    
   233  117  118 2    
   234  117  119 am   BACKBONE|DICT|INTERRES
   235  119  120 1    
   236  119  240 1    
   237  120  121 1    
   238  120  124 1    
   239  120  241 1    
   240  121  122 am   BACKBONE|DICT|INTERRES
   241  121  123 2    
   242  122  242 1    
   243  122  243 1    
   244  124  125 1    
   245  124  244 1    
   246  124  245 1    
   247  125  126 1    
   248  126  246 1    
   249  126  247 1    
@<TRIPOS>SUBSTRUCTURE
     1 UNK         1 GROUP             0       ****    0 ROOT    
