@<TRIPOS>MOLECULE
3R540
247   249    1
SMALL
USER_CHARGES


@<TRIPOS>ATOM
      1 CA         -2.8105  -17.7312  -44.3051 C.3       0 UNK        -0.1800 
      2 C          -2.9602  -17.4134  -45.7840 C.2       0 UNK         0.5000 
      3 O          -4.0141  -17.6795  -46.3621 O.2       0 UNK        -0.5000 
      4 N          -1.9109  -16.8553  -46.3977 N.am      1 UNK        -0.5000 
      5 CA         -1.9174  -16.3864  -47.7844 C.3       1 UNK         0.1400 
      6 C6         -0.4818  -16.1883  -48.3424 C.3       23 UNK        -0.0398 
      7 S7          0.5252  -17.7125  -48.3113 S.3       23 UNK        -0.2404 
      8 C8          1.4600  -17.6256  -49.8728 C.3       23 UNK        -0.0205 
      9 C9          1.6566  -19.0101  -50.4747 C.ar      23 UNK        -0.0193 
     10 C10         0.8436  -19.4337  -51.5293 C.ar      23 UNK        -0.1150 
     11 C11         0.9948  -20.7081  -52.0837 C.ar      23 UNK        -0.0193 
     12 C12         1.9861  -21.5558  -51.5833 C.ar      23 UNK        -0.1150 
     13 C13         2.8108  -21.1456  -50.5316 C.ar      23 UNK        -0.0193 
     14 C14         2.6431  -19.8700  -49.9816 C.ar      23 UNK        -0.1150 
     15 C15         3.8846  -22.0854  -50.0031 C.3       23 UNK        -0.0205 
     16 S16         3.1922  -23.3735  -48.9181 S.3       23 UNK        -0.2404 
     17 C17         2.9325  -22.4290  -47.3820 C.3       23 UNK        -0.0398 
     18 CA          2.2351  -23.2641  -46.2706 C.3       11 UNK         0.1400 
     19 N           2.5599  -22.7811  -44.9281 N.am      11 UNK        -0.5000 
     20 C           3.7555  -22.9716  -44.3516 C.2       10 UNK         0.5000 
     21 O           4.6603  -23.6334  -44.8622 O.2       10 UNK        -0.5000 
     22 CA          4.0075  -22.3028  -42.9894 C.3       10 UNK         0.1400 
     23 CB          4.4986  -20.8604  -43.1858 C.3       10 UNK        -0.1800 
     24 N           2.8293  -22.3037  -42.1271 N.am      10 UNK        -0.5000 
     25 C           2.3533  -23.3846  -41.4936 C.2       9 UNK         0.5000 
     26 O           2.8726  -24.4994  -41.5568 O.2       9 UNK        -0.5000 
     27 CA          1.0881  -23.1867  -40.6352 C.3       9 UNK         0.1400 
     28 CB          1.4608  -23.0431  -39.1517 C.3       9 UNK        -0.1800 
     29 N           0.2878  -22.0275  -41.0370 N.am      9 UNK        -0.5000 
     30 C          -0.3946  -21.9498  -42.1858 C.2       8 UNK         0.5000 
     31 O          -0.3980  -22.8333  -43.0425 O.2       8 UNK        -0.5000 
     32 CA         -1.1373  -20.6306  -42.4501 C.3       8 UNK         0.1400 
     33 CB         -2.1565  -20.3140  -41.3436 C.3       8 UNK        -0.1800 
     34 N          -0.2221  -19.4987  -42.6116 N.am      8 UNK        -0.5000 
     35 C           0.7751  -19.4079  -43.5031 C.2       7 UNK         0.5000 
     36 O           1.0256  -20.2910  -44.3265 O.2       7 UNK        -0.5000 
     37 CA          1.6519  -18.1355  -43.4724 C.3       7 UNK         0.1400 
     38 CB          2.0971  -17.7266  -44.8854 C.3       7 UNK        -0.1800 
     39 N           1.0425  -16.9753  -42.8099 N.am      7 UNK        -0.5000 
     40 C           0.9858  -16.7857  -41.4824 C.2       6 UNK         0.5000 
     41 O           1.3221  -17.6476  -40.6703 O.2       6 UNK        -0.5000 
     42 CA          0.4871  -15.4220  -40.9585 C.3       6 UNK         0.1400 
     43 CB          1.6632  -14.6066  -40.3984 C.3       6 UNK        -0.1800 
     44 N          -0.1919  -14.6174  -41.9737 N.am      6 UNK        -0.5000 
     45 C          -1.4603  -14.7889  -42.3671 C.2       5 UNK         0.5000 
     46 O          -2.2219  -15.6070  -41.8525 O.2       5 UNK        -0.5000 
     47 CA         -1.9626  -13.9148  -43.5383 C.3       5 UNK         0.1400 
     48 CB         -2.8874  -12.8024  -43.0225 C.3       5 UNK        -0.1800 
     49 N          -0.9047  -13.3070  -44.3557 N.am      5 UNK        -0.5000 
     50 C           0.0144  -13.9800  -45.0570 C.2       4 UNK         0.5000 
     51 O           0.0920  -15.2102  -45.0602 O.2       4 UNK        -0.5000 
     52 CA          1.0106  -13.1351  -45.8743 C.3       4 UNK         0.1400 
     53 CB          2.2972  -13.9141  -46.2041 C.3       4 UNK        -0.1800 
     54 N           0.4171  -12.6480  -47.1202 N.am      4 UNK        -0.5000 
     55 C          -0.4131  -11.6002  -47.2248 C.2       3 UNK         0.5000 
     56 O          -0.8008  -10.9381  -46.2609 O.2       3 UNK        -0.5000 
     57 CA         -0.8840  -11.2346  -48.6444 C.3       3 UNK         0.1400 
     58 CB          0.2959  -11.0552  -49.6167 C.3       3 UNK        -0.1800 
     59 N          -1.7810  -12.2696  -49.1526 N.am      3 UNK        -0.5000 
     60 C          -3.1188  -12.2245  -49.0830 C.2       2 UNK         0.5000 
     61 O          -3.7570  -11.2378  -48.7143 O.2       2 UNK        -0.5000 
     62 CA         -3.8748  -13.5173  -49.4634 C.3       2 UNK         0.1400 
     63 CB         -4.1993  -13.5285  -50.9640 C.3       2 UNK        -0.1800 
     64 N          -3.1582  -14.7524  -49.1244 N.am      2 UNK        -0.5000 
     65 C          -2.7249  -15.0775  -47.8987 C.2       1 UNK         0.5000 
     66 O          -2.9051  -14.3705  -46.9045 O.2       1 UNK        -0.5000 
     67 C           0.7167  -23.3377  -46.5029 C.2       11 UNK         0.5000 
     68 O           0.2189  -24.3774  -46.9382 O.2       11 UNK        -0.5000 
     69 N           0.0090  -22.2290  -46.2494 N.am      12 UNK        -0.5000 
     70 CA         -1.3409  -21.9739  -46.7613 C.3       12 UNK         0.1400 
     71 CB         -1.6922  -20.5033  -46.5186 C.3       12 UNK        -0.1800 
     72 C          -2.4548  -22.9063  -46.2475 C.2       12 UNK         0.5000 
     73 O          -3.4828  -23.0287  -46.9138 O.2       12 UNK        -0.5000 
     74 N          -2.2447  -23.5666  -45.1005 N.am      13 UNK        -0.5000 
     75 CA         -3.1470  -24.5957  -44.5766 C.3       13 UNK         0.1400 
     76 CB         -2.7724  -24.9221  -43.1231 C.3       13 UNK        -0.1800 
     77 C          -3.1574  -25.8785  -45.4326 C.2       13 UNK         0.5000 
     78 O          -4.1766  -26.5694  -45.4668 O.2       13 UNK        -0.5000 
     79 N          -2.0375  -26.1676  -46.1094 N.am      14 UNK        -0.5000 
     80 CA         -1.9029  -27.2702  -47.0587 C.3       14 UNK         0.1400 
     81 CB         -0.5148  -27.9116  -46.9013 C.3       14 UNK        -0.1800 
     82 C          -2.1138  -26.7656  -48.4945 C.2       14 UNK         0.5000 
     83 O          -2.8886  -27.3582  -49.2471 O.2       14 UNK        -0.5000 
     84 N          -1.4343  -25.6669  -48.8451 N.am      15 UNK        -0.5000 
     85 CA         -1.4963  -25.0110  -50.1467 C.3       15 UNK         0.1400 
     86 CB         -0.1762  -24.2550  -50.3763 C.3       15 UNK        -0.1800 
     87 C          -2.7250  -24.0878  -50.2280 C.2       15 UNK         0.5000 
     88 O          -2.5825  -22.8667  -50.1905 O.2       15 UNK        -0.5000 
     89 N          -3.9177  -24.6889  -50.3347 N.am      16 UNK        -0.5000 
     90 CA         -5.2273  -24.0215  -50.3103 C.3       16 UNK         0.1400 
     91 CB         -6.3271  -25.0868  -50.4311 C.3       16 UNK        -0.1800 
     92 C          -5.4319  -22.9130  -51.3671 C.2       16 UNK         0.5000 
     93 O          -6.2485  -22.0157  -51.1529 O.2       16 UNK        -0.5000 
     94 N          -4.6601  -22.9615  -52.4633 N.am      17 UNK        -0.5000 
     95 CA         -4.5812  -21.9276  -53.5003 C.3       17 UNK         0.1400 
     96 CB         -3.7051  -22.4447  -54.6514 C.3       17 UNK        -0.1800 
     97 C          -4.0417  -20.5719  -52.9982 C.2       17 UNK         0.5000 
     98 O          -4.2191  -19.5614  -53.6790 O.2       17 UNK        -0.5000 
     99 N          -3.4001  -20.5526  -51.8218 N.am      18 UNK        -0.5000 
    100 CA        -2.8502  -19.3676  -51.1647 C.3       18 UNK         0.1400 
    101 CB        -2.1550  -19.8134  -49.8778 C.3       18 UNK        -0.1800 
    102 C         -3.8804  -18.2652  -50.8615 C.2       18 UNK         0.5000 
    103 O         -3.5185  -17.0864  -50.8571 O.2       18 UNK        -0.5000 
    104 N         -5.1487  -18.6561  -50.6763 N.am      19 UNK        -0.5000 
    105 CA        -6.2933  -17.7534  -50.5324 C.3       19 UNK         0.1400 
    106 CB        -7.5156  -18.5722  -50.0920 C.3       19 UNK        -0.1800 
    107 C         -6.6091  -16.9578  -51.8174 C.2       19 UNK         0.5000 
    108 O         -7.2178  -15.8917  -51.7331 O.2       19 UNK        -0.5000 
    109 N         -6.1640  -17.4717  -52.9718 N.am      20 UNK        -0.5000 
    110 CA        -6.2228  -16.8304  -54.2846 C.3       20 UNK         0.1400 
    111 CB        -6.8306  -17.8251  -55.2897 C.3       20 UNK        -0.1800 
    112 C         -4.8200  -16.3544  -54.7197 C.2       20 UNK         0.5000 
    113 O         -4.5428  -16.2737  -55.9180 O.2       20 UNK        -0.5000 
    114 N         -3.9430  -16.0813  -53.7391 N.am      21 UNK        -0.5000 
    115 CA        -2.5623  -15.6026  -53.8795 C.3       21 UNK         0.1400 
    116 CB        -2.5434  -14.1806  -54.4795 C.3       21 UNK        -0.1800 
    117 C         -1.6373  -16.5738  -54.6450 C.2       21 UNK         0.5000 
    118 O         -0.6371  -16.1386  -55.2175 O.2       21 UNK        -0.5000 
    119 N         -1.9844  -17.8686  -54.6456 N.am      22 UNK        -0.5000 
    120 CA        -1.3315  -18.9325  -55.4238 C.3       22 UNK         0.1400 
    121 C         -1.6207  -18.8753  -56.9564 C.2       22 UNK         0.5000 
    122 N         -2.5961  -18.1012  -57.4217 N.am      22 UNK        -0.7600 
    123 O         -0.9734  -19.5632  -57.7407 O.2       22 UNK        -0.5000 
    124 C124        0.1796  -19.0988  -55.0713 C.3       23 UNK        -0.0398 
    125 S125        0.6768  -20.8408  -54.8589 S.3       23 UNK        -0.2404 
    126 C126        0.0591  -21.1937  -53.1828 C.3       23 UNK        -0.0205 
    127 H127       -1.8036  -17.5164  -43.9478 H         1 UNK         0.0600 
    128 H128       -3.0233  -18.7836  -44.1225 H         1 UNK         0.0600 
    129 H129       -3.5150  -17.1379  -43.7231 H         1 UNK         0.0600 
    130 H130       -1.0977  -16.5764  -45.8585 H         1 UNK         0.3000 
    131 H131       -2.4298  -17.1331  -48.3889 H         1 UNK         0.0600 
    132 H132        0.0480  -15.4278  -47.7720 H         1 UNK         0.0800 
    133 H133       -0.5308  -15.8202  -49.3677 H         1 UNK         0.0800 
    134 H134        2.4288  -17.1616  -49.6833 H         1 UNK         0.0800 
    135 H135        0.9499  -16.9838  -50.5917 H         1 UNK         0.0800 
    136 H136        0.0820  -18.7698  -51.9066 H         1 UNK         0.1150 
    137 H137        2.1076  -22.5449  -52.0022 H         1 UNK         0.1150 
    138 H138        3.2728  -19.5468  -49.1646 H         1 UNK         0.1150 
    139 H139        4.3827  -22.5683  -50.8450 H         1 UNK         0.0800 
    140 H140        4.6590  -21.5308  -49.4710 H         1 UNK         0.0800 
    141 H141        2.3793  -21.5133  -47.5981 H         1 UNK         0.0800 
    142 H142        3.9190  -22.1014  -47.0529 H         1 UNK         0.0800 
    143 H143        2.5990  -24.2926  -46.3304 H         1 UNK         0.0600 
    144 H144        1.8567  -22.2217  -44.4575 H         1 UNK         0.3000 
    145 H145        4.7988  -22.8602  -42.4833 H         1 UNK         0.0600 
    146 H146        4.6609  -20.3597  -42.2311 H         1 UNK         0.0600 
    147 H147        3.7898  -20.2692  -43.7644 H         1 UNK         0.0600 
    148 H148        5.4463  -20.8458  -43.7256 H         1 UNK         0.0600 
    149 H149        2.3308  -21.4333  -42.0262 H         1 UNK         0.3000 
    150 H150        0.4724  -24.0816  -40.7490 H         1 UNK         0.0600 
    151 H151        2.0350  -23.9044  -38.8076 H         1 UNK         0.0600 
    152 H152        0.5707  -22.9773  -38.5256 H         1 UNK         0.0600 
    153 H153        2.0652  -22.1529  -38.9729 H         1 UNK         0.0600 
    154 H154        0.2657  -21.2454  -40.3990 H         1 UNK         0.3000 
    155 H155       -1.6946  -20.7601  -43.3759 H         1 UNK         0.0600 
    156 H156       -2.8342  -21.1539  -41.1843 H         1 UNK         0.0600 
    157 H157       -2.7682  -19.4517  -41.6101 H         1 UNK         0.0600 
    158 H158       -1.6734  -20.0940  -40.3911 H         1 UNK         0.0600 
    159 H159       -0.3199  -18.7412  -41.9508 H         1 UNK         0.3000 
    160 H160        2.5520  -18.3988  -42.9142 H         1 UNK         0.0600 
    161 H161        1.2384  -17.5133  -45.5197 H         1 UNK         0.0600 
    162 H162        2.6708  -18.5180  -45.3693 H         1 UNK         0.0600 
    163 H163        2.7280  -16.8382  -44.8634 H         1 UNK         0.0600 
    164 H164        0.7061  -16.2435  -43.4272 H         1 UNK         0.3000 
    165 H165       -0.2087  -15.6202  -40.1405 H         1 UNK         0.0600 
    166 H166        1.3209  -13.6657  -39.9670 H         1 UNK         0.0600 
    167 H167        2.1796  -15.1545  -39.6090 H         1 UNK         0.0600 
    168 H168        2.3972  -14.3752  -41.1714 H         1 UNK         0.0600 
    169 H169        0.3609  -13.9155  -42.4426 H         1 UNK         0.3000 
    170 H170       -2.5467  -14.5660  -44.1912 H         1 UNK         0.0600 
    171 H171       -2.3513  -12.0978  -42.3855 H         1 UNK         0.0600 
    172 H172       -3.3274  -12.2429  -43.8485 H         1 UNK         0.0600 
    173 H173       -3.7102  -13.2156  -42.4374 H         1 UNK         0.0600 
    174 H174       -0.9395  -12.3014  -44.4668 H         1 UNK         0.3000 
    175 H175        1.2981  -12.2777  -45.2618 H         1 UNK         0.0600 
    176 H176        2.1044  -14.7838  -46.8326 H         1 UNK         0.0600 
    177 H177        3.0184  -13.2814  -46.7216 H         1 UNK         0.0600 
    178 H178        2.7778  -14.2722  -45.2929 H         1 UNK         0.0600 
    179 H179        0.6943  -13.1311  -47.9601 H         1 UNK         0.3000 
    180 H180       -1.4067  -10.2776  -48.5831 H         1 UNK         0.0600 
    181 H181       -0.0501  -10.6830  -50.5811 H         1 UNK         0.0600 
    182 H182        0.8318  -11.9874  -49.7972 H         1 UNK         0.0600 
    183 H183        1.0139  -10.3307  -49.2299 H         1 UNK         0.0600 
    184 H184       -1.3560  -13.1274  -49.4681 H         1 UNK         0.3000 
    185 H185       -4.8153  -13.5226  -48.9087 H         1 UNK         0.0600 
    186 H186       -4.8041  -14.3945  -51.2323 H         1 UNK         0.0600 
    187 H187       -4.7615  -12.6390  -51.2512 H         1 UNK         0.0600 
    188 H188       -3.2905  -13.5522  -51.5650 H         1 UNK         0.0600 
    189 H189       -3.0602  -15.4335  -49.8716 H         1 UNK         0.3000 
    190 H190        0.4642  -21.4426  -45.7953 H         1 UNK         0.3000 
    191 H191       -1.3024  -22.1221  -47.8425 H         1 UNK         0.0600 
    192 H192       -1.0395  -19.8493  -47.0938 H         1 UNK         0.0600 
    193 H193       -1.5860  -20.2281  -45.4740 H         1 UNK         0.0600 
    194 H194       -2.7183  -20.2839  -46.8154 H         1 UNK         0.0600 
    195 H195       -1.3987  -23.3829  -44.5666 H         1 UNK         0.3000 
    196 H196       -4.1614  -24.1914  -44.5797 H         1 UNK         0.0600 
    197 H197       -2.8613  -24.0419  -42.4864 H         1 UNK         0.0600 
    198 H198       -1.7494  -25.2924  -43.0453 H         1 UNK         0.0600 
    199 H199       -3.4315  -25.6870  -42.7106 H         1 UNK         0.0600 
    200 H200       -1.2629  -25.5149  -46.0655 H         1 UNK         0.3000 
    201 H201       -2.6514  -28.0394  -46.8571 H         1 UNK         0.0600 
    202 H202       -0.3824  -28.3171  -45.8982 H         1 UNK         0.0600 
    203 H203        0.2884  -27.1955  -47.0796 H         1 UNK         0.0600 
    204 H204       -0.3837  -28.7347  -47.6048 H         1 UNK         0.0600 
    205 H205       -0.8311  -25.2240  -48.1553 H         1 UNK         0.3000 
    206 H206       -1.5879  -25.7664  -50.9298 H         1 UNK         0.0600 
    207 H207       -0.0241  -23.4629  -49.6419 H         1 UNK         0.0600 
    208 H208        0.6799  -24.9274  -50.3208 H         1 UNK         0.0600 
    209 H209       -0.1623  -23.7944  -51.3626 H         1 UNK         0.0600 
    210 H210       -3.9301  -25.7014  -50.3144 H         1 UNK         0.3000 
    211 H211       -5.3209  -23.5449  -49.3323 H         1 UNK         0.0600 
    212 H212       -6.2583  -25.6286  -51.3752 H         1 UNK         0.0600 
    213 H213       -7.3186  -24.6345  -50.3826 H         1 UNK         0.0600 
    214 H214       -6.2634  -25.8133  -49.6206 H         1 UNK         0.0600 
    215 H215       -4.0171  -23.7344  -52.5484 H         1 UNK         0.3000 
    216 H216       -5.5894  -21.7544  -53.8815 H         1 UNK         0.0600 
    217 H217       -3.6567  -21.7182  -55.4639 H         1 UNK         0.0600 
    218 H218       -4.1061  -23.3683  -55.0691 H         1 UNK         0.0600 
    219 H219       -2.6828  -22.6389  -54.3239 H         1 UNK         0.0600 
    220 H220       -3.2676  -21.4289  -51.3230 H         1 UNK         0.3000 
    221 H221       -2.1123  -18.9315  -51.8366 H         1 UNK         0.0600 
    222 H222       -2.8583  -20.2857  -49.1919 H         1 UNK         0.0600 
    223 H223       -1.3543  -20.5247  -50.0789 H         1 UNK         0.0600 
    224 H224       -1.7070  -18.9701  -49.3647 H         1 UNK         0.0600 
    225 H225       -5.3551  -19.6460  -50.7060 H         1 UNK         0.3000 
    226 H226       -6.0588  -17.0314  -49.7471 H         1 UNK         0.0600 
    227 H227       -7.3299  -19.0785  -49.1445 H         1 UNK         0.0600 
    228 H228       -8.3873  -17.9315  -49.9524 H         1 UNK         0.0600 
    229 H229       -7.7783  -19.3304  -50.8311 H         1 UNK         0.0600 
    230 H230       -5.6364  -18.3379  -52.9484 H         1 UNK         0.3000 
    231 H231       -6.8630  -15.9470  -54.2499 H         1 UNK         0.0600 
    232 H232       -6.9618  -17.3645  -56.2696 H         1 UNK         0.0600 
    233 H233       -7.8118  -18.1670  -54.9602 H         1 UNK         0.0600 
    234 H234       -6.1965  -18.7028  -55.4206 H         1 UNK         0.0600 
    235 H235       -4.2440  -16.2358  -52.7855 H         1 UNK         0.3000 
    236 H236       -2.1606  -15.5405  -52.8672 H         1 UNK         0.0600 
    237 H237       -2.8217  -14.1845  -55.5338 H         1 UNK         0.0600 
    238 H238       -3.2322  -13.5171  -53.9577 H         1 UNK         0.0600 
    239 H239       -1.5495  -13.7379  -54.4063 H         1 UNK         0.0600 
    240 H240       -2.8489  -18.1435  -54.1922 H         1 UNK         0.3000 
    241 H241       -1.8507  -19.8348  -55.1027 H         1 UNK         0.0600 
    242 H242       -2.7774  -18.0825  -58.4126 H         1 UNK         0.3800 
    243 H243       -3.1552  -17.5239  -56.8034 H         1 UNK         0.3800 
    244 H244        0.4306  -18.5685  -54.1545 H         1 UNK         0.0800 
    245 H245        0.8130  -18.6441  -55.8347 H         1 UNK         0.0800 
    246 H246       -0.0820  -22.2707  -53.0951 H         1 UNK         0.0800 
    247 H247       -0.9293  -20.7561  -53.0543 H         1 UNK         0.0800 
@<TRIPOS>BOND
     1    1    2 1    
     2    1  127 1    
     3    1  128 1    
     4    1  129 1    
     5    2    3 2    
     6    2    4 am   BACKBONE|DICT|INTERRES
     7    4    5 1    
     8    4  130 1    
     9    5    6 1    
    10    5   65 1    
    11    5  131 1    
    12    6    7 1    
    13    6  132 1    
    14    6  133 1    
    15    7    8 1    
    16    8    9 1    
    17    8  134 1    
    18    8  135 1    
    19    9   10 ar   
    20    9   14 ar   
    21   10   11 ar   
    22   10  136 1    
    23   11   12 ar   
    24   11  126 1    
    25   12   13 ar   
    26   12  137 1    
    27   13   14 ar   
    28   13   15 1    
    29   14  138 1    
    30   15   16 1    
    31   15  139 1    
    32   15  140 1    
    33   16   17 1    
    34   17   18 1    
    35   17  141 1    
    36   17  142 1    
    37   18   19 1    
    38   18   67 1    
    39   18  143 1    
    40   19   20 am   BACKBONE|DICT|INTERRES
    41   19  144 1    
    42   20   21 2    
    43   20   22 1    
    44   22   23 1    
    45   22   24 1    
    46   22  145 1    
    47   23  146 1    
    48   23  147 1    
    49   23  148 1    
    50   24   25 am   BACKBONE|DICT|INTERRES
    51   24  149 1    
    52   25   26 2    
    53   25   27 1    
    54   27   28 1    
    55   27   29 1    
    56   27  150 1    
    57   28  151 1    
    58   28  152 1    
    59   28  153 1    
    60   29   30 am   BACKBONE|DICT|INTERRES
    61   29  154 1    
    62   30   31 2    
    63   30   32 1    
    64   32   33 1    
    65   32   34 1    
    66   32  155 1    
    67   33  156 1    
    68   33  157 1    
    69   33  158 1    
    70   34   35 am   BACKBONE|DICT|INTERRES
    71   34  159 1    
    72   35   36 2    
    73   35   37 1    
    74   37   38 1    
    75   37   39 1    
    76   37  160 1    
    77   38  161 1    
    78   38  162 1    
    79   38  163 1    
    80   39   40 am   BACKBONE|DICT|INTERRES
    81   39  164 1    
    82   40   41 2    
    83   40   42 1    
    84   42   43 1    
    85   42   44 1    
    86   42  165 1    
    87   43  166 1    
    88   43  167 1    
    89   43  168 1    
    90   44   45 am   BACKBONE|DICT|INTERRES
    91   44  169 1    
    92   45   46 2    
    93   45   47 1    
    94   47   48 1    
    95   47   49 1    
    96   47  170 1    
    97   48  171 1    
    98   48  172 1    
    99   48  173 1    
   100   49   50 am   BACKBONE|DICT|INTERRES
   101   49  174 1    
   102   50   51 2    
   103   50   52 1    
   104   52   53 1    
   105   52   54 1    
   106   52  175 1    
   107   53  176 1    
   108   53  177 1    
   109   53  178 1    
   110   54   55 am   BACKBONE|DICT|INTERRES
   111   54  179 1    
   112   55   56 2    
   113   55   57 1    
   114   57   58 1    
   115   57   59 1    
   116   57  180 1    
   117   58  181 1    
   118   58  182 1    
   119   58  183 1    
   120   59   60 am   BACKBONE|DICT|INTERRES
   121   59  184 1    
   122   60   61 2    
   123   60   62 1    
   124   62   63 1    
   125   62   64 1    
   126   62  185 1    
   127   63  186 1    
   128   63  187 1    
   129   63  188 1    
   130   64   65 am   BACKBONE|DICT|INTERRES
   131   64  189 1    
   132   65   66 2    
   133   67   68 2    
   134   67   69 am   BACKBONE|DICT|INTERRES
   135   69   70 1    
   136   69  190 1    
   137   70   71 1    
   138   70   72 1    
   139   70  191 1    
   140   71  192 1    
   141   71  193 1    
   142   71  194 1    
   143   72   73 2    
   144   72   74 am   BACKBONE|DICT|INTERRES
   145   74   75 1    
   146   74  195 1    
   147   75   76 1    
   148   75   77 1    
   149   75  196 1    
   150   76  197 1    
   151   76  198 1    
   152   76  199 1    
   153   77   78 2    
   154   77   79 am   BACKBONE|DICT|INTERRES
   155   79   80 1    
   156   79  200 1    
   157   80   81 1    
   158   80   82 1    
   159   80  201 1    
   160   81  202 1    
   161   81  203 1    
   162   81  204 1    
   163   82   83 2    
   164   82   84 am   BACKBONE|DICT|INTERRES
   165   84   85 1    
   166   84  205 1    
   167   85   86 1    
   168   85   87 1    
   169   85  206 1    
   170   86  207 1    
   171   86  208 1    
   172   86  209 1    
   173   87   88 2    
   174   87   89 am   BACKBONE|DICT|INTERRES
   175   89   90 1    
   176   89  210 1    
   177   90   91 1    
   178   90   92 1    
   179   90  211 1    
   180   91  212 1    
   181   91  213 1    
   182   91  214 1    
   183   92   93 2    
   184   92   94 am   BACKBONE|DICT|INTERRES
   185   94   95 1    
   186   94  215 1    
   187   95   96 1    
   188   95   97 1    
   189   95  216 1    
   190   96  217 1    
   191   96  218 1    
   192   96  219 1    
   193   97   98 2    
   194   97   99 am   BACKBONE|DICT|INTERRES
   195   99  100 1    
   196   99  220 1    
   197  100  101 1    
   198  100  102 1    
   199  100  221 1    
   200  101  222 1    
   201  101  223 1    
   202  101  224 1    
   203  102  103 2    
   204  102  104 am   BACKBONE|DICT|INTERRES
   205  104  105 1    
   206  104  225 1    
   207  105  106 1    
   208  105  107 1    
   209  105  226 1    
   210  106  227 1    
   211  106  228 1    
   212  106  229 1    
   213  107  108 2    
   214  107  109 am   BACKBONE|DICT|INTERRES
   215  109  110 1    
   216  109  230 1    
   217  110  111 1    
   218  110  112 1    
   219  110  231 1    
   220  111  232 1    
   221  111  233 1    
   222  111  234 1    
   223  112  113 2    
   224  112  114 am   BACKBONE|DICT|INTERRES
   225  114  115 1    
   226  114  235 1    
   227  115  116 1    
   228  115  117 1    
   229  115  236 1    
   230  116  237 1    
   231  116  238 1    
   232  116  239 1    
   233  117  118 2    
   234  117  119 am   BACKBONE|DICT|INTERRES
   235  119  120 1    
   236  119  240 1    
   237  120  121 1    
   238  120  124 1    
   239  120  241 1    
   240  121  122 am   BACKBONE|DICT|INTERRES
   241  121  123 2    
   242  122  242 1    
   243  122  243 1    
   244  124  125 1    
   245  124  244 1    
   246  124  245 1    
   247  125  126 1    
   248  126  246 1    
   249  126  247 1    
@<TRIPOS>SUBSTRUCTURE
     1 UNK         1 GROUP             0       ****    0 ROOT    
