@<TRIPOS>MOLECULE
3R540
247   249    1
SMALL
USER_CHARGES


@<TRIPOS>ATOM
      1 CA          9.5365  -12.5567  -48.0340 C.3       0 UNK        -0.1800 
      2 C           8.1988  -13.1688  -47.6416 C.2       0 UNK         0.5000 
      3 O           8.1122  -13.8441  -46.6155 O.2       0 UNK        -0.5000 
      4 N           7.1614  -12.9431  -48.4571 N.am      1 UNK        -0.5000 
      5 CA          5.7879  -13.3884  -48.2044 C.3       1 UNK         0.1400 
      6 C6          4.9556  -13.4074  -49.5117 C.3       23 UNK        -0.0398 
      7 S7          3.5560  -14.5814  -49.4482 S.3       23 UNK        -0.2404 
      8 C8          4.2397  -15.9958  -50.3701 C.3       23 UNK        -0.0205 
      9 C9          3.1930  -17.0550  -50.6945 C.ar      23 UNK        -0.0193 
     10 C10         2.0516  -16.7131  -51.4269 C.ar      23 UNK        -0.1150 
     11 C11         1.1311  -17.6910  -51.8128 C.ar      23 UNK        -0.0193 
     12 C12         1.3609  -19.0247  -51.4657 C.ar      23 UNK        -0.1150 
     13 C13         2.4964  -19.3829  -50.7339 C.ar      23 UNK        -0.0193 
     14 C14         3.4029  -18.3923  -50.3403 C.ar      23 UNK        -0.1150 
     15 C15         2.7733  -20.8475  -50.4257 C.3       23 UNK        -0.0205 
     16 S16         2.2148  -21.3253  -48.7642 S.3       23 UNK        -0.2404 
     17 C17         0.4025  -21.2222  -48.9416 C.3       23 UNK        -0.0398 
     18 CA         -0.3298  -21.9876  -47.8171 C.3       11 UNK         0.1400 
     19 N          -0.0414  -21.4378  -46.4853 N.am      11 UNK        -0.5000 
     20 C          -0.4475  -21.9416  -45.3095 C.2       10 UNK         0.5000 
     21 O          -1.1443  -22.9513  -45.1996 O.2       10 UNK        -0.5000 
     22 CA         -0.0722  -21.1388  -44.0549 C.3       10 UNK         0.1400 
     23 CB          1.4081  -21.3286  -43.6883 C.3       10 UNK        -0.1800 
     24 N          -0.3634  -19.7222  -44.2675 N.am      10 UNK        -0.5000 
     25 C          -1.5680  -19.1704  -44.0659 C.2       9 UNK         0.5000 
     26 O          -2.5150  -19.7743  -43.5619 O.2       9 UNK        -0.5000 
     27 CA         -1.7784  -17.7156  -44.5297 C.3       9 UNK         0.1400 
     28 CB         -1.7550  -16.7407  -43.3459 C.3       9 UNK        -0.1800 
     29 N          -0.8126  -17.2786  -45.5384 N.am      9 UNK        -0.5000 
     30 C          -0.8491  -17.6560  -46.8241 C.2       8 UNK         0.5000 
     31 O          -1.7183  -18.3889  -47.2942 O.2       8 UNK        -0.5000 
     32 CA          0.3109  -17.1838  -47.7206 C.3       8 UNK         0.1400 
     33 CB         -0.0429  -15.8478  -48.3885 C.3       8 UNK        -0.1800 
     34 N           1.5897  -17.0709  -47.0097 N.am      8 UNK        -0.5000 
     35 C           2.2038  -18.0979  -46.4042 C.2       7 UNK         0.5000 
     36 O           1.7041  -19.2183  -46.3192 O.2       7 UNK        -0.5000 
     37 CA          3.5807  -17.8749  -45.7517 C.3       7 UNK         0.1400 
     38 CB          4.2661  -16.5427  -46.1076 C.3       7 UNK        -0.1800 
     39 N           3.5423  -18.0596  -44.2981 N.am      7 UNK        -0.5000 
     40 C           2.7689  -17.4107  -43.4155 C.2       6 UNK         0.5000 
     41 O           1.9093  -16.5784  -43.7211 O.2       6 UNK        -0.5000 
     42 CA          3.0496  -17.7299  -41.9336 C.3       6 UNK         0.1400 
     43 CB          4.4441  -17.2239  -41.5252 C.3       6 UNK        -0.1800 
     44 N           2.0675  -17.1055  -41.0511 N.am      6 UNK        -0.5000 
     45 C           0.8477  -17.5903  -40.7851 C.2       5 UNK         0.5000 
     46 O           0.4365  -18.6804  -41.1790 O.2       5 UNK        -0.5000 
     47 CA         -0.0718  -16.6778  -39.9618 C.3       5 UNK         0.1400 
     48 CB          0.2619  -16.8146  -38.4615 C.3       5 UNK        -0.1800 
     49 N           0.0747  -15.2985  -40.4343 N.am      5 UNK        -0.5000 
     50 C          -0.5824  -14.2184  -39.9943 C.2       4 UNK         0.5000 
     51 O          -1.4391  -14.2389  -39.1104 O.2       4 UNK        -0.5000 
     52 CA         -0.2179  -12.8818  -40.6673 C.3       4 UNK         0.1400 
     53 CB          0.9965  -12.2450  -39.9735 C.3       4 UNK        -0.1800 
     54 N           0.0712  -13.0313  -42.0959 N.am      4 UNK        -0.5000 
     55 C          -0.8677  -13.1729  -43.0431 C.2       3 UNK         0.5000 
     56 O          -2.0753  -13.1698  -42.8017 O.2       3 UNK        -0.5000 
     57 CA         -0.3769  -13.3350  -44.4948 C.3       3 UNK         0.1400 
     58 CB         -1.3611  -12.7603  -45.5305 C.3       3 UNK        -0.1800 
     59 N           0.9448  -12.7330  -44.6788 N.am      3 UNK        -0.5000 
     60 C           1.9090  -13.2541  -45.4422 C.2       2 UNK         0.5000 
     61 O           1.7712  -14.2752  -46.1212 O.2       2 UNK        -0.5000 
     62 CA          3.2605  -12.5249  -45.4318 C.3       2 UNK         0.1400 
     63 CB          3.9679  -12.6851  -44.0727 C.3       2 UNK        -0.1800 
     64 N           4.0840  -13.1040  -46.4832 N.am      2 UNK        -0.5000 
     65 C           5.1166  -12.5341  -47.1042 C.2       1 UNK         0.5000 
     66 O           5.5213  -11.3944  -46.8573 O.2       1 UNK        -0.5000 
     67 C          -1.8388  -22.0814  -48.1186 C.2       11 UNK         0.5000 
     68 O          -2.2450  -22.9701  -48.8687 O.2       11 UNK        -0.5000 
     69 N          -2.6481  -21.2217  -47.4825 N.am      12 UNK        -0.5000 
     70 CA         -4.1107  -21.2708  -47.4602 C.3       12 UNK         0.1400 
     71 CB         -4.6372  -20.1920  -46.5034 C.3       12 UNK        -0.1800 
     72 C          -4.6754  -22.6535  -47.0807 C.2       12 UNK         0.5000 
     73 O          -5.6531  -23.0892  -47.6892 O.2       12 UNK        -0.5000 
     74 N          -4.0142  -23.3277  -46.1309 N.am      13 UNK        -0.5000 
     75 CA         -4.3109  -24.6967  -45.7254 C.3       13 UNK         0.1400 
     76 CB         -4.2556  -24.7907  -44.1923 C.3       13 UNK        -0.1800 
     77 C          -3.3247  -25.6876  -46.3651 C.2       13 UNK         0.5000 
     78 O          -3.7604  -26.6824  -46.9433 O.2       13 UNK        -0.5000 
     79 N          -2.0177  -25.4056  -46.2561 N.am      14 UNK        -0.5000 
     80 CA         -0.9306  -26.3273  -46.6033 C.3       14 UNK         0.1400 
     81 CB          0.3955  -25.7808  -46.0522 C.3       14 UNK        -0.1800 
     82 C          -0.8061  -26.6388  -48.1060 C.2       14 UNK         0.5000 
     83 O          -0.4167  -27.7532  -48.4568 O.2       14 UNK        -0.5000 
     84 N          -1.1508  -25.6671  -48.9587 N.am      15 UNK        -0.5000 
     85 CA         -1.2102  -25.8075  -50.4161 C.3       15 UNK         0.1400 
     86 CB         -0.3303  -24.7180  -51.0554 C.3       15 UNK        -0.1800 
     87 C          -2.6638  -25.7188  -50.9236 C.2       15 UNK         0.5000 
     88 O          -2.8785  -25.6901  -52.1358 O.2       15 UNK        -0.5000 
     89 N          -3.6288  -25.6575  -49.9911 N.am      16 UNK        -0.5000 
     90 CA         -5.0697  -25.4828  -50.1915 C.3       16 UNK         0.1400 
     91 CB         -5.6801  -26.7235  -50.8747 C.3       16 UNK        -0.1800 
     92 C          -5.4408  -24.1706  -50.9140 C.2       16 UNK         0.5000 
     93 O          -6.4900  -24.1076  -51.5583 O.2       16 UNK        -0.5000 
     94 N          -4.6007  -23.1301  -50.7896 N.am      17 UNK        -0.5000 
     95 CA         -4.7497  -21.8518  -51.4938 C.3       17 UNK         0.1400 
     96 CB         -3.4612  -21.0243  -51.3636 C.3       17 UNK        -0.1800 
     97 C          -5.9964  -21.0339  -51.0948 C.2       17 UNK         0.5000 
     98 O          -6.3389  -20.0917  -51.8056 O.2       17 UNK        -0.5000 
     99 N          -6.6902  -21.4172  -50.0128 N.am      18 UNK        -0.5000 
    100 CA        -8.0117  -20.8922  -49.6618 C.3       18 UNK         0.1400 
    101 CB        -8.3752  -21.3384  -48.2379 C.3       18 UNK        -0.1800 
    102 C         -9.1121  -21.3319  -50.6503 C.2       18 UNK         0.5000 
    103 O        -10.0848  -20.5986  -50.8309 O.2       18 UNK        -0.5000 
    104 N         -8.9406  -22.5104  -51.2655 N.am      19 UNK        -0.5000 
    105 CA        -9.8623  -23.0902  -52.2418 C.3       19 UNK         0.1400 
    106 CB       -10.1459  -24.5506  -51.8549 C.3       19 UNK        -0.1800 
    107 C         -9.2837  -23.0160  -53.6637 C.2       19 UNK         0.5000 
    108 O        -10.0129  -22.6898  -54.6006 O.2       19 UNK        -0.5000 
    109 N         -7.9845  -23.3136  -53.8019 N.am      20 UNK        -0.5000 
    110 CA        -7.2642  -23.3538  -55.0768 C.3       20 UNK         0.1400 
    111 CB        -6.0224  -24.2447  -54.9066 C.3       20 UNK        -0.1800 
    112 C         -6.8625  -21.9642  -55.6121 C.2       20 UNK         0.5000 
    113 O         -6.4776  -21.8692  -56.7783 O.2       20 UNK        -0.5000 
    114 N         -6.9557  -20.9349  -54.7558 N.am      21 UNK        -0.5000 
    115 CA        -6.5013  -19.5487  -54.9188 C.3       21 UNK         0.1400 
    116 CB        -7.0502  -18.9009  -56.2060 C.3       21 UNK        -0.1800 
    117 C         -4.9676  -19.4153  -54.8237 C.2       21 UNK         0.5000 
    118 O         -4.2295  -20.3380  -55.1754 O.2       21 UNK        -0.5000 
    119 N         -4.5142  -18.2476  -54.3521 N.am      22 UNK        -0.5000 
    120 CA        -3.0892  -17.8769  -54.2665 C.3       22 UNK         0.1400 
    121 C         -2.5058  -17.3171  -55.6023 C.2       22 UNK         0.5000 
    122 N         -3.2951  -17.1292  -56.6536 N.am      22 UNK        -0.7600 
    123 O         -1.3115  -17.0517  -55.6946 O.2       22 UNK        -0.5000 
    124 C124       -2.8140  -16.9247  -53.0609 C.3       23 UNK        -0.0398 
    125 S125       -1.6532  -17.6184  -51.8318 S.3       23 UNK        -0.2404 
    126 C126       -0.0673  -17.3177  -52.6710 C.3       23 UNK        -0.0205 
    127 H127       10.2851  -13.3390  -48.1592 H         1 UNK         0.0600 
    128 H128        9.8799  -11.8759  -47.2551 H         1 UNK         0.0600 
    129 H129        9.4690  -11.9982  -48.9679 H         1 UNK         0.0600 
    130 H130        7.2902  -12.3491  -49.2636 H         1 UNK         0.3000 
    131 H131        5.8546  -14.4133  -47.8318 H         1 UNK         0.0600 
    132 H132        5.5898  -13.6828  -50.3554 H         1 UNK         0.0800 
    133 H133        4.5732  -12.4134  -49.7516 H         1 UNK         0.0800 
    134 H134        4.6660  -15.6442  -51.3106 H         1 UNK         0.0800 
    135 H135        5.0624  -16.4251  -49.7963 H         1 UNK         0.0800 
    136 H136        1.8960  -15.6838  -51.7180 H         1 UNK         0.1150 
    137 H137        0.6632  -19.7858  -51.7858 H         1 UNK         0.1150 
    138 H138        4.2903  -18.6717  -49.7901 H         1 UNK         0.1150 
    139 H139        2.3020  -21.4927  -51.1688 H         1 UNK         0.0800 
    140 H140        3.8450  -21.0372  -50.5005 H         1 UNK         0.0800 
    141 H141        0.1044  -20.1735  -48.9502 H         1 UNK         0.0800 
    142 H142        0.1339  -21.6280  -49.9185 H         1 UNK         0.0800 
    143 H143        0.0427  -23.0127  -47.8218 H         1 UNK         0.0600 
    144 H144        0.5633  -20.6178  -46.4723 H         1 UNK         0.3000 
    145 H145       -0.6689  -21.5136  -43.2205 H         1 UNK         0.0600 
    146 H146        1.6628  -20.7657  -42.7904 H         1 UNK         0.0600 
    147 H147        1.6237  -22.3783  -43.4858 H         1 UNK         0.0600 
    148 H148        2.0777  -21.0077  -44.4857 H         1 UNK         0.0600 
    149 H149        0.3502  -19.1830  -44.7419 H         1 UNK         0.3000 
    150 H150       -2.7776  -17.6723  -44.9689 H         1 UNK         0.0600 
    151 H151       -2.3358  -17.1189  -42.5035 H         1 UNK         0.0600 
    152 H152       -2.1918  -15.7848  -43.6303 H         1 UNK         0.0600 
    153 H153       -0.7405  -16.5586  -42.9956 H         1 UNK         0.0600 
    154 H154       -0.0234  -16.7306  -45.2187 H         1 UNK         0.3000 
    155 H155        0.4456  -17.9232  -48.5115 H         1 UNK         0.0600 
    156 H156        0.7547  -15.5113  -49.0489 H         1 UNK         0.0600 
    157 H157       -0.2263  -15.0640  -47.6537 H         1 UNK         0.0600 
    158 H158       -0.9437  -15.9454  -48.9956 H         1 UNK         0.0600 
    159 H159        1.9772  -16.1368  -46.9292 H         1 UNK         0.3000 
    160 H160        4.2133  -18.6718  -46.1458 H         1 UNK         0.0600 
    161 H161        3.7983  -15.7039  -45.5990 H         1 UNK         0.0600 
    162 H162        4.2440  -16.3576  -47.1809 H         1 UNK         0.0600 
    163 H163        5.3139  -16.5558  -45.8078 H         1 UNK         0.0600 
    164 H164        4.1935  -18.7445  -43.9420 H         1 UNK         0.3000 
    165 H165        3.0141  -18.8132  -41.8011 H         1 UNK         0.0600 
    166 H166        4.5436  -16.1487  -41.6808 H         1 UNK         0.0600 
    167 H167        4.6454  -17.4300  -40.4737 H         1 UNK         0.0600 
    168 H168        5.2306  -17.7119  -42.1018 H         1 UNK         0.0600 
    169 H169        2.3288  -16.2122  -40.6627 H         1 UNK         0.3000 
    170 H170       -1.1031  -16.9932  -40.1310 H         1 UNK         0.0600 
    171 H171        0.2644  -17.8620  -38.1565 H         1 UNK         0.0600 
    172 H172        1.2443  -16.4026  -38.2281 H         1 UNK         0.0600 
    173 H173       -0.4711  -16.3072  -37.8354 H         1 UNK         0.0600 
    174 H174        0.6996  -15.1816  -41.2194 H         1 UNK         0.3000 
    175 H175       -1.0672  -12.2051  -40.5484 H         1 UNK         0.0600 
    176 H176        1.8891  -12.8646  -40.0684 H         1 UNK         0.0600 
    177 H177        1.2218  -11.2651  -40.3948 H         1 UNK         0.0600 
    178 H178        0.8072  -12.1035  -38.9086 H         1 UNK         0.0600 
    179 H179        1.0428  -13.0612  -42.3657 H         1 UNK         0.3000 
    180 H180       -0.3070  -14.4122  -44.6583 H         1 UNK         0.0600 
    181 H181       -1.5107  -11.6896  -45.3879 H         1 UNK         0.0600 
    182 H182       -2.3358  -13.2444  -45.4595 H         1 UNK         0.0600 
    183 H183       -0.9990  -12.9154  -46.5468 H         1 UNK         0.0600 
    184 H184        1.1156  -11.8725  -44.1765 H         1 UNK         0.3000 
    185 H185        3.0869  -11.4681  -45.6440 H         1 UNK         0.0600 
    186 H186        4.9448  -12.2013  -44.0751 H         1 UNK         0.0600 
    187 H187        3.3884  -12.2323  -43.2678 H         1 UNK         0.0600 
    188 H188        4.1174  -13.7362  -43.8208 H         1 UNK         0.0600 
    189 H189        3.7321  -13.9949  -46.8127 H         1 UNK         0.3000 
    190 H190       -2.2201  -20.4619  -46.9676 H         1 UNK         0.3000 
    191 H191       -4.4633  -21.0311  -48.4607 H         1 UNK         0.0600 
    192 H192       -5.7265  -20.1786  -46.4839 H         1 UNK         0.0600 
    193 H193       -4.3084  -19.1983  -46.8077 H         1 UNK         0.0600 
    194 H194       -4.2961  -20.3615  -45.4823 H         1 UNK         0.0600 
    195 H195       -3.1835  -22.9097  -45.7283 H         1 UNK         0.3000 
    196 H196       -5.3187  -24.9761  -46.0405 H         1 UNK         0.0600 
    197 H197       -4.4592  -25.8079  -43.8552 H         1 UNK         0.0600 
    198 H198       -5.0013  -24.1411  -43.7337 H         1 UNK         0.0600 
    199 H199       -3.2785  -24.5030  -43.8019 H         1 UNK         0.0600 
    200 H200       -1.7374  -24.5452  -45.7891 H         1 UNK         0.3000 
    201 H201       -1.1348  -27.2731  -46.0970 H         1 UNK         0.0600 
    202 H202        0.3419  -25.6293  -44.9739 H         1 UNK         0.0600 
    203 H203        0.6641  -24.8292  -46.5095 H         1 UNK         0.0600 
    204 H204        1.2136  -26.4768  -46.2417 H         1 UNK         0.0600 
    205 H205       -1.4818  -24.7791  -48.5970 H         1 UNK         0.3000 
    206 H206       -0.8244  -26.7801  -50.7269 H         1 UNK         0.0600 
    207 H207        0.6819  -24.7380  -50.6512 H         1 UNK         0.0600 
    208 H208       -0.2518  -24.8639  -52.1333 H         1 UNK         0.0600 
    209 H209       -0.7375  -23.7205  -50.8929 H         1 UNK         0.0600 
    210 H210       -3.3396  -25.7347  -49.0257 H         1 UNK         0.3000 
    211 H211       -5.5056  -25.4099  -49.1944 H         1 UNK         0.0600 
    212 H212       -5.3462  -26.8218  -51.9081 H         1 UNK         0.0600 
    213 H213       -6.7693  -26.6677  -50.8883 H         1 UNK         0.0600 
    214 H214       -5.4107  -27.6374  -50.3453 H         1 UNK         0.0600 
    215 H215       -3.7728  -23.2386  -50.2130 H         1 UNK         0.3000 
    216 H216       -4.8692  -22.0874  -52.5530 H         1 UNK         0.0600 
    217 H217       -3.5082  -20.1385  -51.9978 H         1 UNK         0.0600 
    218 H218       -2.5886  -21.5977  -51.6768 H         1 UNK         0.0600 
    219 H219       -3.2883  -20.6798  -50.3463 H         1 UNK         0.0600 
    220 H220       -6.3456  -22.1887  -49.4522 H         1 UNK         0.3000 
    221 H221       -7.9648  -19.8013  -49.6775 H         1 UNK         0.0600 
    222 H222       -8.4075  -22.4254  -48.1530 H         1 UNK         0.0600 
    223 H223       -7.6547  -20.9678  -47.5110 H         1 UNK         0.0600 
    224 H224       -9.3542  -20.9564  -47.9455 H         1 UNK         0.0600 
    225 H225       -8.0907  -23.0348  -51.0877 H         1 UNK         0.3000 
    226 H226      -10.8124  -22.5520  -52.2404 H         1 UNK         0.0600 
    227 H227      -10.6113  -24.6118  -50.8711 H         1 UNK         0.0600 
    228 H228      -10.8271  -25.0186  -52.5667 H         1 UNK         0.0600 
    229 H229       -9.2334  -25.1481  -51.8300 H         1 UNK         0.0600 
    230 H230       -7.4562  -23.6055  -52.9818 H         1 UNK         0.3000 
    231 H231       -7.9108  -23.8164  -55.8255 H         1 UNK         0.0600 
    232 H232       -5.4903  -24.3600  -55.8516 H         1 UNK         0.0600 
    233 H233       -6.2954  -25.2430  -54.5638 H         1 UNK         0.0600 
    234 H234       -5.3201  -23.8254  -54.1857 H         1 UNK         0.0600 
    235 H235       -7.2751  -21.1552  -53.8233 H         1 UNK         0.3000 
    236 H236       -6.9320  -19.0023  -54.0790 H         1 UNK         0.0600 
    237 H237       -8.1253  -19.0550  -56.2990 H         1 UNK         0.0600 
    238 H238       -6.8772  -17.8244  -56.2018 H         1 UNK         0.0600 
    239 H239       -6.5735  -19.2986  -57.1021 H         1 UNK         0.0600 
    240 H240       -5.1768  -17.5342  -54.0841 H         1 UNK         0.3000 
    241 H241       -2.5297  -18.7988  -54.0968 H         1 UNK         0.0600 
    242 H242       -4.2774  -17.3435  -56.6071 H         1 UNK         0.3800 
    243 H243       -2.9002  -16.7703  -57.5090 H         1 UNK         0.3800 
    244 H244       -2.4454  -15.9472  -53.3780 H         1 UNK         0.0800 
    245 H245       -3.7380  -16.7079  -52.5232 H         1 UNK         0.0800 
    246 H246       -0.0126  -16.2711  -52.9742 H         1 UNK         0.0800 
    247 H247       -0.0284  -17.9090  -53.5859 H         1 UNK         0.0800 
@<TRIPOS>BOND
     1    1    2 1    
     2    1  127 1    
     3    1  128 1    
     4    1  129 1    
     5    2    3 2    
     6    2    4 am   BACKBONE|DICT|INTERRES
     7    4    5 1    
     8    4  130 1    
     9    5    6 1    
    10    5   65 1    
    11    5  131 1    
    12    6    7 1    
    13    6  132 1    
    14    6  133 1    
    15    7    8 1    
    16    8    9 1    
    17    8  134 1    
    18    8  135 1    
    19    9   10 ar   
    20    9   14 ar   
    21   10   11 ar   
    22   10  136 1    
    23   11   12 ar   
    24   11  126 1    
    25   12   13 ar   
    26   12  137 1    
    27   13   14 ar   
    28   13   15 1    
    29   14  138 1    
    30   15   16 1    
    31   15  139 1    
    32   15  140 1    
    33   16   17 1    
    34   17   18 1    
    35   17  141 1    
    36   17  142 1    
    37   18   19 1    
    38   18   67 1    
    39   18  143 1    
    40   19   20 am   BACKBONE|DICT|INTERRES
    41   19  144 1    
    42   20   21 2    
    43   20   22 1    
    44   22   23 1    
    45   22   24 1    
    46   22  145 1    
    47   23  146 1    
    48   23  147 1    
    49   23  148 1    
    50   24   25 am   BACKBONE|DICT|INTERRES
    51   24  149 1    
    52   25   26 2    
    53   25   27 1    
    54   27   28 1    
    55   27   29 1    
    56   27  150 1    
    57   28  151 1    
    58   28  152 1    
    59   28  153 1    
    60   29   30 am   BACKBONE|DICT|INTERRES
    61   29  154 1    
    62   30   31 2    
    63   30   32 1    
    64   32   33 1    
    65   32   34 1    
    66   32  155 1    
    67   33  156 1    
    68   33  157 1    
    69   33  158 1    
    70   34   35 am   BACKBONE|DICT|INTERRES
    71   34  159 1    
    72   35   36 2    
    73   35   37 1    
    74   37   38 1    
    75   37   39 1    
    76   37  160 1    
    77   38  161 1    
    78   38  162 1    
    79   38  163 1    
    80   39   40 am   BACKBONE|DICT|INTERRES
    81   39  164 1    
    82   40   41 2    
    83   40   42 1    
    84   42   43 1    
    85   42   44 1    
    86   42  165 1    
    87   43  166 1    
    88   43  167 1    
    89   43  168 1    
    90   44   45 am   BACKBONE|DICT|INTERRES
    91   44  169 1    
    92   45   46 2    
    93   45   47 1    
    94   47   48 1    
    95   47   49 1    
    96   47  170 1    
    97   48  171 1    
    98   48  172 1    
    99   48  173 1    
   100   49   50 am   BACKBONE|DICT|INTERRES
   101   49  174 1    
   102   50   51 2    
   103   50   52 1    
   104   52   53 1    
   105   52   54 1    
   106   52  175 1    
   107   53  176 1    
   108   53  177 1    
   109   53  178 1    
   110   54   55 am   BACKBONE|DICT|INTERRES
   111   54  179 1    
   112   55   56 2    
   113   55   57 1    
   114   57   58 1    
   115   57   59 1    
   116   57  180 1    
   117   58  181 1    
   118   58  182 1    
   119   58  183 1    
   120   59   60 am   BACKBONE|DICT|INTERRES
   121   59  184 1    
   122   60   61 2    
   123   60   62 1    
   124   62   63 1    
   125   62   64 1    
   126   62  185 1    
   127   63  186 1    
   128   63  187 1    
   129   63  188 1    
   130   64   65 am   BACKBONE|DICT|INTERRES
   131   64  189 1    
   132   65   66 2    
   133   67   68 2    
   134   67   69 am   BACKBONE|DICT|INTERRES
   135   69   70 1    
   136   69  190 1    
   137   70   71 1    
   138   70   72 1    
   139   70  191 1    
   140   71  192 1    
   141   71  193 1    
   142   71  194 1    
   143   72   73 2    
   144   72   74 am   BACKBONE|DICT|INTERRES
   145   74   75 1    
   146   74  195 1    
   147   75   76 1    
   148   75   77 1    
   149   75  196 1    
   150   76  197 1    
   151   76  198 1    
   152   76  199 1    
   153   77   78 2    
   154   77   79 am   BACKBONE|DICT|INTERRES
   155   79   80 1    
   156   79  200 1    
   157   80   81 1    
   158   80   82 1    
   159   80  201 1    
   160   81  202 1    
   161   81  203 1    
   162   81  204 1    
   163   82   83 2    
   164   82   84 am   BACKBONE|DICT|INTERRES
   165   84   85 1    
   166   84  205 1    
   167   85   86 1    
   168   85   87 1    
   169   85  206 1    
   170   86  207 1    
   171   86  208 1    
   172   86  209 1    
   173   87   88 2    
   174   87   89 am   BACKBONE|DICT|INTERRES
   175   89   90 1    
   176   89  210 1    
   177   90   91 1    
   178   90   92 1    
   179   90  211 1    
   180   91  212 1    
   181   91  213 1    
   182   91  214 1    
   183   92   93 2    
   184   92   94 am   BACKBONE|DICT|INTERRES
   185   94   95 1    
   186   94  215 1    
   187   95   96 1    
   188   95   97 1    
   189   95  216 1    
   190   96  217 1    
   191   96  218 1    
   192   96  219 1    
   193   97   98 2    
   194   97   99 am   BACKBONE|DICT|INTERRES
   195   99  100 1    
   196   99  220 1    
   197  100  101 1    
   198  100  102 1    
   199  100  221 1    
   200  101  222 1    
   201  101  223 1    
   202  101  224 1    
   203  102  103 2    
   204  102  104 am   BACKBONE|DICT|INTERRES
   205  104  105 1    
   206  104  225 1    
   207  105  106 1    
   208  105  107 1    
   209  105  226 1    
   210  106  227 1    
   211  106  228 1    
   212  106  229 1    
   213  107  108 2    
   214  107  109 am   BACKBONE|DICT|INTERRES
   215  109  110 1    
   216  109  230 1    
   217  110  111 1    
   218  110  112 1    
   219  110  231 1    
   220  111  232 1    
   221  111  233 1    
   222  111  234 1    
   223  112  113 2    
   224  112  114 am   BACKBONE|DICT|INTERRES
   225  114  115 1    
   226  114  235 1    
   227  115  116 1    
   228  115  117 1    
   229  115  236 1    
   230  116  237 1    
   231  116  238 1    
   232  116  239 1    
   233  117  118 2    
   234  117  119 am   BACKBONE|DICT|INTERRES
   235  119  120 1    
   236  119  240 1    
   237  120  121 1    
   238  120  124 1    
   239  120  241 1    
   240  121  122 am   BACKBONE|DICT|INTERRES
   241  121  123 2    
   242  122  242 1    
   243  122  243 1    
   244  124  125 1    
   245  124  244 1    
   246  124  245 1    
   247  125  126 1    
   248  126  246 1    
   249  126  247 1    
@<TRIPOS>SUBSTRUCTURE
     1 UNK         1 GROUP             0       ****    0 ROOT    
