@<TRIPOS>MOLECULE
3R540
247   249    1
SMALL
USER_CHARGES


@<TRIPOS>ATOM
      1 CA          4.8935   -9.1602  -51.5031 C.3       0 UNK        -0.1800 
      2 C           4.2583   -9.9169  -50.3447 C.2       0 UNK         0.5000 
      3 O           3.7564   -9.2940  -49.4085 O.2       0 UNK        -0.5000 
      4 N           4.2868  -11.2542  -50.4003 N.am      1 UNK        -0.5000 
      5 CA          3.6638  -12.1467  -49.4184 C.3       1 UNK         0.1400 
      6 C6          4.2302  -13.5828  -49.5387 C.3       23 UNK        -0.0398 
      7 S7          3.9721  -14.5578  -48.0186 S.3       23 UNK        -0.2404 
      8 C8          4.3824  -16.2420  -48.5893 C.3       23 UNK        -0.0205 
      9 C9          3.2928  -16.9962  -49.3570 C.ar      23 UNK        -0.0193 
     10 C10         2.1335  -16.3889  -49.8615 C.ar      23 UNK        -0.1150 
     11 C11         1.1836  -17.1321  -50.5704 C.ar      23 UNK        -0.0193 
     12 C12         1.3916  -18.5006  -50.7693 C.ar      23 UNK        -0.1150 
     13 C13         2.5466  -19.1203  -50.2822 C.ar      23 UNK        -0.0193 
     14 C14         3.4856  -18.3627  -49.5785 C.ar      23 UNK        -0.1150 
     15 C15         2.8172  -20.5940  -50.5558 C.3       23 UNK        -0.0205 
     16 S16         2.6074  -21.6281  -49.0715 S.3       23 UNK        -0.2404 
     17 C17         0.7982  -21.5961  -48.9030 C.3       23 UNK        -0.0398 
     18 CA          0.2524  -22.6714  -47.9348 C.3       11 UNK         0.1400 
     19 N           0.6690  -22.4701  -46.5418 N.am      11 UNK        -0.5000 
     20 C           0.4075  -23.3262  -45.5412 C.2       10 UNK         0.5000 
     21 O          -0.1376  -24.4194  -45.7020 O.2       10 UNK        -0.5000 
     22 CA          0.7514  -22.8612  -44.1134 C.3       10 UNK         0.1400 
     23 CB          2.2411  -23.0656  -43.8005 C.3       10 UNK        -0.1800 
     24 N           0.3738  -21.4664  -43.8778 N.am      10 UNK        -0.5000 
     25 C          -0.8921  -21.0228  -43.8669 C.2       9 UNK         0.5000 
     26 O          -1.8708  -21.7608  -43.9765 O.2       9 UNK        -0.5000 
     27 CA         -1.1047  -19.5003  -43.7679 C.3       9 UNK         0.1400 
     28 CB         -1.0747  -19.0321  -42.3061 C.3       9 UNK        -0.1800 
     29 N          -0.1237  -18.7462  -44.5456 N.am      9 UNK        -0.5000 
     30 C          -0.0050  -18.7997  -45.8791 C.2       8 UNK         0.5000 
     31 O          -0.7610  -19.4375  -46.6083 O.2       8 UNK        -0.5000 
     32 CA          1.1832  -18.0515  -46.5002 C.3       8 UNK         0.1400 
     33 CB          0.8380  -16.5754  -46.6865 C.3       8 UNK        -0.1800 
     34 N           2.3963  -18.1662  -45.6947 N.am      8 UNK        -0.5000 
     35 C           3.0687  -19.3087  -45.5074 C.2       7 UNK         0.5000 
     36 O           2.7379  -20.3851  -46.0003 O.2       7 UNK        -0.5000 
     37 CA          4.2799  -19.2429  -44.5613 C.3       7 UNK         0.1400 
     38 CB          5.5092  -18.6733  -45.2851 C.3       7 UNK        -0.1800 
     39 N           4.0026  -18.4429  -43.3677 N.am      7 UNK        -0.5000 
     40 C           3.1149  -18.7814  -42.4219 C.2       6 UNK         0.5000 
     41 O           2.4782  -19.8351  -42.4274 O.2       6 UNK        -0.5000 
     42 CA          2.8651  -17.7449  -41.3099 C.3       6 UNK         0.1400 
     43 CB          3.8928  -17.9053  -40.1799 C.3       6 UNK        -0.1800 
     44 N           2.8827  -16.3593  -41.7928 N.am      6 UNK        -0.5000 
     45 C           2.0084  -15.8558  -42.6743 C.2       5 UNK         0.5000 
     46 O           1.1202  -16.5239  -43.2056 O.2       5 UNK        -0.5000 
     47 CA          2.1947  -14.3796  -43.0674 C.3       5 UNK         0.1400 
     48 CB          3.0967  -14.2691  -44.3060 C.3       5 UNK        -0.1800 
     49 N           0.9129  -13.7335  -43.3503 N.am      5 UNK        -0.5000 
     50 C           0.0178  -13.3879  -42.4127 C.2       4 UNK         0.5000 
     51 O           0.2175  -13.5209  -41.2040 O.2       4 UNK        -0.5000 
     52 CA         -1.3184  -12.7749  -42.8847 C.3       4 UNK         0.1400 
     53 CB         -1.2674  -11.2420  -42.7915 C.3       4 UNK        -0.1800 
     54 N          -1.6833  -13.1497  -44.2502 N.am      4 UNK        -0.5000 
     55 C          -2.0675  -14.3738  -44.6324 C.2       3 UNK         0.5000 
     56 O          -2.2743  -15.2960  -43.8436 O.2       3 UNK        -0.5000 
     57 CA         -2.2563  -14.6236  -46.1448 C.3       3 UNK         0.1400 
     58 CB         -3.7478  -14.7645  -46.4841 C.3       3 UNK        -0.1800 
     59 N          -1.6668  -13.6360  -47.0617 N.am      3 UNK        -0.5000 
     60 C          -0.3923  -13.2242  -47.1109 C.2       2 UNK         0.5000 
     61 O           0.4603  -13.4980  -46.2627 O.2       2 UNK        -0.5000 
     62 CA         -0.0193  -12.3246  -48.2965 C.3       2 UNK         0.1400 
     63 CB         -0.5526  -10.8948  -48.0995 C.3       2 UNK        -0.1800 
     64 N           1.4331  -12.2925  -48.4156 N.am      2 UNK        -0.5000 
     65 C           2.1230  -12.1163  -49.5454 C.2       1 UNK         0.5000 
     66 O           1.5980  -11.9485  -50.6497 O.2       1 UNK        -0.5000 
     67 C          -1.2814  -22.7576  -48.0581 C.2       11 UNK         0.5000 
     68 O          -1.7815  -23.6786  -48.7021 O.2       11 UNK        -0.5000 
     69 N          -1.9971  -21.8249  -47.4136 N.am      12 UNK        -0.5000 
     70 CA         -3.4576  -21.7728  -47.3681 C.3       12 UNK         0.1400 
     71 CB         -3.9166  -20.5216  -46.6042 C.3       12 UNK        -0.1800 
     72 C          -4.0762  -23.0354  -46.7492 C.2       12 UNK         0.5000 
     73 O          -5.0212  -23.5788  -47.3168 O.2       12 UNK        -0.5000 
     74 N          -3.5115  -23.5048  -45.6286 N.am      13 UNK        -0.5000 
     75 CA         -3.9195  -24.7356  -44.9512 C.3       13 UNK         0.1400 
     76 CB         -3.1547  -24.8701  -43.6258 C.3       13 UNK        -0.1800 
     77 C          -3.7324  -25.9923  -45.8221 C.2       13 UNK         0.5000 
     78 O          -4.6117  -26.8546  -45.8368 O.2       13 UNK        -0.5000 
     79 N          -2.6089  -26.0616  -46.5489 N.am      14 UNK        -0.5000 
     80 CA         -2.2881  -27.1526  -47.4690 C.3       14 UNK         0.1400 
     81 CB         -0.8001  -27.0770  -47.8445 C.3       14 UNK        -0.1800 
     82 C          -3.1694  -27.1535  -48.7331 C.2       14 UNK         0.5000 
     83 O          -3.6160  -28.2178  -49.1622 O.2       14 UNK        -0.5000 
     84 N          -3.3998  -25.9658  -49.3060 N.am      15 UNK        -0.5000 
     85 CA         -4.1068  -25.7673  -50.5733 C.3       15 UNK         0.1400 
     86 CB         -3.4802  -24.5632  -51.2888 C.3       15 UNK        -0.1800 
     87 C          -5.6260  -25.5598  -50.4235 C.2       15 UNK         0.5000 
     88 O          -6.2813  -25.2543  -51.4216 O.2       15 UNK        -0.5000 
     89 N          -6.1556  -25.6710  -49.1959 N.am      16 UNK        -0.5000 
     90 CA         -7.5570  -25.4420  -48.8124 C.3       16 UNK         0.1400 
     91 CB         -8.4612  -26.5537  -49.3835 C.3       16 UNK        -0.1800 
     92 C          -8.0534  -24.0208  -49.1671 C.2       16 UNK         0.5000 
     93 O          -9.1987  -23.8422  -49.5849 O.2       16 UNK        -0.5000 
     94 N          -7.1482  -23.0443  -49.0159 N.am      17 UNK        -0.5000 
     95 CA         -7.2695  -21.6173  -49.3265 C.3       17 UNK         0.1400 
     96 CB         -8.2912  -20.9459  -48.3868 C.3       17 UNK        -0.1800 
     97 C          -7.5327  -21.2974  -50.8167 C.2       17 UNK         0.5000 
     98 O          -7.9623  -20.1842  -51.1252 O.2       17 UNK        -0.5000 
     99 N          -7.2828  -22.2619  -51.7138 N.am      18 UNK        -0.5000 
    100 CA        -7.5511  -22.1546  -53.1443 C.3       18 UNK         0.1400 
    101 CB        -8.3696  -23.3794  -53.5972 C.3       18 UNK        -0.1800 
    102 C         -6.2361  -21.9901  -53.9217 C.2       18 UNK         0.5000 
    103 O         -5.8337  -20.8598  -54.2024 O.2       18 UNK        -0.5000 
    104 N         -5.5935  -23.1167  -54.2634 N.am      19 UNK        -0.5000 
    105 CA        -4.4805  -23.2198  -55.2174 C.3       19 UNK         0.1400 
    106 CB        -4.1573  -24.7058  -55.4417 C.3       19 UNK        -0.1800 
    107 C         -3.2026  -22.4364  -54.8530 C.2       19 UNK         0.5000 
    108 O         -2.3871  -22.1707  -55.7368 O.2       19 UNK        -0.5000 
    109 N         -3.0515  -22.0716  -53.5742 N.am      20 UNK        -0.5000 
    110 CA        -1.9563  -21.2468  -53.0662 C.3       20 UNK         0.1400 
    111 CB        -1.9349  -21.3412  -51.5318 C.3       20 UNK        -0.1800 
    112 C         -2.0485  -19.7690  -53.4873 C.2       20 UNK         0.5000 
    113 O         -1.0271  -19.0848  -53.4631 O.2       20 UNK        -0.5000 
    114 N         -3.2668  -19.2945  -53.7981 N.am      21 UNK        -0.5000 
    115 CA        -3.6503  -17.8853  -53.9813 C.3       21 UNK         0.1400 
    116 CB        -2.8811  -17.2297  -55.1472 C.3       21 UNK        -0.1800 
    117 C         -3.5789  -17.0546  -52.6764 C.2       21 UNK         0.5000 
    118 O         -3.6501  -15.8261  -52.7228 O.2       21 UNK        -0.5000 
    119 N         -3.4788  -17.7503  -51.5403 N.am      22 UNK        -0.5000 
    120 CA        -3.5494  -17.2529  -50.1663 C.3       22 UNK         0.1400 
    121 C         -4.5248  -18.1697  -49.3874 C.2       22 UNK         0.5000 
    122 N         -5.2977  -17.6247  -48.4585 N.am      22 UNK        -0.7600 
    123 O         -4.5690  -19.3785  -49.6046 O.2       22 UNK        -0.5000 
    124 C124       -2.1531  -17.2338  -49.4851 C.3       23 UNK        -0.0398 
    125 S125       -1.1811  -15.7648  -49.9560 S.3       23 UNK        -0.2404 
    126 C126       -0.0229  -16.4355  -51.1890 C.3       23 UNK        -0.0205 
    127 H127        5.3218   -9.8363  -52.2435 H         1 UNK         0.0600 
    128 H128        5.6883   -8.5105  -51.1367 H         1 UNK         0.0600 
    129 H129        4.1471   -8.5407  -52.0002 H         1 UNK         0.0600 
    130 H130        4.6833  -11.7036  -51.2130 H         1 UNK         0.3000 
    131 H131        3.9278  -11.7607  -48.4308 H         1 UNK         0.0600 
    132 H132        5.3082  -13.5429  -49.7025 H         1 UNK         0.0800 
    133 H133        3.8164  -14.1016  -50.4047 H         1 UNK         0.0800 
    134 H134        5.2849  -16.2016  -49.2005 H         1 UNK         0.0800 
    135 H135        4.6389  -16.8255  -47.7049 H         1 UNK         0.0800 
    136 H136        1.9543  -15.3346  -49.7157 H         1 UNK         0.1150 
    137 H137        0.6717  -19.0752  -51.3342 H         1 UNK         0.1150 
    138 H138        4.3789  -18.8444  -49.2055 H         1 UNK         0.1150 
    139 H139        2.1768  -20.9648  -51.3576 H         1 UNK         0.0800 
    140 H140        3.8415  -20.7051  -50.9143 H         1 UNK         0.0800 
    141 H141        0.3894  -21.7571  -49.9001 H         1 UNK         0.0800 
    142 H142        0.4906  -20.5954  -48.5986 H         1 UNK         0.0800 
    143 H143        0.6498  -23.6383  -48.2510 H         1 UNK         0.0600 
    144 H144        1.1828  -21.6179  -46.3387 H         1 UNK         0.3000 
    145 H145        0.1786  -23.4799  -43.4193 H         1 UNK         0.0600 
    146 H146        2.5214  -24.1131  -43.9164 H         1 UNK         0.0600 
    147 H147        2.8810  -22.4820  -44.4611 H         1 UNK         0.0600 
    148 H148        2.4708  -22.7782  -42.7743 H         1 UNK         0.0600 
    149 H149        1.1275  -20.8040  -43.7331 H         1 UNK         0.3000 
    150 H150       -2.0921  -19.2734  -44.1742 H         1 UNK         0.0600 
    151 H151       -1.2719  -17.9620  -42.2324 H         1 UNK         0.0600 
    152 H152       -0.1094  -19.2271  -41.8393 H         1 UNK         0.0600 
    153 H153       -1.8348  -19.5461  -41.7167 H         1 UNK         0.0600 
    154 H154        0.4896  -18.1221  -44.0277 H         1 UNK         0.3000 
    155 H155        1.3847  -18.4855  -47.4814 H         1 UNK         0.0600 
    156 H156        0.0365  -16.4620  -47.4129 H         1 UNK         0.0600 
    157 H157        1.6873  -16.0084  -47.0584 H         1 UNK         0.0600 
    158 H158        0.5148  -16.1147  -45.7535 H         1 UNK         0.0600 
    159 H159        2.6967  -17.3365  -45.2073 H         1 UNK         0.3000 
    160 H160        4.5105  -20.2626  -44.2451 H         1 UNK         0.0600 
    161 H161        5.7133  -19.2251  -46.2039 H         1 UNK         0.0600 
    162 H162        6.3996  -18.7433  -44.6601 H         1 UNK         0.0600 
    163 H163        5.3711  -17.6255  -45.5530 H         1 UNK         0.0600 
    164 H164        4.4855  -17.5610  -43.2823 H         1 UNK         0.3000 
    165 H165        1.8733  -17.9399  -40.8967 H         1 UNK         0.0600 
    166 H166        3.6704  -17.2383  -39.3467 H         1 UNK         0.0600 
    167 H167        3.8868  -18.9238  -39.7891 H         1 UNK         0.0600 
    168 H168        4.9061  -17.6908  -40.5216 H         1 UNK         0.0600 
    169 H169        3.5935  -15.7560  -41.4047 H         1 UNK         0.3000 
    170 H170        2.6743  -13.8507  -42.2411 H         1 UNK         0.0600 
    171 H171        3.2493  -13.2283  -44.5921 H         1 UNK         0.0600 
    172 H172        4.0798  -14.7025  -44.1193 H         1 UNK         0.0600 
    173 H173        2.6673  -14.7875  -45.1630 H         1 UNK         0.0600 
    174 H174        0.6666  -13.6332  -44.3311 H         1 UNK         0.3000 
    175 H175       -2.1002  -13.1325  -42.2114 H         1 UNK         0.0600 
    176 H176       -0.5117  -10.8240  -43.4580 H         1 UNK         0.0600 
    177 H177       -2.2285  -10.7981  -43.0517 H         1 UNK         0.0600 
    178 H178       -1.0257  -10.9197  -41.7778 H         1 UNK         0.0600 
    179 H179       -1.5214  -12.4605  -44.9691 H         1 UNK         0.3000 
    180 H180       -1.7857  -15.5824  -46.3577 H         1 UNK         0.0600 
    181 H181       -3.8887  -15.0396  -47.5291 H         1 UNK         0.0600 
    182 H182       -4.2885  -13.8344  -46.3046 H         1 UNK         0.0600 
    183 H183       -4.2176  -15.5411  -45.8786 H         1 UNK         0.0600 
    184 H184       -2.2847  -13.3169  -47.7934 H         1 UNK         0.3000 
    185 H185       -0.4510  -12.7591  -49.2006 H         1 UNK         0.0600 
    186 H186       -0.1466  -10.4367  -47.1967 H         1 UNK         0.0600 
    187 H187       -0.2906  -10.2568  -48.9438 H         1 UNK         0.0600 
    188 H188       -1.6397  -10.8861  -48.0139 H         1 UNK         0.0600 
    189 H189        1.9168  -12.5233  -47.5557 H         1 UNK         0.3000 
    190 H190       -1.5059  -21.0624  -46.9510 H         1 UNK         0.3000 
    191 H191       -3.8104  -21.6963  -48.3983 H         1 UNK         0.0600 
    192 H192       -3.6636  -20.5738  -45.5461 H         1 UNK         0.0600 
    193 H193       -4.9978  -20.4003  -46.6768 H         1 UNK         0.0600 
    194 H194       -3.4598  -19.6194  -47.0094 H         1 UNK         0.0600 
    195 H195       -2.7649  -22.9689  -45.1942 H         1 UNK         0.3000 
    196 H196       -4.9834  -24.6486  -44.7215 H         1 UNK         0.0600 
    197 H197       -3.4533  -25.7727  -43.0914 H         1 UNK         0.0600 
    198 H198       -3.3528  -24.0225  -42.9695 H         1 UNK         0.0600 
    199 H199       -2.0775  -24.9231  -43.7859 H         1 UNK         0.0600 
    200 H200       -1.9219  -25.3207  -46.4598 H         1 UNK         0.3000 
    201 H201       -2.4554  -28.0970  -46.9467 H         1 UNK         0.0600 
    202 H202       -0.1670  -27.1523  -46.9601 H         1 UNK         0.0600 
    203 H203       -0.5577  -26.1405  -48.3479 H         1 UNK         0.0600 
    204 H204       -0.5234  -27.8922  -48.5141 H         1 UNK         0.0600 
    205 H205       -2.9559  -25.1402  -48.9092 H         1 UNK         0.3000 
    206 H206       -3.9641  -26.6445  -51.2075 H         1 UNK         0.0600 
    207 H207       -3.9040  -24.4387  -52.2834 H         1 UNK         0.0600 
    208 H208       -3.6549  -23.6399  -50.7354 H         1 UNK         0.0600 
    209 H209       -2.4042  -24.6892  -51.4094 H         1 UNK         0.0600 
    210 H210       -5.5171  -25.8541  -48.4336 H         1 UNK         0.3000 
    211 H211       -7.5907  -25.5123  -47.7243 H         1 UNK         0.0600 
    212 H212       -8.5182  -26.5100  -50.4716 H         1 UNK         0.0600 
    213 H213       -9.4781  -26.4674  -48.9990 H         1 UNK         0.0600 
    214 H214       -8.0934  -27.5416  -49.1062 H         1 UNK         0.0600 
    215 H215       -6.2637  -23.3148  -48.5881 H         1 UNK         0.3000 
    216 H216       -6.2931  -21.1928  -49.0986 H         1 UNK         0.0600 
    217 H217       -8.2763  -19.8614  -48.5008 H         1 UNK         0.0600 
    218 H218       -8.0665  -21.1626  -47.3424 H         1 UNK         0.0600 
    219 H219       -9.3081  -21.2827  -48.5896 H         1 UNK         0.0600 
    220 H220       -6.9350  -23.1560  -51.3881 H         1 UNK         0.3000 
    221 H221       -8.1557  -21.2711  -53.3593 H         1 UNK         0.0600 
    222 H222       -7.8818  -24.3228  -53.3519 H         1 UNK         0.0600 
    223 H223       -9.3487  -23.3868  -53.1177 H         1 UNK         0.0600 
    224 H224       -8.5382  -23.3624  -54.6747 H         1 UNK         0.0600 
    225 H225       -5.9845  -23.9931  -53.9467 H         1 UNK         0.3000 
    226 H226       -4.8354  -22.8085  -56.1645 H         1 UNK         0.0600 
    227 H227       -5.0282  -25.2480  -55.8106 H         1 UNK         0.0600 
    228 H228       -3.3658  -24.8273  -56.1824 H         1 UNK         0.0600 
    229 H229       -3.8233  -25.1915  -54.5248 H         1 UNK         0.0600 
    230 H230       -3.7781  -22.3225  -52.9216 H         1 UNK         0.3000 
    231 H231       -1.0120  -21.6387  -53.4501 H         1 UNK         0.0600 
    232 H232       -2.9137  -21.1371  -51.0962 H         1 UNK         0.0600 
    233 H233       -1.6217  -22.3326  -51.2077 H         1 UNK         0.0600 
    234 H234       -1.2366  -20.6239  -51.1001 H         1 UNK         0.0600 
    235 H235       -4.0415  -19.9509  -53.8283 H         1 UNK         0.3000 
    236 H236       -4.7046  -17.9060  -54.2607 H         1 UNK         0.0600 
    237 H237       -1.8323  -17.0620  -54.9018 H         1 UNK         0.0600 
    238 H238       -2.9235  -17.8465  -56.0448 H         1 UNK         0.0600 
    239 H239       -3.3115  -16.2601  -55.3997 H         1 UNK         0.0600 
    240 H240       -3.5041  -18.7579  -51.6048 H         1 UNK         0.3000 
    241 H241       -3.9711  -16.2458  -50.1635 H         1 UNK         0.0600 
    242 H242       -5.9302  -18.2181  -47.9475 H         1 UNK         0.3800 
    243 H243       -5.2982  -16.6341  -48.2789 H         1 UNK         0.3800 
    244 H244       -2.2538  -17.1995  -48.3986 H         1 UNK         0.0800 
    245 H245       -1.5937  -18.1459  -49.7009 H         1 UNK         0.0800 
    246 H246        0.3340  -15.6111  -51.8075 H         1 UNK         0.0800 
    247 H247       -0.5608  -17.1026  -51.8615 H         1 UNK         0.0800 
@<TRIPOS>BOND
     1    1    2 1    
     2    1  127 1    
     3    1  128 1    
     4    1  129 1    
     5    2    3 2    
     6    2    4 am   BACKBONE|DICT|INTERRES
     7    4    5 1    
     8    4  130 1    
     9    5    6 1    
    10    5   65 1    
    11    5  131 1    
    12    6    7 1    
    13    6  132 1    
    14    6  133 1    
    15    7    8 1    
    16    8    9 1    
    17    8  134 1    
    18    8  135 1    
    19    9   10 ar   
    20    9   14 ar   
    21   10   11 ar   
    22   10  136 1    
    23   11   12 ar   
    24   11  126 1    
    25   12   13 ar   
    26   12  137 1    
    27   13   14 ar   
    28   13   15 1    
    29   14  138 1    
    30   15   16 1    
    31   15  139 1    
    32   15  140 1    
    33   16   17 1    
    34   17   18 1    
    35   17  141 1    
    36   17  142 1    
    37   18   19 1    
    38   18   67 1    
    39   18  143 1    
    40   19   20 am   BACKBONE|DICT|INTERRES
    41   19  144 1    
    42   20   21 2    
    43   20   22 1    
    44   22   23 1    
    45   22   24 1    
    46   22  145 1    
    47   23  146 1    
    48   23  147 1    
    49   23  148 1    
    50   24   25 am   BACKBONE|DICT|INTERRES
    51   24  149 1    
    52   25   26 2    
    53   25   27 1    
    54   27   28 1    
    55   27   29 1    
    56   27  150 1    
    57   28  151 1    
    58   28  152 1    
    59   28  153 1    
    60   29   30 am   BACKBONE|DICT|INTERRES
    61   29  154 1    
    62   30   31 2    
    63   30   32 1    
    64   32   33 1    
    65   32   34 1    
    66   32  155 1    
    67   33  156 1    
    68   33  157 1    
    69   33  158 1    
    70   34   35 am   BACKBONE|DICT|INTERRES
    71   34  159 1    
    72   35   36 2    
    73   35   37 1    
    74   37   38 1    
    75   37   39 1    
    76   37  160 1    
    77   38  161 1    
    78   38  162 1    
    79   38  163 1    
    80   39   40 am   BACKBONE|DICT|INTERRES
    81   39  164 1    
    82   40   41 2    
    83   40   42 1    
    84   42   43 1    
    85   42   44 1    
    86   42  165 1    
    87   43  166 1    
    88   43  167 1    
    89   43  168 1    
    90   44   45 am   BACKBONE|DICT|INTERRES
    91   44  169 1    
    92   45   46 2    
    93   45   47 1    
    94   47   48 1    
    95   47   49 1    
    96   47  170 1    
    97   48  171 1    
    98   48  172 1    
    99   48  173 1    
   100   49   50 am   BACKBONE|DICT|INTERRES
   101   49  174 1    
   102   50   51 2    
   103   50   52 1    
   104   52   53 1    
   105   52   54 1    
   106   52  175 1    
   107   53  176 1    
   108   53  177 1    
   109   53  178 1    
   110   54   55 am   BACKBONE|DICT|INTERRES
   111   54  179 1    
   112   55   56 2    
   113   55   57 1    
   114   57   58 1    
   115   57   59 1    
   116   57  180 1    
   117   58  181 1    
   118   58  182 1    
   119   58  183 1    
   120   59   60 am   BACKBONE|DICT|INTERRES
   121   59  184 1    
   122   60   61 2    
   123   60   62 1    
   124   62   63 1    
   125   62   64 1    
   126   62  185 1    
   127   63  186 1    
   128   63  187 1    
   129   63  188 1    
   130   64   65 am   BACKBONE|DICT|INTERRES
   131   64  189 1    
   132   65   66 2    
   133   67   68 2    
   134   67   69 am   BACKBONE|DICT|INTERRES
   135   69   70 1    
   136   69  190 1    
   137   70   71 1    
   138   70   72 1    
   139   70  191 1    
   140   71  192 1    
   141   71  193 1    
   142   71  194 1    
   143   72   73 2    
   144   72   74 am   BACKBONE|DICT|INTERRES
   145   74   75 1    
   146   74  195 1    
   147   75   76 1    
   148   75   77 1    
   149   75  196 1    
   150   76  197 1    
   151   76  198 1    
   152   76  199 1    
   153   77   78 2    
   154   77   79 am   BACKBONE|DICT|INTERRES
   155   79   80 1    
   156   79  200 1    
   157   80   81 1    
   158   80   82 1    
   159   80  201 1    
   160   81  202 1    
   161   81  203 1    
   162   81  204 1    
   163   82   83 2    
   164   82   84 am   BACKBONE|DICT|INTERRES
   165   84   85 1    
   166   84  205 1    
   167   85   86 1    
   168   85   87 1    
   169   85  206 1    
   170   86  207 1    
   171   86  208 1    
   172   86  209 1    
   173   87   88 2    
   174   87   89 am   BACKBONE|DICT|INTERRES
   175   89   90 1    
   176   89  210 1    
   177   90   91 1    
   178   90   92 1    
   179   90  211 1    
   180   91  212 1    
   181   91  213 1    
   182   91  214 1    
   183   92   93 2    
   184   92   94 am   BACKBONE|DICT|INTERRES
   185   94   95 1    
   186   94  215 1    
   187   95   96 1    
   188   95   97 1    
   189   95  216 1    
   190   96  217 1    
   191   96  218 1    
   192   96  219 1    
   193   97   98 2    
   194   97   99 am   BACKBONE|DICT|INTERRES
   195   99  100 1    
   196   99  220 1    
   197  100  101 1    
   198  100  102 1    
   199  100  221 1    
   200  101  222 1    
   201  101  223 1    
   202  101  224 1    
   203  102  103 2    
   204  102  104 am   BACKBONE|DICT|INTERRES
   205  104  105 1    
   206  104  225 1    
   207  105  106 1    
   208  105  107 1    
   209  105  226 1    
   210  106  227 1    
   211  106  228 1    
   212  106  229 1    
   213  107  108 2    
   214  107  109 am   BACKBONE|DICT|INTERRES
   215  109  110 1    
   216  109  230 1    
   217  110  111 1    
   218  110  112 1    
   219  110  231 1    
   220  111  232 1    
   221  111  233 1    
   222  111  234 1    
   223  112  113 2    
   224  112  114 am   BACKBONE|DICT|INTERRES
   225  114  115 1    
   226  114  235 1    
   227  115  116 1    
   228  115  117 1    
   229  115  236 1    
   230  116  237 1    
   231  116  238 1    
   232  116  239 1    
   233  117  118 2    
   234  117  119 am   BACKBONE|DICT|INTERRES
   235  119  120 1    
   236  119  240 1    
   237  120  121 1    
   238  120  124 1    
   239  120  241 1    
   240  121  122 am   BACKBONE|DICT|INTERRES
   241  121  123 2    
   242  122  242 1    
   243  122  243 1    
   244  124  125 1    
   245  124  244 1    
   246  124  245 1    
   247  125  126 1    
   248  126  246 1    
   249  126  247 1    
@<TRIPOS>SUBSTRUCTURE
     1 UNK         1 GROUP             0       ****    0 ROOT    
