@<TRIPOS>MOLECULE
3R540
247   249    1
SMALL
USER_CHARGES


@<TRIPOS>ATOM
      1 CA          5.8393  -12.6198  -47.5427 C.3       0 UNK        -0.1800 
      2 C           5.2124  -11.7663  -48.6446 C.2       0 UNK         0.5000 
      3 O           5.5099  -10.5759  -48.7241 O.2       0 UNK        -0.5000 
      4 N           4.3605  -12.3141  -49.5232 N.am      1 UNK        -0.5000 
      5 CA          3.8260  -13.6785  -49.5171 C.3       1 UNK         0.1400 
      6 C6          3.1742  -14.0157  -50.8834 C.3       23 UNK        -0.0398 
      7 S7          2.4153  -15.6729  -50.9594 S.3       23 UNK        -0.2404 
      8 C8          3.8329  -16.7140  -51.4136 C.3       23 UNK        -0.0205 
      9 C9          3.6213  -18.1435  -50.9406 C.ar      23 UNK        -0.0193 
     10 C10         2.8036  -19.0130  -51.6705 C.ar      23 UNK        -0.1150 
     11 C11         2.5990  -20.3329  -51.2432 C.ar      23 UNK        -0.0193 
     12 C12         3.2400  -20.7667  -50.0799 C.ar      23 UNK        -0.1150 
     13 C13         4.0550  -19.9099  -49.3367 C.ar      23 UNK        -0.0193 
     14 C14         4.2414  -18.5960  -49.7719 C.ar      23 UNK        -0.1150 
     15 C15         4.7485  -20.4204  -48.0794 C.3       23 UNK        -0.0205 
     16 S16         4.0949  -19.6963  -46.5364 S.3       23 UNK        -0.2404 
     17 C17         2.2876  -19.8990  -46.6959 C.3       23 UNK        -0.0398 
     18 CA          1.8258  -21.3729  -46.7367 C.3       11 UNK         0.1400 
     19 N           2.2002  -22.1186  -45.5351 N.am      11 UNK        -0.5000 
     20 C           2.2120  -23.4554  -45.4525 C.2       10 UNK         0.5000 
     21 O           1.9135  -24.2015  -46.3845 O.2       10 UNK        -0.5000 
     22 CA          2.5775  -24.0532  -44.0829 C.3       10 UNK         0.1400 
     23 CB          4.1011  -24.0734  -43.8896 C.3       10 UNK        -0.1800 
     24 N           1.9548  -23.3263  -42.9754 N.am      10 UNK        -0.5000 
     25 C           0.6333  -23.2725  -42.7582 C.2       9 UNK         0.5000 
     26 O          -0.1984  -23.8556  -43.4514 O.2       9 UNK        -0.5000 
     27 CA          0.1572  -22.3783  -41.6013 C.3       9 UNK         0.1400 
     28 CB          0.1881  -23.1503  -40.2739 C.3       9 UNK        -0.1800 
     29 N           0.9272  -21.1395  -41.4630 N.am      9 UNK        -0.5000 
     30 C           1.0051  -20.1805  -42.3942 C.2       8 UNK         0.5000 
     31 O           0.5040  -20.2630  -43.5189 O.2       8 UNK        -0.5000 
     32 CA          1.7816  -18.9178  -42.0140 C.3       8 UNK         0.1400 
     33 CB          3.1422  -18.8745  -42.7259 C.3       8 UNK        -0.1800 
     34 N           0.9790  -17.7737  -42.4255 N.am      8 UNK        -0.5000 
     35 C           0.6357  -16.7478  -41.6401 C.2       7 UNK         0.5000 
     36 O           1.0466  -16.6000  -40.4883 O.2       7 UNK        -0.5000 
     37 CA         -0.3318  -15.7059  -42.2300 C.3       7 UNK         0.1400 
     38 CB          0.4244  -14.4270  -42.6227 C.3       7 UNK        -0.1800 
     39 N          -1.0803  -16.1839  -43.3934 N.am      7 UNK        -0.5000 
     40 C          -2.1460  -16.9955  -43.3529 C.2       6 UNK         0.5000 
     41 O          -2.5593  -17.5290  -42.3223 O.2       6 UNK        -0.5000 
     42 CA         -2.8816  -17.1955  -44.6989 C.3       6 UNK         0.1400 
     43 CB         -4.2524  -17.8895  -44.5579 C.3       6 UNK        -0.1800 
     44 N          -3.0028  -15.9379  -45.4507 N.am      6 UNK        -0.5000 
     45 C          -3.5731  -14.7943  -45.0332 C.2       5 UNK         0.5000 
     46 O          -4.2337  -14.6968  -43.9986 O.2       5 UNK        -0.5000 
     47 CA         -3.3429  -13.5315  -45.8868 C.3       5 UNK         0.1400 
     48 CB         -2.6053  -12.4550  -45.0724 C.3       5 UNK        -0.1800 
     49 N          -2.5570  -13.8072  -47.0908 N.am      5 UNK        -0.5000 
     50 C          -2.9827  -13.6205  -48.3465 C.2       4 UNK         0.5000 
     51 O          -4.0880  -13.1649  -48.6387 O.2       4 UNK        -0.5000 
     52 CA         -2.0159  -14.0277  -49.4757 C.3       4 UNK         0.1400 
     53 CB         -1.2101  -12.8136  -49.9597 C.3       4 UNK        -0.1800 
     54 N          -1.0872  -15.1002  -49.1108 N.am      4 UNK        -0.5000 
     55 C          -1.4334  -16.3423  -48.7436 C.2       3 UNK         0.5000 
     56 O          -2.5964  -16.7330  -48.6597 O.2       3 UNK        -0.5000 
     57 CA         -0.2945  -17.3067  -48.3756 C.3       3 UNK         0.1400 
     58 CB          0.0441  -18.1721  -49.5983 C.3       3 UNK        -0.1800 
     59 N           0.9040  -16.6261  -47.8671 N.am      3 UNK        -0.5000 
     60 C           0.9370  -15.9083  -46.7313 C.2       2 UNK         0.5000 
     61 O          -0.0419  -15.7556  -45.9998 O.2       2 UNK        -0.5000 
     62 CA          2.2587  -15.2175  -46.3532 C.3       2 UNK         0.1400 
     63 CB          3.0642  -16.0873  -45.3795 C.3       2 UNK        -0.1800 
     64 N           3.0890  -14.8878  -47.5117 N.am      2 UNK        -0.5000 
     65 C           2.8467  -13.8606  -48.3371 C.2       1 UNK         0.5000 
     66 O           1.8970  -13.0863  -48.2076 O.2       1 UNK        -0.5000 
     67 C           0.3149  -21.4740  -47.0143 C.2       11 UNK         0.5000 
     68 O          -0.0770  -21.6440  -48.1682 O.2       11 UNK        -0.5000 
     69 N          -0.5020  -21.4190  -45.9529 N.am      12 UNK        -0.5000 
     70 CA         -1.9489  -21.6246  -46.0081 C.3       12 UNK         0.1400 
     71 CB         -2.5611  -21.3132  -44.6352 C.3       12 UNK        -0.1800 
     72 C          -2.3248  -23.0456  -46.4689 C.2       12 UNK         0.5000 
     73 O          -3.2258  -23.1941  -47.2932 O.2       12 UNK        -0.5000 
     74 N          -1.6055  -24.0596  -45.9670 N.am      13 UNK        -0.5000 
     75 CA         -1.7530  -25.4595  -46.3688 C.3       13 UNK         0.1400 
     76 CB         -0.9599  -26.3593  -45.4093 C.3       13 UNK        -0.1800 
     77 C          -1.3278  -25.7121  -47.8269 C.2       13 UNK         0.5000 
     78 O          -1.9874  -26.4865  -48.5202 O.2       13 UNK        -0.5000 
     79 N          -0.2518  -25.0455  -48.2695 N.am      14 UNK        -0.5000 
     80 CA          0.2390  -25.0856  -49.6481 C.3       14 UNK         0.1400 
     81 CB          1.6300  -24.4417  -49.7155 C.3       14 UNK        -0.1800 
     82 C          -0.7241  -24.4102  -50.6421 C.2       14 UNK         0.5000 
     83 O          -0.9057  -24.9221  -51.7471 O.2       14 UNK        -0.5000 
     84 N          -1.3340  -23.2904  -50.2268 N.am      15 UNK        -0.5000 
     85 CA         -2.3972  -22.5988  -50.9568 C.3       15 UNK         0.1400 
     86 CB         -2.6816  -21.2515  -50.2734 C.3       15 UNK        -0.1800 
     87 C          -3.6744  -23.4551  -51.0453 C.2       15 UNK         0.5000 
     88 O          -4.2006  -23.6447  -52.1420 O.2       15 UNK        -0.5000 
     89 N          -4.0901  -23.9836  -49.8845 N.am      16 UNK        -0.5000 
     90 CA         -5.2417  -24.8427  -49.6059 C.3       16 UNK         0.1400 
     91 CB         -5.2250  -26.1168  -50.4724 C.3       16 UNK        -0.1800 
     92 C          -6.5944  -24.1122  -49.7040 C.2       16 UNK         0.5000 
     93 O          -6.7787  -23.2231  -50.5349 O.2       16 UNK        -0.5000 
     94 N          -7.5331  -24.5299  -48.8442 N.am      17 UNK        -0.5000 
     95 CA         -8.9383  -24.1123  -48.7305 C.3       17 UNK         0.1400 
     96 CB         -9.7156  -24.4100  -50.0276 C.3       17 UNK        -0.1800 
     97 C          -9.1804  -22.6602  -48.2668 C.2       17 UNK         0.5000 
     98 O         -10.1041  -22.4385  -47.4820 O.2       17 UNK        -0.5000 
     99 N          -8.3789  -21.7006  -48.7391 N.am      18 UNK        -0.5000 
    100 CA        -8.5154  -20.2749  -48.4558 C.3       18 UNK         0.1400 
    101 CB        -9.6066  -19.6742  -49.3636 C.3       18 UNK        -0.1800 
    102 C         -7.1769  -19.5524  -48.6644 C.2       18 UNK         0.5000 
    103 O         -6.2593  -20.1006  -49.2799 O.2       18 UNK        -0.5000 
    104 N         -7.1045  -18.3110  -48.1680 N.am      19 UNK        -0.5000 
    105 CA        -6.0038  -17.3817  -48.4183 C.3       19 UNK         0.1400 
    106 CB        -6.1580  -16.1624  -47.4964 C.3       19 UNK        -0.1800 
    107 C         -5.9690  -16.9381  -49.8940 C.2       19 UNK         0.5000 
    108 O         -7.0183  -16.8464  -50.5352 O.2       19 UNK        -0.5000 
    109 N         -4.7561  -16.6733  -50.3927 N.am      20 UNK        -0.5000 
    110 CA        -4.4051  -16.2411  -51.7520 C.3       20 UNK         0.1400 
    111 CB        -5.0727  -14.8957  -52.1020 C.3       20 UNK        -0.1800 
    112 C         -4.6263  -17.3006  -52.8518 C.2       20 UNK         0.5000 
    113 O         -4.3574  -17.0167  -54.0204 O.2       20 UNK        -0.5000 
    114 N         -5.0408  -18.5198  -52.4774 N.am      21 UNK        -0.5000 
    115 CA        -5.2819  -19.6455  -53.3862 C.3       21 UNK         0.1400 
    116 CB        -6.0405  -20.7444  -52.6301 C.3       21 UNK        -0.1800 
    117 C         -4.0066  -20.1964  -54.0617 C.2       21 UNK         0.5000 
    118 O         -4.1145  -20.9203  -55.0521 O.2       21 UNK        -0.5000 
    119 N         -2.8285  -19.8094  -53.5504 N.am      22 UNK        -0.5000 
    120 CA        -1.5265  -19.9962  -54.2097 C.3       22 UNK         0.1400 
    121 C         -1.3324  -19.1198  -55.4883 C.2       22 UNK         0.5000 
    122 N         -2.1240  -18.0756  -55.7141 N.am      22 UNK        -0.7600 
    123 O         -0.4574  -19.3989  -56.3026 O.2       22 UNK        -0.5000 
    124 C124       -0.3545  -19.8045  -53.2066 C.3       23 UNK        -0.0398 
    125 S125        1.0984  -20.8293  -53.6255 S.3       23 UNK        -0.2404 
    126 C126        1.7081  -21.3375  -51.9803 C.3       23 UNK        -0.0205 
    127 H127        6.2152  -13.5662  -47.9296 H         1 UNK         0.0600 
    128 H128        5.1169  -12.8207  -46.7519 H         1 UNK         0.0600 
    129 H129        6.6834  -12.0959  -47.0936 H         1 UNK         0.0600 
    130 H130        3.9574  -11.7073  -50.2225 H         1 UNK         0.3000 
    131 H131        4.6618  -14.3674  -49.3858 H         1 UNK         0.0600 
    132 H132        2.3941  -13.2887  -51.1164 H         1 UNK         0.0800 
    133 H133        3.9115  -13.9293  -51.6830 H         1 UNK         0.0800 
    134 H134        3.9668  -16.6924  -52.4962 H         1 UNK         0.0800 
    135 H135        4.7493  -16.3097  -50.9814 H         1 UNK         0.0800 
    136 H136        2.3284  -18.6428  -52.5661 H         1 UNK         0.1150 
    137 H137        3.1092  -21.7872  -49.7548 H         1 UNK         0.1150 
    138 H138        4.8740  -17.9307  -49.2014 H         1 UNK         0.1150 
    139 H139        4.6800  -21.5073  -48.0147 H         1 UNK         0.0800 
    140 H140        5.8133  -20.1933  -48.1455 H         1 UNK         0.0800 
    141 H141        1.9764  -19.3701  -47.5935 H         1 UNK         0.0800 
    142 H142        1.8127  -19.3744  -45.8654 H         1 UNK         0.0800 
    143 H143        2.3217  -21.8549  -47.5788 H         1 UNK         0.0600 
    144 H144        2.4236  -21.5745  -44.7156 H         1 UNK         0.3000 
    145 H145        2.2149  -25.0831  -44.0606 H         1 UNK         0.0600 
    146 H146        4.3732  -24.5621  -42.9539 H         1 UNK         0.0600 
    147 H147        4.5887  -24.6230  -44.6959 H         1 UNK         0.0600 
    148 H148        4.5213  -23.0668  -43.8778 H         1 UNK         0.0600 
    149 H149        2.5673  -22.8151  -42.3574 H         1 UNK         0.3000 
    150 H150       -0.8785  -22.1006  -41.8071 H         1 UNK         0.0600 
    151 H151       -0.3944  -24.0701  -40.3437 H         1 UNK         0.0600 
    152 H152       -0.2383  -22.5589  -39.4634 H         1 UNK         0.0600 
    153 H153        1.2046  -23.4261  -39.9905 H         1 UNK         0.0600 
    154 H154        1.3760  -20.9915  -40.5705 H         1 UNK         0.3000 
    155 H155        1.9455  -18.9132  -40.9344 H         1 UNK         0.0600 
    156 H156        3.0310  -18.8742  -43.8096 H         1 UNK         0.0600 
    157 H157        3.7546  -19.7358  -42.4569 H         1 UNK         0.0600 
    158 H158        3.6995  -17.9790  -42.4506 H         1 UNK         0.0600 
    159 H159        0.5363  -17.8599  -43.3297 H         1 UNK         0.3000 
    160 H160       -1.0463  -15.4480  -41.4455 H         1 UNK         0.0600 
    161 H161        1.1275  -14.6070  -43.4355 H         1 UNK         0.0600 
    162 H162        0.9916  -14.0313  -41.7792 H         1 UNK         0.0600 
    163 H163       -0.2648  -13.6456  -42.9418 H         1 UNK         0.0600 
    164 H164       -0.7805  -15.8371  -44.3015 H         1 UNK         0.3000 
    165 H165       -2.2429  -17.8504  -45.2936 H         1 UNK         0.0600 
    166 H166       -4.9689  -17.2719  -44.0165 H         1 UNK         0.0600 
    167 H167       -4.6755  -18.1199  -45.5351 H         1 UNK         0.0600 
    168 H168       -4.1663  -18.8316  -44.0167 H         1 UNK         0.0600 
    169 H169       -2.5007  -15.9123  -46.3260 H         1 UNK         0.3000 
    170 H170       -4.3312  -13.1476  -46.1470 H         1 UNK         0.0600 
    171 H171       -1.6087  -12.7871  -44.7806 H         1 UNK         0.0600 
    172 H172       -2.4956  -11.5353  -45.6473 H         1 UNK         0.0600 
    173 H173       -3.1499  -12.2033  -44.1615 H         1 UNK         0.0600 
    174 H174       -1.6238  -14.1694  -46.9460 H         1 UNK         0.3000 
    175 H175       -2.6212  -14.3824  -50.3091 H         1 UNK         0.0600 
    176 H176       -0.5624  -13.0759  -50.7966 H         1 UNK         0.0600 
    177 H177       -1.8719  -12.0156  -50.2986 H         1 UNK         0.0600 
    178 H178       -0.5840  -12.4050  -49.1657 H         1 UNK         0.0600 
    179 H179       -0.1043  -14.8692  -49.1393 H         1 UNK         0.3000 
    180 H180       -0.6652  -17.9652  -47.5869 H         1 UNK         0.0600 
    181 H181        0.4363  -17.5810  -50.4228 H         1 UNK         0.0600 
    182 H182       -0.8499  -18.6678  -49.9719 H         1 UNK         0.0600 
    183 H183        0.7665  -18.9514  -49.3688 H         1 UNK         0.0600 
    184 H184        1.7370  -16.6830  -48.4352 H         1 UNK         0.3000 
    185 H185        2.0008  -14.2905  -45.8362 H         1 UNK         0.0600 
    186 H186        3.4116  -17.0025  -45.8550 H         1 UNK         0.0600 
    187 H187        3.9375  -15.5534  -45.0047 H         1 UNK         0.0600 
    188 H188        2.4648  -16.3736  -44.5152 H         1 UNK         0.0600 
    189 H189        3.8877  -15.4833  -47.6756 H         1 UNK         0.3000 
    190 H190       -0.1044  -21.2259  -45.0373 H         1 UNK         0.3000 
    191 H191       -2.3573  -20.9169  -46.7328 H         1 UNK         0.0600 
    192 H192       -2.2769  -20.3187  -44.2923 H         1 UNK         0.0600 
    193 H193       -3.6502  -21.3494  -44.6776 H         1 UNK         0.0600 
    194 H194       -2.2383  -22.0279  -43.8784 H         1 UNK         0.0600 
    195 H195       -0.9255  -23.8677  -45.2367 H         1 UNK         0.3000 
    196 H196       -2.8094  -25.7225  -46.2831 H         1 UNK         0.0600 
    197 H197       -1.0593  -27.4098  -45.6853 H         1 UNK         0.0600 
    198 H198       -1.3205  -26.2570  -44.3857 H         1 UNK         0.0600 
    199 H199        0.1030  -26.1162  -45.4151 H         1 UNK         0.0600 
    200 H200        0.2795  -24.4838  -47.6132 H         1 UNK         0.3000 
    201 H201        0.3369  -26.1332  -49.9405 H         1 UNK         0.0600 
    202 H202        2.3423  -24.9723  -49.0836 H         1 UNK         0.0600 
    203 H203        1.5975  -23.4051  -49.3857 H         1 UNK         0.0600 
    204 H204        2.0217  -24.4555  -50.7332 H         1 UNK         0.0600 
    205 H205       -1.0658  -22.8942  -49.3311 H         1 UNK         0.3000 
    206 H206       -2.0410  -22.4035  -51.9705 H         1 UNK         0.0600 
    207 H207       -3.3821  -20.6523  -50.8526 H         1 UNK         0.0600 
    208 H208       -3.1097  -21.3778  -49.2791 H         1 UNK         0.0600 
    209 H209       -1.7667  -20.6751  -50.1627 H         1 UNK         0.0600 
    210 H210       -3.5886  -23.6996  -49.0460 H         1 UNK         0.3000 
    211 H211       -5.1101  -25.1512  -48.5675 H         1 UNK         0.0600 
    212 H212       -5.4156  -25.8986  -51.5234 H         1 UNK         0.0600 
    213 H213       -5.9921  -26.8192  -50.1449 H         1 UNK         0.0600 
    214 H214       -4.2645  -26.6278  -50.4028 H         1 UNK         0.0600 
    215 H215       -7.2648  -25.2455  -48.1829 H         1 UNK         0.3000 
    216 H216       -9.3607  -24.7511  -47.9531 H         1 UNK         0.0600 
    217 H217       -9.3703  -23.7966  -50.8603 H         1 UNK         0.0600 
    218 H218       -9.6156  -25.4562  -50.3167 H         1 UNK         0.0600 
    219 H219      -10.7797  -24.2090  -49.8974 H         1 UNK         0.0600 
    220 H220       -7.6252  -21.9539  -49.3758 H         1 UNK         0.3000 
    221 H221       -8.8004  -20.1444  -47.4097 H         1 UNK         0.0600 
    222 H222      -10.5738  -20.1462  -49.1906 H         1 UNK         0.0600 
    223 H223       -9.7337  -18.6067  -49.1806 H         1 UNK         0.0600 
    224 H224       -9.3579  -19.7979  -50.4185 H         1 UNK         0.0600 
    225 H225       -7.9149  -17.9239  -47.7076 H         1 UNK         0.3000 
    226 H226       -5.0675  -17.8890  -48.1755 H         1 UNK         0.0600 
    227 H227       -6.1942  -16.4549  -46.4474 H         1 UNK         0.0600 
    228 H228       -5.3149  -15.4818  -47.6135 H         1 UNK         0.0600 
    229 H229       -7.0658  -15.6005  -47.7194 H         1 UNK         0.0600 
    230 H230       -3.9626  -16.7723  -49.7587 H         1 UNK         0.3000 
    231 H231       -3.3276  -16.0754  -51.7339 H         1 UNK         0.0600 
    232 H232       -4.6676  -14.4881  -53.0288 H         1 UNK         0.0600 
    233 H233       -4.9046  -14.1538  -51.3214 H         1 UNK         0.0600 
    234 H234       -6.1493  -14.9997  -52.2381 H         1 UNK         0.0600 
    235 H235       -5.2489  -18.6773  -51.5013 H         1 UNK         0.3000 
    236 H236       -5.9301  -19.2878  -54.1888 H         1 UNK         0.0600 
    237 H237       -6.2385  -21.6037  -53.2720 H         1 UNK         0.0600 
    238 H238       -5.4778  -21.1050  -51.7705 H         1 UNK         0.0600 
    239 H239       -7.0022  -20.3830  -52.2654 H         1 UNK         0.0600 
    240 H240       -2.8445  -19.1975  -52.7497 H         1 UNK         0.3000 
    241 H241       -1.5098  -21.0339  -54.5491 H         1 UNK         0.0600 
    242 H242       -1.9849  -17.5304  -56.5499 H         1 UNK         0.3800 
    243 H243       -2.8699  -17.8197  -55.0760 H         1 UNK         0.3800 
    244 H244       -0.6757  -20.0850  -52.2044 H         1 UNK         0.0800 
    245 H245       -0.0552  -18.7573  -53.1351 H         1 UNK         0.0800 
    246 H246        2.2784  -22.2567  -52.1210 H         1 UNK         0.0800 
    247 H247        0.8642  -21.6018  -51.3414 H         1 UNK         0.0800 
@<TRIPOS>BOND
     1    1    2 1    
     2    1  127 1    
     3    1  128 1    
     4    1  129 1    
     5    2    3 2    
     6    2    4 am   BACKBONE|DICT|INTERRES
     7    4    5 1    
     8    4  130 1    
     9    5    6 1    
    10    5   65 1    
    11    5  131 1    
    12    6    7 1    
    13    6  132 1    
    14    6  133 1    
    15    7    8 1    
    16    8    9 1    
    17    8  134 1    
    18    8  135 1    
    19    9   10 ar   
    20    9   14 ar   
    21   10   11 ar   
    22   10  136 1    
    23   11   12 ar   
    24   11  126 1    
    25   12   13 ar   
    26   12  137 1    
    27   13   14 ar   
    28   13   15 1    
    29   14  138 1    
    30   15   16 1    
    31   15  139 1    
    32   15  140 1    
    33   16   17 1    
    34   17   18 1    
    35   17  141 1    
    36   17  142 1    
    37   18   19 1    
    38   18   67 1    
    39   18  143 1    
    40   19   20 am   BACKBONE|DICT|INTERRES
    41   19  144 1    
    42   20   21 2    
    43   20   22 1    
    44   22   23 1    
    45   22   24 1    
    46   22  145 1    
    47   23  146 1    
    48   23  147 1    
    49   23  148 1    
    50   24   25 am   BACKBONE|DICT|INTERRES
    51   24  149 1    
    52   25   26 2    
    53   25   27 1    
    54   27   28 1    
    55   27   29 1    
    56   27  150 1    
    57   28  151 1    
    58   28  152 1    
    59   28  153 1    
    60   29   30 am   BACKBONE|DICT|INTERRES
    61   29  154 1    
    62   30   31 2    
    63   30   32 1    
    64   32   33 1    
    65   32   34 1    
    66   32  155 1    
    67   33  156 1    
    68   33  157 1    
    69   33  158 1    
    70   34   35 am   BACKBONE|DICT|INTERRES
    71   34  159 1    
    72   35   36 2    
    73   35   37 1    
    74   37   38 1    
    75   37   39 1    
    76   37  160 1    
    77   38  161 1    
    78   38  162 1    
    79   38  163 1    
    80   39   40 am   BACKBONE|DICT|INTERRES
    81   39  164 1    
    82   40   41 2    
    83   40   42 1    
    84   42   43 1    
    85   42   44 1    
    86   42  165 1    
    87   43  166 1    
    88   43  167 1    
    89   43  168 1    
    90   44   45 am   BACKBONE|DICT|INTERRES
    91   44  169 1    
    92   45   46 2    
    93   45   47 1    
    94   47   48 1    
    95   47   49 1    
    96   47  170 1    
    97   48  171 1    
    98   48  172 1    
    99   48  173 1    
   100   49   50 am   BACKBONE|DICT|INTERRES
   101   49  174 1    
   102   50   51 2    
   103   50   52 1    
   104   52   53 1    
   105   52   54 1    
   106   52  175 1    
   107   53  176 1    
   108   53  177 1    
   109   53  178 1    
   110   54   55 am   BACKBONE|DICT|INTERRES
   111   54  179 1    
   112   55   56 2    
   113   55   57 1    
   114   57   58 1    
   115   57   59 1    
   116   57  180 1    
   117   58  181 1    
   118   58  182 1    
   119   58  183 1    
   120   59   60 am   BACKBONE|DICT|INTERRES
   121   59  184 1    
   122   60   61 2    
   123   60   62 1    
   124   62   63 1    
   125   62   64 1    
   126   62  185 1    
   127   63  186 1    
   128   63  187 1    
   129   63  188 1    
   130   64   65 am   BACKBONE|DICT|INTERRES
   131   64  189 1    
   132   65   66 2    
   133   67   68 2    
   134   67   69 am   BACKBONE|DICT|INTERRES
   135   69   70 1    
   136   69  190 1    
   137   70   71 1    
   138   70   72 1    
   139   70  191 1    
   140   71  192 1    
   141   71  193 1    
   142   71  194 1    
   143   72   73 2    
   144   72   74 am   BACKBONE|DICT|INTERRES
   145   74   75 1    
   146   74  195 1    
   147   75   76 1    
   148   75   77 1    
   149   75  196 1    
   150   76  197 1    
   151   76  198 1    
   152   76  199 1    
   153   77   78 2    
   154   77   79 am   BACKBONE|DICT|INTERRES
   155   79   80 1    
   156   79  200 1    
   157   80   81 1    
   158   80   82 1    
   159   80  201 1    
   160   81  202 1    
   161   81  203 1    
   162   81  204 1    
   163   82   83 2    
   164   82   84 am   BACKBONE|DICT|INTERRES
   165   84   85 1    
   166   84  205 1    
   167   85   86 1    
   168   85   87 1    
   169   85  206 1    
   170   86  207 1    
   171   86  208 1    
   172   86  209 1    
   173   87   88 2    
   174   87   89 am   BACKBONE|DICT|INTERRES
   175   89   90 1    
   176   89  210 1    
   177   90   91 1    
   178   90   92 1    
   179   90  211 1    
   180   91  212 1    
   181   91  213 1    
   182   91  214 1    
   183   92   93 2    
   184   92   94 am   BACKBONE|DICT|INTERRES
   185   94   95 1    
   186   94  215 1    
   187   95   96 1    
   188   95   97 1    
   189   95  216 1    
   190   96  217 1    
   191   96  218 1    
   192   96  219 1    
   193   97   98 2    
   194   97   99 am   BACKBONE|DICT|INTERRES
   195   99  100 1    
   196   99  220 1    
   197  100  101 1    
   198  100  102 1    
   199  100  221 1    
   200  101  222 1    
   201  101  223 1    
   202  101  224 1    
   203  102  103 2    
   204  102  104 am   BACKBONE|DICT|INTERRES
   205  104  105 1    
   206  104  225 1    
   207  105  106 1    
   208  105  107 1    
   209  105  226 1    
   210  106  227 1    
   211  106  228 1    
   212  106  229 1    
   213  107  108 2    
   214  107  109 am   BACKBONE|DICT|INTERRES
   215  109  110 1    
   216  109  230 1    
   217  110  111 1    
   218  110  112 1    
   219  110  231 1    
   220  111  232 1    
   221  111  233 1    
   222  111  234 1    
   223  112  113 2    
   224  112  114 am   BACKBONE|DICT|INTERRES
   225  114  115 1    
   226  114  235 1    
   227  115  116 1    
   228  115  117 1    
   229  115  236 1    
   230  116  237 1    
   231  116  238 1    
   232  116  239 1    
   233  117  118 2    
   234  117  119 am   BACKBONE|DICT|INTERRES
   235  119  120 1    
   236  119  240 1    
   237  120  121 1    
   238  120  124 1    
   239  120  241 1    
   240  121  122 am   BACKBONE|DICT|INTERRES
   241  121  123 2    
   242  122  242 1    
   243  122  243 1    
   244  124  125 1    
   245  124  244 1    
   246  124  245 1    
   247  125  126 1    
   248  126  246 1    
   249  126  247 1    
@<TRIPOS>SUBSTRUCTURE
     1 UNK         1 GROUP             0       ****    0 ROOT    
