@<TRIPOS>MOLECULE
3R540
247   249    1
SMALL
USER_CHARGES


@<TRIPOS>ATOM
      1 CA         -2.1184  -13.5166  -48.7508 C.3       0 UNK        -0.1800 
      2 C          -0.9334  -12.6300  -49.1071 C.2       0 UNK         0.5000 
      3 O          -1.1018  -11.4242  -49.2919 O.2       0 UNK        -0.5000 
      4 N           0.2605  -13.2250  -49.2045 N.am      1 UNK        -0.5000 
      5 CA          1.5397  -12.5414  -49.4128 C.3       1 UNK         0.1400 
      6 C6          2.6145  -13.4966  -50.0024 C.3       23 UNK        -0.0398 
      7 S7          2.8758  -15.0423  -49.0592 S.3       23 UNK        -0.2404 
      8 C8          2.3389  -16.3221  -50.2441 C.3       23 UNK        -0.0205 
      9 C9          0.8256  -16.3724  -50.4043 C.ar      23 UNK        -0.0193 
     10 C10         0.1966  -15.6416  -51.4167 C.ar      23 UNK        -0.1150 
     11 C11        -1.1930  -15.6697  -51.5547 C.ar      23 UNK        -0.0193 
     12 C12        -1.9553  -16.4669  -50.6965 C.ar      23 UNK        -0.1150 
     13 C13        -1.3385  -17.2162  -49.6906 C.ar      23 UNK        -0.0193 
     14 C14         0.0514  -17.1587  -49.5454 C.ar      23 UNK        -0.1150 
     15 C15        -2.1708  -18.0729  -48.7490 C.3       23 UNK        -0.0205 
     16 S16        -1.8946  -19.8459  -49.0468 S.3       23 UNK        -0.2404 
     17 C17        -2.8329  -20.5995  -47.6742 C.3       23 UNK        -0.0398 
     18 CA         -2.0933  -21.8351  -47.1087 C.3       11 UNK         0.1400 
     19 N          -0.9284  -21.4792  -46.2914 N.am      11 UNK        -0.5000 
     20 C           0.0011  -22.3593  -45.8937 C.2       10 UNK         0.5000 
     21 O          -0.0128  -23.5499  -46.2016 O.2       10 UNK        -0.5000 
     22 CA          1.0983  -21.8459  -44.9472 C.3       10 UNK         0.1400 
     23 CB          2.1668  -21.0542  -45.7160 C.3       10 UNK        -0.1800 
     24 N           0.5570  -21.0428  -43.8503 N.am      10 UNK        -0.5000 
     25 C          -0.2738  -21.5178  -42.9101 C.2       9 UNK         0.5000 
     26 O          -0.6350  -22.6930  -42.8504 O.2       9 UNK        -0.5000 
     27 CA         -0.8269  -20.5118  -41.8844 C.3       9 UNK         0.1400 
     28 CB          0.1931  -20.2700  -40.7630 C.3       9 UNK        -0.1800 
     29 N          -1.2189  -19.2361  -42.4856 N.am      9 UNK        -0.5000 
     30 C          -2.1834  -19.0973  -43.4078 C.2       8 UNK         0.5000 
     31 O          -2.8707  -20.0271  -43.8276 O.2       8 UNK        -0.5000 
     32 CA         -2.3713  -17.6957  -44.0131 C.3       8 UNK         0.1400 
     33 CB         -3.1488  -16.7783  -43.0580 C.3       8 UNK        -0.1800 
     34 N          -1.1022  -17.0668  -44.3716 N.am      8 UNK        -0.5000 
     35 C          -0.2121  -17.5721  -45.2375 C.2       7 UNK         0.5000 
     36 O          -0.3716  -18.6222  -45.8592 O.2       7 UNK        -0.5000 
     37 CA          1.1012  -16.7896  -45.3808 C.3       7 UNK         0.1400 
     38 CB          0.8659  -15.5023  -46.1912 C.3       7 UNK        -0.1800 
     39 N           1.6677  -16.4850  -44.0624 N.am      7 UNK        -0.5000 
     40 C           2.1566  -17.4162  -43.2259 C.2       6 UNK         0.5000 
     41 O           2.2713  -18.6033  -43.5268 O.2       6 UNK        -0.5000 
     42 CA          2.5253  -16.9778  -41.7958 C.3       6 UNK         0.1400 
     43 CB          4.0257  -16.6863  -41.6513 C.3       6 UNK        -0.1800 
     44 N           1.7486  -15.8254  -41.3450 N.am      6 UNK        -0.5000 
     45 C           0.4674  -15.8999  -40.9575 C.2       5 UNK         0.5000 
     46 O          -0.1692  -16.9522  -40.9073 O.2       5 UNK        -0.5000 
     47 CA         -0.2369  -14.5704  -40.6281 C.3       5 UNK         0.1400 
     48 CB          0.0052  -14.1763  -39.1639 C.3       5 UNK        -0.1800 
     49 N           0.1843  -13.4742  -41.5027 N.am      5 UNK        -0.5000 
     50 C           0.0147  -13.4585  -42.8314 C.2       4 UNK         0.5000 
     51 O          -0.5641  -14.3549  -43.4446 O.2       4 UNK        -0.5000 
     52 CA          0.6084  -12.2714  -43.6134 C.3       4 UNK         0.1400 
     53 CB          0.8056  -11.0029  -42.7551 C.3       4 UNK        -0.1800 
     54 N           1.8573  -12.6069  -44.3060 N.am      4 UNK        -0.5000 
     55 C           2.9984  -13.0777  -43.7742 C.2       3 UNK         0.5000 
     56 O           3.0973  -13.4571  -42.6069 O.2       3 UNK        -0.5000 
     57 CA          4.2565  -13.1025  -44.6768 C.3       3 UNK         0.1400 
     58 CB          4.6327  -14.5290  -45.1091 C.3       3 UNK        -0.1800 
     59 N           4.1401  -12.2660  -45.8725 N.am      3 UNK        -0.5000 
     60 C           4.0827  -10.9270  -45.8733 C.2       2 UNK         0.5000 
     61 O           4.2653  -10.2401  -44.8675 O.2       2 UNK        -0.5000 
     62 CA          3.7347  -10.2295  -47.2071 C.3       2 UNK         0.1400 
     63 CB          4.9821   -9.5506  -47.7946 C.3       2 UNK        -0.1800 
     64 N           3.1327  -11.0797  -48.2447 N.am      2 UNK        -0.5000 
     65 C           2.0156  -11.8146  -48.1313 C.2       1 UNK         0.5000 
     66 O           1.3914  -11.9337  -47.0731 O.2       1 UNK        -0.5000 
     67 C          -3.0545  -22.7901  -46.3690 C.2       11 UNK         0.5000 
     68 O          -3.5409  -23.7388  -46.9834 O.2       11 UNK        -0.5000 
     69 N          -3.2777  -22.5735  -45.0649 N.am      12 UNK        -0.5000 
     70 CA         -4.0819  -23.4571  -44.2157 C.3       12 UNK         0.1400 
     71 CB         -4.2814  -22.8163  -42.8342 C.3       12 UNK        -0.1800 
     72 C          -3.4844  -24.8714  -44.0823 C.2       12 UNK         0.5000 
     73 O          -4.2322  -25.8491  -44.1216 O.2       12 UNK        -0.5000 
     74 N          -2.1529  -24.9553  -43.9552 N.am      13 UNK        -0.5000 
     75 CA         -1.4025  -26.2100  -43.9208 C.3       13 UNK         0.1400 
     76 CB          0.0262  -25.9388  -43.4249 C.3       13 UNK        -0.1800 
     77 C          -1.3816  -26.9264  -45.2842 C.2       13 UNK         0.5000 
     78 O          -1.5339  -28.1479  -45.3272 O.2       13 UNK        -0.5000 
     79 N          -1.1933  -26.1598  -46.3679 N.am      14 UNK        -0.5000 
     80 CA         -1.1518  -26.6563  -47.7442 C.3       14 UNK         0.1400 
     81 CB         -0.6001  -25.5581  -48.6631 C.3       14 UNK        -0.1800 
     82 C          -2.5161  -27.1574  -48.2522 C.2       14 UNK         0.5000 
     83 O          -2.5524  -28.1271  -49.0112 O.2       14 UNK        -0.5000 
     84 N          -3.6033  -26.5021  -47.8179 N.am      15 UNK        -0.5000 
     85 CA         -5.0080  -26.8257  -48.0790 C.3       15 UNK         0.1400 
     86 CB         -5.4109  -28.1091  -47.3207 C.3       15 UNK        -0.1800 
     87 C          -5.3224  -26.8709  -49.5876 C.2       15 UNK         0.5000 
     88 O          -5.4775  -25.8175  -50.2034 O.2       15 UNK        -0.5000 
     89 N          -5.3789  -28.0752  -50.1708 N.am      16 UNK        -0.5000 
     90 CA         -5.5707  -28.3005  -51.6055 C.3       16 UNK         0.1400 
     91 CB         -5.8206  -29.7974  -51.8443 C.3       16 UNK        -0.1800 
     92 C          -4.3934  -27.8053  -52.4723 C.2       16 UNK         0.5000 
     93 O          -4.5985  -27.5006  -53.6475 O.2       16 UNK        -0.5000 
     94 N          -3.1925  -27.7250  -51.8831 N.am      17 UNK        -0.5000 
     95 CA         -1.9660  -27.2567  -52.5313 C.3       17 UNK         0.1400 
     96 CB         -0.7932  -28.1197  -52.0332 C.3       17 UNK        -0.1800 
     97 C          -1.6947  -25.7549  -52.2968 C.2       17 UNK         0.5000 
     98 O          -0.6253  -25.2755  -52.6774 O.2       17 UNK        -0.5000 
     99 N          -2.6308  -25.0389  -51.6557 N.am      18 UNK        -0.5000 
    100 CA        -2.5400  -23.6059  -51.3648 C.3       18 UNK         0.1400 
    101 CB        -3.6999  -23.2179  -50.4385 C.3       18 UNK        -0.1800 
    102 C         -2.5665  -22.7244  -52.6275 C.2       18 UNK         0.5000 
    103 O         -2.9885  -23.1712  -53.6983 O.2       18 UNK        -0.5000 
    104 N         -2.1627  -21.4585  -52.4624 N.am      19 UNK        -0.5000 
    105 CA        -2.1573  -20.4195  -53.4936 C.3       19 UNK         0.1400 
    106 CB        -1.1842  -19.3094  -53.0641 C.3       19 UNK        -0.1800 
    107 C         -3.5764  -19.8869  -53.7931 C.2       19 UNK         0.5000 
    108 O         -3.8518  -18.6961  -53.6350 O.2       19 UNK        -0.5000 
    109 N         -4.4630  -20.7853  -54.2394 N.am      20 UNK        -0.5000 
    110 CA        -5.8704  -20.5308  -54.5674 C.3       20 UNK         0.1400 
    111 CB        -6.5516  -21.8723  -54.8782 C.3       20 UNK        -0.1800 
    112 C         -6.0873  -19.5296  -55.7219 C.2       20 UNK         0.5000 
    113 O         -7.1864  -18.9916  -55.8599 O.2       20 UNK        -0.5000 
    114 N         -5.0349  -19.2805  -56.5131 N.am      21 UNK        -0.5000 
    115 CA        -4.9781  -18.2593  -57.5581 C.3       21 UNK         0.1400 
    116 CB        -3.7154  -18.4914  -58.4027 C.3       21 UNK        -0.1800 
    117 C         -5.0036  -16.8135  -57.0173 C.2       21 UNK         0.5000 
    118 O         -5.3352  -15.9034  -57.7789 O.2       21 UNK        -0.5000 
    119 N         -4.6590  -16.6191  -55.7371 N.am      22 UNK        -0.5000 
    120 CA        -4.6589  -15.3140  -55.0579 C.3       22 UNK         0.1400 
    121 C         -5.3166  -15.3340  -53.6495 C.2       22 UNK         0.5000 
    122 N         -5.3845  -16.4611  -52.9519 N.am      22 UNK        -0.7600 
    123 O         -5.7956  -14.3026  -53.1861 O.2       22 UNK        -0.5000 
    124 C124       -3.2517  -14.6603  -55.0448 C.3       23 UNK        -0.0398 
    125 S125       -1.9759  -15.6664  -54.2065 S.3       23 UNK        -0.2404 
    126 C126       -1.8753  -14.8116  -52.6059 C.3       23 UNK        -0.0205 
    127 H127       -2.6877  -13.0736  -47.9338 H         1 UNK         0.0600 
    128 H128       -2.7792  -13.6258  -49.6106 H         1 UNK         0.0600 
    129 H129       -1.7969  -14.5096  -48.4357 H         1 UNK         0.0600 
    130 H130        0.3339  -14.2199  -49.0461 H         1 UNK         0.3000 
    131 H131        1.3721  -11.7573  -50.1542 H         1 UNK         0.0600 
    132 H132        3.5784  -12.9956  -50.0989 H         1 UNK         0.0800 
    133 H133        2.3395  -13.7462  -51.0262 H         1 UNK         0.0800 
    134 H134        2.8203  -16.1567  -51.2092 H         1 UNK         0.0800 
    135 H135        2.6976  -17.2910  -49.8934 H         1 UNK         0.0800 
    136 H136        0.7832  -15.0358  -52.0920 H         1 UNK         0.1150 
    137 H137       -3.0298  -16.4981  -50.8110 H         1 UNK         0.1150 
    138 H138        0.5285  -17.7341  -48.7639 H         1 UNK         0.1150 
    139 H139       -1.9189  -17.8192  -47.7209 H         1 UNK         0.0800 
    140 H140       -3.2334  -17.8556  -48.8667 H         1 UNK         0.0800 
    141 H141       -3.0088  -19.8671  -46.8843 H         1 UNK         0.0800 
    142 H142       -3.8154  -20.8696  -48.0654 H         1 UNK         0.0800 
    143 H143       -1.7163  -22.4055  -47.9605 H         1 UNK         0.0600 
    144 H144       -0.8283  -20.5023  -46.0274 H         1 UNK         0.3000 
    145 H145        1.5847  -22.7186  -44.5065 H         1 UNK         0.0600 
    146 H146        2.9964  -20.7795  -45.0648 H         1 UNK         0.0600 
    147 H147        2.5789  -21.6478  -46.5329 H         1 UNK         0.0600 
    148 H148        1.7640  -20.1385  -46.1481 H         1 UNK         0.0600 
    149 H149        0.8394  -20.0693  -43.8205 H         1 UNK         0.3000 
    150 H150       -1.7206  -20.9513  -41.4372 H         1 UNK         0.0600 
    151 H151        0.4524  -21.2050  -40.2649 H         1 UNK         0.0600 
    152 H152       -0.2045  -19.5967  -40.0035 H         1 UNK         0.0600 
    153 H153        1.1163  -19.8381  -41.1478 H         1 UNK         0.0600 
    154 H154       -0.7341  -18.4081  -42.1542 H         1 UNK         0.3000 
    155 H155       -2.9536  -17.8057  -44.9302 H         1 UNK         0.0600 
    156 H156       -4.1153  -17.2130  -42.8001 H         1 UNK         0.0600 
    157 H157       -3.3391  -15.8065  -43.5140 H         1 UNK         0.0600 
    158 H158       -2.6056  -16.6088  -42.1282 H         1 UNK         0.0600 
    159 H159       -0.8938  -16.1751  -43.9298 H         1 UNK         0.3000 
    160 H160        1.8160  -17.4100  -45.9257 H         1 UNK         0.0600 
    161 H161        0.0659  -14.8860  -45.7867 H         1 UNK         0.0600 
    162 H162        0.5785  -15.7442  -47.2127 H         1 UNK         0.0600 
    163 H163        1.7567  -14.8825  -46.2466 H         1 UNK         0.0600 
    164 H164        1.5399  -15.5452  -43.7173 H         1 UNK         0.3000 
    165 H165        2.3016  -17.8196  -41.1382 H         1 UNK         0.0600 
    166 H166        4.3124  -15.7602  -42.1440 H         1 UNK         0.0600 
    167 H167        4.3027  -16.5960  -40.6010 H         1 UNK         0.0600 
    168 H168        4.6274  -17.4905  -42.0769 H         1 UNK         0.0600 
    169 H169        2.1900  -14.9154  -41.4289 H         1 UNK         0.3000 
    170 H170       -1.3092  -14.7198  -40.7704 H         1 UNK         0.0600 
    171 H171       -0.3172  -14.9698  -38.4883 H         1 UNK         0.0600 
    172 H172        1.0610  -13.9858  -38.9670 H         1 UNK         0.0600 
    173 H173       -0.5537  -13.2786  -38.8993 H         1 UNK         0.0600 
    174 H174        0.6964  -12.7175  -41.0733 H         1 UNK         0.3000 
    175 H175       -0.1162  -12.0302  -44.3927 H         1 UNK         0.0600 
    176 H176        1.0973  -10.1577  -43.3789 H         1 UNK         0.0600 
    177 H177       -0.1180  -10.7228  -42.2470 H         1 UNK         0.0600 
    178 H178        1.5794  -11.1301  -41.9973 H         1 UNK         0.0600 
    179 H179        1.8559  -12.3742  -45.2966 H         1 UNK         0.3000 
    180 H180        5.0786  -12.7121  -44.0734 H         1 UNK         0.0600 
    181 H181        5.6017  -14.5393  -45.6082 H         1 UNK         0.0600 
    182 H182        4.7091  -15.1993  -44.2557 H         1 UNK         0.0600 
    183 H183        3.9076  -14.9581  -45.7974 H         1 UNK         0.0600 
    184 H184        3.9772  -12.7459  -46.7452 H         1 UNK         0.3000 
    185 H185        3.0056   -9.4522  -46.9701 H         1 UNK         0.0600 
    186 H186        4.7320   -8.9532  -48.6716 H         1 UNK         0.0600 
    187 H187        5.4430   -8.8786  -47.0692 H         1 UNK         0.0600 
    188 H188        5.7356  -10.2824  -48.0885 H         1 UNK         0.0600 
    189 H189        3.5883  -11.0388  -49.1447 H         1 UNK         0.3000 
    190 H190       -2.8920  -21.7431  -44.6223 H         1 UNK         0.3000 
    191 H191       -5.0637  -23.5588  -44.6828 H         1 UNK         0.0600 
    192 H192       -4.8961  -23.4506  -42.1944 H         1 UNK         0.0600 
    193 H193       -4.7844  -21.8527  -42.9156 H         1 UNK         0.0600 
    194 H194       -3.3321  -22.6567  -42.3232 H         1 UNK         0.0600 
    195 H195       -1.6140  -24.0990  -43.8672 H         1 UNK         0.3000 
    196 H196       -1.8870  -26.8752  -43.2029 H         1 UNK         0.0600 
    197 H197        0.6051  -26.8618  -43.3755 H         1 UNK         0.0600 
    198 H198        0.0194  -25.5044  -42.4251 H         1 UNK         0.0600 
    199 H199        0.5582  -25.2509  -44.0829 H         1 UNK         0.0600 
    200 H200       -1.0036  -25.1692  -46.2388 H         1 UNK         0.3000 
    201 H201       -0.4591  -27.4998  -47.7746 H         1 UNK         0.0600 
    202 H202        0.3833  -25.2236  -48.3330 H         1 UNK         0.0600 
    203 H203       -1.2590  -24.6904  -48.6903 H         1 UNK         0.0600 
    204 H204       -0.4863  -25.9226  -49.6825 H         1 UNK         0.0600 
    205 H205       -3.4573  -25.6507  -47.2819 H         1 UNK         0.3000 
    206 H206       -5.5936  -26.0024  -47.6673 H         1 UNK         0.0600 
    207 H207       -5.2895  -27.9737  -46.2456 H         1 UNK         0.0600 
    208 H208       -6.4581  -28.3578  -47.4975 H         1 UNK         0.0600 
    209 H209       -4.8093  -28.9712  -47.6102 H         1 UNK         0.0600 
    210 H210       -5.1988  -28.8906  -49.6031 H         1 UNK         0.3000 
    211 H211       -6.4611  -27.7506  -51.9173 H         1 UNK         0.0600 
    212 H212       -4.9683  -30.4019  -51.5314 H         1 UNK         0.0600 
    213 H213       -5.9970  -30.0006  -52.9014 H         1 UNK         0.0600 
    214 H214       -6.6979  -30.1435  -51.2975 H         1 UNK         0.0600 
    215 H215       -3.1096  -27.9797  -50.9025 H         1 UNK         0.3000 
    216 H216       -2.0440  -27.3980  -53.6111 H         1 UNK         0.0600 
    217 H217        0.1365  -27.8516  -52.5365 H         1 UNK         0.0600 
    218 H218       -0.9721  -29.1767  -52.2307 H         1 UNK         0.0600 
    219 H219       -0.6312  -28.0039  -50.9616 H         1 UNK         0.0600 
    220 H220       -3.4972  -25.4931  -51.3990 H         1 UNK         0.3000 
    221 H221       -1.5978  -23.4268  -50.8429 H         1 UNK         0.0600 
    222 H222       -4.6646  -23.3370  -50.9334 H         1 UNK         0.0600 
    223 H223       -3.7073  -23.8345  -49.5416 H         1 UNK         0.0600 
    224 H224       -3.6253  -22.1788  -50.1205 H         1 UNK         0.0600 
    225 H225       -1.8801  -21.1552  -51.5409 H         1 UNK         0.3000 
    226 H226       -1.7743  -20.8519  -54.4202 H         1 UNK         0.0600 
    227 H227       -1.1122  -18.5338  -53.8268 H         1 UNK         0.0600 
    228 H228       -1.5064  -18.8327  -52.1391 H         1 UNK         0.0600 
    229 H229       -0.1793  -19.7005  -52.9054 H         1 UNK         0.0600 
    230 H230       -4.1464  -21.7487  -54.3075 H         1 UNK         0.3000 
    231 H231       -6.3423  -20.1036  -53.6804 H         1 UNK         0.0600 
    232 H232       -7.6124  -21.7342  -55.0916 H         1 UNK         0.0600 
    233 H233       -6.4777  -22.5573  -54.0332 H         1 UNK         0.0600 
    234 H234       -6.1019  -22.3587  -55.7447 H         1 UNK         0.0600 
    235 H235       -4.1799  -19.7825  -56.3268 H         1 UNK         0.3000 
    236 H236       -5.8509  -18.3841  -58.2023 H         1 UNK         0.0600 
    237 H237       -2.8084  -18.3910  -57.8051 H         1 UNK         0.0600 
    238 H238       -3.7162  -19.4855  -58.8503 H         1 UNK         0.0600 
    239 H239       -3.6523  -17.7698  -59.2184 H         1 UNK         0.0600 
    240 H240       -4.3882  -17.4117  -55.1675 H         1 UNK         0.3000 
    241 H241       -5.3016  -14.6410  -55.6286 H         1 UNK         0.0600 
    242 H242       -5.8350  -16.4485  -52.0518 H         1 UNK         0.3800 
    243 H243       -4.8890  -17.2996  -53.2480 H         1 UNK         0.3800 
    244 H244       -3.2937  -13.6652  -54.5986 H         1 UNK         0.0800 
    245 H245       -2.9219  -14.5022  -56.0722 H         1 UNK         0.0800 
    246 H246       -1.3355  -13.8718  -52.7313 H         1 UNK         0.0800 
    247 H247       -2.8751  -14.5448  -52.2616 H         1 UNK         0.0800 
@<TRIPOS>BOND
     1    1    2 1    
     2    1  127 1    
     3    1  128 1    
     4    1  129 1    
     5    2    3 2    
     6    2    4 am   BACKBONE|DICT|INTERRES
     7    4    5 1    
     8    4  130 1    
     9    5    6 1    
    10    5   65 1    
    11    5  131 1    
    12    6    7 1    
    13    6  132 1    
    14    6  133 1    
    15    7    8 1    
    16    8    9 1    
    17    8  134 1    
    18    8  135 1    
    19    9   10 ar   
    20    9   14 ar   
    21   10   11 ar   
    22   10  136 1    
    23   11   12 ar   
    24   11  126 1    
    25   12   13 ar   
    26   12  137 1    
    27   13   14 ar   
    28   13   15 1    
    29   14  138 1    
    30   15   16 1    
    31   15  139 1    
    32   15  140 1    
    33   16   17 1    
    34   17   18 1    
    35   17  141 1    
    36   17  142 1    
    37   18   19 1    
    38   18   67 1    
    39   18  143 1    
    40   19   20 am   BACKBONE|DICT|INTERRES
    41   19  144 1    
    42   20   21 2    
    43   20   22 1    
    44   22   23 1    
    45   22   24 1    
    46   22  145 1    
    47   23  146 1    
    48   23  147 1    
    49   23  148 1    
    50   24   25 am   BACKBONE|DICT|INTERRES
    51   24  149 1    
    52   25   26 2    
    53   25   27 1    
    54   27   28 1    
    55   27   29 1    
    56   27  150 1    
    57   28  151 1    
    58   28  152 1    
    59   28  153 1    
    60   29   30 am   BACKBONE|DICT|INTERRES
    61   29  154 1    
    62   30   31 2    
    63   30   32 1    
    64   32   33 1    
    65   32   34 1    
    66   32  155 1    
    67   33  156 1    
    68   33  157 1    
    69   33  158 1    
    70   34   35 am   BACKBONE|DICT|INTERRES
    71   34  159 1    
    72   35   36 2    
    73   35   37 1    
    74   37   38 1    
    75   37   39 1    
    76   37  160 1    
    77   38  161 1    
    78   38  162 1    
    79   38  163 1    
    80   39   40 am   BACKBONE|DICT|INTERRES
    81   39  164 1    
    82   40   41 2    
    83   40   42 1    
    84   42   43 1    
    85   42   44 1    
    86   42  165 1    
    87   43  166 1    
    88   43  167 1    
    89   43  168 1    
    90   44   45 am   BACKBONE|DICT|INTERRES
    91   44  169 1    
    92   45   46 2    
    93   45   47 1    
    94   47   48 1    
    95   47   49 1    
    96   47  170 1    
    97   48  171 1    
    98   48  172 1    
    99   48  173 1    
   100   49   50 am   BACKBONE|DICT|INTERRES
   101   49  174 1    
   102   50   51 2    
   103   50   52 1    
   104   52   53 1    
   105   52   54 1    
   106   52  175 1    
   107   53  176 1    
   108   53  177 1    
   109   53  178 1    
   110   54   55 am   BACKBONE|DICT|INTERRES
   111   54  179 1    
   112   55   56 2    
   113   55   57 1    
   114   57   58 1    
   115   57   59 1    
   116   57  180 1    
   117   58  181 1    
   118   58  182 1    
   119   58  183 1    
   120   59   60 am   BACKBONE|DICT|INTERRES
   121   59  184 1    
   122   60   61 2    
   123   60   62 1    
   124   62   63 1    
   125   62   64 1    
   126   62  185 1    
   127   63  186 1    
   128   63  187 1    
   129   63  188 1    
   130   64   65 am   BACKBONE|DICT|INTERRES
   131   64  189 1    
   132   65   66 2    
   133   67   68 2    
   134   67   69 am   BACKBONE|DICT|INTERRES
   135   69   70 1    
   136   69  190 1    
   137   70   71 1    
   138   70   72 1    
   139   70  191 1    
   140   71  192 1    
   141   71  193 1    
   142   71  194 1    
   143   72   73 2    
   144   72   74 am   BACKBONE|DICT|INTERRES
   145   74   75 1    
   146   74  195 1    
   147   75   76 1    
   148   75   77 1    
   149   75  196 1    
   150   76  197 1    
   151   76  198 1    
   152   76  199 1    
   153   77   78 2    
   154   77   79 am   BACKBONE|DICT|INTERRES
   155   79   80 1    
   156   79  200 1    
   157   80   81 1    
   158   80   82 1    
   159   80  201 1    
   160   81  202 1    
   161   81  203 1    
   162   81  204 1    
   163   82   83 2    
   164   82   84 am   BACKBONE|DICT|INTERRES
   165   84   85 1    
   166   84  205 1    
   167   85   86 1    
   168   85   87 1    
   169   85  206 1    
   170   86  207 1    
   171   86  208 1    
   172   86  209 1    
   173   87   88 2    
   174   87   89 am   BACKBONE|DICT|INTERRES
   175   89   90 1    
   176   89  210 1    
   177   90   91 1    
   178   90   92 1    
   179   90  211 1    
   180   91  212 1    
   181   91  213 1    
   182   91  214 1    
   183   92   93 2    
   184   92   94 am   BACKBONE|DICT|INTERRES
   185   94   95 1    
   186   94  215 1    
   187   95   96 1    
   188   95   97 1    
   189   95  216 1    
   190   96  217 1    
   191   96  218 1    
   192   96  219 1    
   193   97   98 2    
   194   97   99 am   BACKBONE|DICT|INTERRES
   195   99  100 1    
   196   99  220 1    
   197  100  101 1    
   198  100  102 1    
   199  100  221 1    
   200  101  222 1    
   201  101  223 1    
   202  101  224 1    
   203  102  103 2    
   204  102  104 am   BACKBONE|DICT|INTERRES
   205  104  105 1    
   206  104  225 1    
   207  105  106 1    
   208  105  107 1    
   209  105  226 1    
   210  106  227 1    
   211  106  228 1    
   212  106  229 1    
   213  107  108 2    
   214  107  109 am   BACKBONE|DICT|INTERRES
   215  109  110 1    
   216  109  230 1    
   217  110  111 1    
   218  110  112 1    
   219  110  231 1    
   220  111  232 1    
   221  111  233 1    
   222  111  234 1    
   223  112  113 2    
   224  112  114 am   BACKBONE|DICT|INTERRES
   225  114  115 1    
   226  114  235 1    
   227  115  116 1    
   228  115  117 1    
   229  115  236 1    
   230  116  237 1    
   231  116  238 1    
   232  116  239 1    
   233  117  118 2    
   234  117  119 am   BACKBONE|DICT|INTERRES
   235  119  120 1    
   236  119  240 1    
   237  120  121 1    
   238  120  124 1    
   239  120  241 1    
   240  121  122 am   BACKBONE|DICT|INTERRES
   241  121  123 2    
   242  122  242 1    
   243  122  243 1    
   244  124  125 1    
   245  124  244 1    
   246  124  245 1    
   247  125  126 1    
   248  126  246 1    
   249  126  247 1    
@<TRIPOS>SUBSTRUCTURE
     1 UNK         1 GROUP             0       ****    0 ROOT    
