@<TRIPOS>MOLECULE
3R540
247   249    1
SMALL
USER_CHARGES


@<TRIPOS>ATOM
      1 CA         -5.5667  -13.9315  -48.5237 C.3       0 UNK        -0.1800 
      2 C          -4.5066  -13.2642  -47.6594 C.2       0 UNK         0.5000 
      3 O          -4.7624  -12.2062  -47.0838 O.2       0 UNK        -0.5000 
      4 N          -3.3144  -13.8667  -47.5849 N.am      1 UNK        -0.5000 
      5 CA         -2.1695  -13.3870  -46.8084 C.3       1 UNK         0.1400 
      6 C6         -0.8683  -14.1559  -47.1386 C.3       23 UNK        -0.0398 
      7 S7         -0.3650  -14.0240  -48.8879 S.3       23 UNK        -0.2404 
      8 C8         -0.3311  -15.7716  -49.4031 C.3       23 UNK        -0.0205 
      9 C9         -1.6987  -16.2460  -49.8653 C.ar      23 UNK        -0.0193 
     10 C10        -2.0438  -16.1623  -51.2138 C.ar      23 UNK        -0.1150 
     11 C11        -3.2893  -16.6102  -51.6563 C.ar      23 UNK        -0.0193 
     12 C12        -4.2061  -17.1169  -50.7299 C.ar      23 UNK        -0.1150 
     13 C13        -3.8867  -17.1917  -49.3683 C.ar      23 UNK        -0.0193 
     14 C14        -2.6156  -16.7725  -48.9535 C.ar      23 UNK        -0.1150 
     15 C15        -4.9474  -17.7237  -48.3988 C.3       23 UNK        -0.0205 
     16 S16        -4.8210  -17.1527  -46.6585 S.3       23 UNK        -0.2404 
     17 C17        -3.4632  -18.0740  -45.8369 C.3       23 UNK        -0.0398 
     18 CA         -3.2151  -19.5392  -46.2915 C.3       11 UNK         0.1400 
     19 N          -1.7947  -19.8928  -46.2787 N.am      11 UNK        -0.5000 
     20 C          -1.2851  -21.0256  -46.7831 C.2       10 UNK         0.5000 
     21 O          -1.9556  -21.8716  -47.3768 O.2       10 UNK        -0.5000 
     22 CA          0.2130  -21.2793  -46.5258 C.3       10 UNK         0.1400 
     23 CB          1.0798  -20.5854  -47.5869 C.3       10 UNK        -0.1800 
     24 N           0.6320  -20.8599  -45.1854 N.am      10 UNK        -0.5000 
     25 C           0.1720  -21.4067  -44.0501 C.2       9 UNK         0.5000 
     26 O          -0.5867  -22.3744  -44.0220 O.2       9 UNK        -0.5000 
     27 CA          0.5710  -20.7286  -42.7271 C.3       9 UNK         0.1400 
     28 CB          1.9501  -21.2128  -42.2568 C.3       9 UNK        -0.1800 
     29 N           0.5511  -19.2670  -42.8138 N.am      9 UNK        -0.5000 
     30 C          -0.5496  -18.5354  -43.0440 C.2       8 UNK         0.5000 
     31 O          -1.6766  -19.0182  -43.1448 O.2       8 UNK        -0.5000 
     32 CA         -0.3570  -17.0240  -43.2635 C.3       8 UNK         0.1400 
     33 CB         -0.2564  -16.2745  -41.9278 C.3       8 UNK        -0.1800 
     34 N           0.8194  -16.7319  -44.0792 N.am      8 UNK        -0.5000 
     35 C           0.9669  -17.0840  -45.3625 C.2       7 UNK         0.5000 
     36 O           0.0817  -17.6215  -46.0265 O.2       7 UNK        -0.5000 
     37 CA          2.3533  -16.8477  -45.9877 C.3       7 UNK         0.1400 
     38 CB          2.5014  -15.4113  -46.5071 C.3       7 UNK        -0.1800 
     39 N           3.4259  -17.1245  -45.0340 N.am      7 UNK        -0.5000 
     40 C           3.7993  -18.3524  -44.6526 C.2       6 UNK         0.5000 
     41 O           3.2895  -19.3848  -45.0881 O.2       6 UNK        -0.5000 
     42 CA          4.9067  -18.4351  -43.5844 C.3       6 UNK         0.1400 
     43 CB          6.2942  -18.3690  -44.2397 C.3       6 UNK        -0.1800 
     44 N           4.7990  -17.3817  -42.5714 N.am      6 UNK        -0.5000 
     45 C           3.8168  -17.3133  -41.6624 C.2       5 UNK         0.5000 
     46 O           2.9141  -18.1437  -41.5732 O.2       5 UNK        -0.5000 
     47 CA          3.8087  -16.0875  -40.7280 C.3       5 UNK         0.1400 
     48 CB          4.7275  -16.3261  -39.5206 C.3       5 UNK        -0.1800 
     49 N           4.1756  -14.8221  -41.3755 N.am      5 UNK        -0.5000 
     50 C           3.5828  -14.3101  -42.4622 C.2       4 UNK         0.5000 
     51 O           2.6999  -14.8952  -43.0896 O.2       4 UNK        -0.5000 
     52 CA          4.0539  -12.9159  -42.9212 C.3       4 UNK         0.1400 
     53 CB          5.5404  -12.9512  -43.3153 C.3       4 UNK        -0.1800 
     54 N           3.2958  -12.4155  -44.0741 N.am      4 UNK        -0.5000 
     55 C           2.0192  -12.0080  -44.1357 C.2       3 UNK         0.5000 
     56 O           1.5038  -11.7098  -45.2161 O.2       3 UNK        -0.5000 
     57 CA          1.1705  -11.8691  -42.8540 C.3       3 UNK         0.1400 
     58 CB          1.4576  -10.5386  -42.1329 C.3       3 UNK        -0.1800 
     59 N          -0.2302  -11.9038  -43.2558 N.am      3 UNK        -0.5000 
     60 C          -1.2823  -12.2281  -42.4970 C.2       2 UNK         0.5000 
     61 O          -1.1984  -12.5386  -41.3086 O.2       2 UNK        -0.5000 
     62 CA         -2.6647  -12.1926  -43.1807 C.3       2 UNK         0.1400 
     63 CB         -3.3992  -10.8882  -42.8343 C.3       2 UNK        -0.1800 
     64 N          -2.5662  -12.3075  -44.6389 N.am      2 UNK        -0.5000 
     65 C          -2.4508  -13.4691  -45.2941 C.2       1 UNK         0.5000 
     66 O          -2.5291  -14.5716  -44.7504 O.2       1 UNK        -0.5000 
     67 C          -4.0580  -20.5285  -45.4587 C.2       11 UNK         0.5000 
     68 O          -5.0963  -20.9915  -45.9298 O.2       11 UNK        -0.5000 
     69 N          -3.5743  -20.8520  -44.2501 N.am      12 UNK        -0.5000 
     70 CA         -4.1919  -21.7910  -43.3124 C.3       12 UNK         0.1400 
     71 CB         -3.4934  -21.6826  -41.9488 C.3       12 UNK        -0.1800 
     72 C          -4.1870  -23.2475  -43.8123 C.2       12 UNK         0.5000 
     73 O          -5.1497  -23.9722  -43.5575 O.2       12 UNK        -0.5000 
     74 N          -3.1257  -23.6447  -44.5318 N.am      13 UNK        -0.5000 
     75 CA         -3.0115  -24.9384  -45.2137 C.3       13 UNK         0.1400 
     76 CB         -1.5919  -25.1018  -45.7759 C.3       13 UNK        -0.1800 
     77 C          -4.0606  -25.1152  -46.3285 C.2       13 UNK         0.5000 
     78 O          -4.5194  -26.2343  -46.5583 O.2       13 UNK        -0.5000 
     79 N          -4.4390  -23.9974  -46.9649 N.am      14 UNK        -0.5000 
     80 CA         -5.5874  -23.7656  -47.8479 C.3       14 UNK         0.1400 
     81 CB         -6.9080  -24.0255  -47.1004 C.3       14 UNK        -0.1800 
     82 C          -5.5779  -24.4951  -49.2032 C.2       14 UNK         0.5000 
     83 O          -6.0762  -23.9210  -50.1711 O.2       14 UNK        -0.5000 
     84 N          -5.0212  -25.7121  -49.2651 N.am      15 UNK        -0.5000 
     85 CA         -4.9270  -26.5990  -50.4298 C.3       15 UNK         0.1400 
     86 CB         -4.2349  -27.9019  -49.9961 C.3       15 UNK        -0.1800 
     87 C          -4.1962  -25.9363  -51.6129 C.2       15 UNK         0.5000 
     88 O          -2.9655  -25.9823  -51.6824 O.2       15 UNK        -0.5000 
     89 N          -4.9699  -25.2467  -52.4645 N.am      16 UNK        -0.5000 
     90 CA         -4.5228  -24.3341  -53.5233 C.3       16 UNK         0.1400 
     91 CB         -3.9038  -25.1327  -54.6888 C.3       16 UNK        -0.1800 
     92 C          -3.6026  -23.2105  -52.9907 C.2       16 UNK         0.5000 
     93 O          -2.6714  -22.8025  -53.6849 O.2       16 UNK        -0.5000 
     94 N          -3.8543  -22.7742  -51.7448 N.am      17 UNK        -0.5000 
     95 CA         -3.0257  -21.8736  -50.9319 C.3       17 UNK         0.1400 
     96 CB         -3.1151  -20.4299  -51.4618 C.3       17 UNK        -0.1800 
     97 C          -1.5765  -22.3889  -50.7734 C.2       17 UNK         0.5000 
     98 O          -0.6218  -21.6358  -50.9652 O.2       17 UNK        -0.5000 
     99 N          -1.4598  -23.6900  -50.4648 N.am      18 UNK        -0.5000 
    100 CA        -0.2321  -24.4871  -50.3808 C.3       18 UNK         0.1400 
    101 CB         0.6921  -23.9898  -49.2525 C.3       18 UNK        -0.1800 
    102 C          0.4709  -24.6008  -51.7477 C.2       18 UNK         0.5000 
    103 O          1.6676  -24.3293  -51.8612 O.2       18 UNK        -0.5000 
    104 N         -0.3097  -25.0049  -52.7607 N.am      19 UNK        -0.5000 
    105 CA         0.0914  -25.2285  -54.1559 C.3       19 UNK         0.1400 
    106 CB         1.0870  -26.4033  -54.2566 C.3       19 UNK        -0.1800 
    107 C          0.5816  -23.9632  -54.8962 C.2       19 UNK         0.5000 
    108 O          1.3288  -24.0762  -55.8699 O.2       19 UNK        -0.5000 
    109 N          0.1324  -22.7824  -54.4519 N.am      20 UNK        -0.5000 
    110 CA         0.3558  -21.5031  -55.1271 C.3       20 UNK         0.1400 
    111 CB         0.1967  -20.3627  -54.1121 C.3       20 UNK        -0.1800 
    112 C         -0.6025  -21.3068  -56.3179 C.2       20 UNK         0.5000 
    113 O         -0.2345  -20.6408  -57.2859 O.2       20 UNK        -0.5000 
    114 N         -1.8043  -21.8982  -56.2217 N.am      21 UNK        -0.5000 
    115 CA        -2.8851  -21.9168  -57.2157 C.3       21 UNK         0.1400 
    116 CB        -2.4387  -22.6398  -58.5033 C.3       21 UNK        -0.1800 
    117 C         -3.5177  -20.5348  -57.4870 C.2       21 UNK         0.5000 
    118 O         -4.1242  -20.3316  -58.5402 O.2       21 UNK        -0.5000 
    119 N         -3.3890  -19.6179  -56.5219 N.am      22 UNK        -0.5000 
    120 CA        -3.9588  -18.2617  -56.5479 C.3       22 UNK         0.1400 
    121 C         -5.4428  -18.1676  -56.0837 C.2       22 UNK         0.5000 
    122 N         -6.0650  -19.2411  -55.6116 N.am      22 UNK        -0.7600 
    123 O         -6.0472  -17.1020  -56.1686 O.2       22 UNK        -0.5000 
    124 C124       -3.0459  -17.2555  -55.8020 C.3       23 UNK        -0.0398 
    125 S125       -2.6524  -17.7428  -54.0859 S.3       23 UNK        -0.2404 
    126 C126       -3.6294  -16.5373  -53.1360 C.3       23 UNK        -0.0205 
    127 H127       -6.2596  -14.4963  -47.9001 H         1 UNK         0.0600 
    128 H128       -5.1209  -14.6121  -49.2484 H         1 UNK         0.0600 
    129 H129       -6.1340  -13.1816  -49.0751 H         1 UNK         0.0600 
    130 H130       -3.1697  -14.7336  -48.0831 H         1 UNK         0.3000 
    131 H131       -2.0090  -12.3399  -47.0747 H         1 UNK         0.0600 
    132 H132       -0.0443  -13.7646  -46.5391 H         1 UNK         0.0800 
    133 H133       -0.9662  -15.2058  -46.8606 H         1 UNK         0.0800 
    134 H134        0.0393  -16.4058  -48.5964 H         1 UNK         0.0800 
    135 H135        0.3877  -15.8778  -50.2169 H         1 UNK         0.0800 
    136 H136       -1.3362  -15.7620  -51.9264 H         1 UNK         0.1150 
    137 H137       -5.1751  -17.4533  -51.0712 H         1 UNK         0.1150 
    138 H138       -2.3231  -16.8340  -47.9218 H         1 UNK         0.1150 
    139 H139       -5.9151  -17.3593  -48.7472 H         1 UNK         0.0800 
    140 H140       -5.0275  -18.8065  -48.4728 H         1 UNK         0.0800 
    141 H141       -3.6517  -18.0261  -44.7627 H         1 UNK         0.0800 
    142 H142       -2.5577  -17.4811  -45.9487 H         1 UNK         0.0800 
    143 H143       -3.5053  -19.6627  -47.3304 H         1 UNK         0.0600 
    144 H144       -1.1585  -19.2228  -45.8599 H         1 UNK         0.3000 
    145 H145        0.3822  -22.3544  -46.5997 H         1 UNK         0.0600 
    146 H146        2.1298  -20.8565  -47.4767 H         1 UNK         0.0600 
    147 H147        0.7704  -20.8711  -48.5925 H         1 UNK         0.0600 
    148 H148        1.0069  -19.5009  -47.5279 H         1 UNK         0.0600 
    149 H149        1.3021  -20.1014  -45.1286 H         1 UNK         0.3000 
    150 H150       -0.1607  -21.0230  -41.9724 H         1 UNK         0.0600 
    151 H151        1.9733  -22.2999  -42.1720 H         1 UNK         0.0600 
    152 H152        2.1968  -20.8060  -41.2761 H         1 UNK         0.0600 
    153 H153        2.7395  -20.9212  -42.9488 H         1 UNK         0.0600 
    154 H154        1.4359  -18.7916  -42.6645 H         1 UNK         0.3000 
    155 H155       -1.2342  -16.6540  -43.7963 H         1 UNK         0.0600 
    156 H156        0.5986  -16.6091  -41.3408 H         1 UNK         0.0600 
    157 H157       -1.1519  -16.4305  -41.3254 H         1 UNK         0.0600 
    158 H158       -0.1534  -15.2009  -42.0870 H         1 UNK         0.0600 
    159 H159        1.5784  -16.2275  -43.6264 H         1 UNK         0.3000 
    160 H160        2.4631  -17.5268  -46.8359 H         1 UNK         0.0600 
    161 H161        3.5140  -15.2200  -46.8624 H         1 UNK         0.0600 
    162 H162        2.2701  -14.6733  -45.7393 H         1 UNK         0.0600 
    163 H163        1.8324  -15.2355  -47.3466 H         1 UNK         0.0600 
    164 H164        3.8360  -16.3262  -44.5715 H         1 UNK         0.3000 
    165 H165        4.8132  -19.4012  -43.0839 H         1 UNK         0.0600 
    166 H166        7.0852  -18.5050  -43.5020 H         1 UNK         0.0600 
    167 H167        6.4100  -19.1548  -44.9874 H         1 UNK         0.0600 
    168 H168        6.4604  -17.4136  -44.7388 H         1 UNK         0.0600 
    169 H169        5.5016  -16.6572  -42.5820 H         1 UNK         0.3000 
    170 H170        2.7886  -15.9733  -40.3563 H         1 UNK         0.0600 
    171 H171        4.4659  -17.2525  -39.0072 H         1 UNK         0.0600 
    172 H172        5.7740  -16.4002  -39.8189 H         1 UNK         0.0600 
    173 H173        4.6414  -15.5188  -38.7931 H         1 UNK         0.0600 
    174 H174        4.8986  -14.2858  -40.9179 H         1 UNK         0.3000 
    175 H175        3.9340  -12.2268  -42.0850 H         1 UNK         0.0600 
    176 H176        5.7259  -13.6587  -44.1248 H         1 UNK         0.0600 
    177 H177        5.8826  -11.9701  -43.6457 H         1 UNK         0.0600 
    178 H178        6.1728  -13.2401  -42.4752 H         1 UNK         0.0600 
    179 H179        3.7900  -12.4767  -44.9508 H         1 UNK         0.3000 
    180 H180        1.3584  -12.7053  -42.1815 H         1 UNK         0.0600 
    181 H181        1.2331   -9.6831  -42.7711 H         1 UNK         0.0600 
    182 H182        2.5030  -10.4571  -41.8372 H         1 UNK         0.0600 
    183 H183        0.8592  -10.4432  -41.2267 H         1 UNK         0.0600 
    184 H184       -0.3687  -11.7013  -44.2376 H         1 UNK         0.3000 
    185 H185       -3.2513  -13.0269  -42.7897 H         1 UNK         0.0600 
    186 H186       -3.5174  -10.7815  -41.7552 H         1 UNK         0.0600 
    187 H187       -2.8574  -10.0122  -43.1934 H         1 UNK         0.0600 
    188 H188       -4.3971  -10.8697  -43.2730 H         1 UNK         0.0600 
    189 H189       -2.5481  -11.4425  -45.1605 H         1 UNK         0.3000 
    190 H190       -2.7388  -20.3734  -43.9225 H         1 UNK         0.3000 
    191 H191       -5.2338  -21.4908  -43.1839 H         1 UNK         0.0600 
    192 H192       -3.9701  -22.3320  -41.2136 H         1 UNK         0.0600 
    193 H193       -3.5378  -20.6644  -41.5618 H         1 UNK         0.0600 
    194 H194       -2.4444  -21.9719  -42.0103 H         1 UNK         0.0600 
    195 H195       -2.3290  -23.0186  -44.6054 H         1 UNK         0.3000 
    196 H196       -3.1793  -25.7230  -44.4733 H         1 UNK         0.0600 
    197 H197       -1.4741  -26.0678  -46.2683 H         1 UNK         0.0600 
    198 H198       -0.8447  -25.0462  -44.9841 H         1 UNK         0.0600 
    199 H199       -1.3607  -24.3298  -46.5086 H         1 UNK         0.0600 
    200 H200       -3.9338  -23.1555  -46.7182 H         1 UNK         0.3000 
    201 H201       -5.5533  -22.7003  -48.0811 H         1 UNK         0.0600 
    202 H202       -6.9638  -23.4326  -46.1870 H         1 UNK         0.0600 
    203 H203       -7.0210  -25.0749  -46.8266 H         1 UNK         0.0600 
    204 H204       -7.7661  -23.7541  -47.7166 H         1 UNK         0.0600 
    205 H205       -4.6795  -26.0908  -48.3853 H         1 UNK         0.3000 
    206 H206       -5.9415  -26.8463  -50.7480 H         1 UNK         0.0600 
    207 H207       -4.8090  -28.4142  -49.2237 H         1 UNK         0.0600 
    208 H208       -4.1334  -28.5899  -50.8364 H         1 UNK         0.0600 
    209 H209       -3.2356  -27.7158  -49.6001 H         1 UNK         0.0600 
    210 H210       -5.9612  -25.2161  -52.2663 H         1 UNK         0.3000 
    211 H211       -5.4137  -23.8320  -53.9026 H         1 UNK         0.0600 
    212 H212       -3.0500  -25.7245  -54.3640 H         1 UNK         0.0600 
    213 H213       -3.5662  -24.4804  -55.4931 H         1 UNK         0.0600 
    214 H214       -4.6331  -25.8193  -55.1182 H         1 UNK         0.0600 
    215 H215       -4.6627  -23.1691  -51.2722 H         1 UNK         0.3000 
    216 H216       -3.4540  -21.8774  -49.9282 H         1 UNK         0.0600 
    217 H217       -2.5314  -19.7447  -50.8455 H         1 UNK         0.0600 
    218 H218       -4.1446  -20.0731  -51.4552 H         1 UNK         0.0600 
    219 H219       -2.7456  -20.3504  -52.4825 H         1 UNK         0.0600 
    220 H220       -2.3107  -24.2328  -50.4109 H         1 UNK         0.3000 
    221 H221       -0.5475  -25.4976  -50.1163 H         1 UNK         0.0600 
    222 H222        1.1167  -23.0119  -49.4756 H         1 UNK         0.0600 
    223 H223        0.1526  -23.9209  -48.3100 H         1 UNK         0.0600 
    224 H224        1.5247  -24.6776  -49.1014 H         1 UNK         0.0600 
    225 H225       -1.2787  -25.2172  -52.5424 H         1 UNK         0.3000 
    226 H226       -0.8121  -25.5338  -54.6818 H         1 UNK         0.0600 
    227 H227        1.2608  -26.6829  -55.2963 H         1 UNK         0.0600 
    228 H228        2.0546  -26.1537  -53.8206 H         1 UNK         0.0600 
    229 H229        0.7061  -27.2876  -53.7457 H         1 UNK         0.0600 
    230 H230       -0.5237  -22.7780  -53.6801 H         1 UNK         0.3000 
    231 H231        1.3782  -21.4758  -55.5098 H         1 UNK         0.0600 
    232 H232        0.9067  -20.4631  -53.2909 H         1 UNK         0.0600 
    233 H233       -0.8046  -20.3458  -53.6841 H         1 UNK         0.0600 
    234 H234        0.3705  -19.3926  -54.5795 H         1 UNK         0.0600 
    235 H235       -2.0210  -22.3596  -55.3400 H         1 UNK         0.3000 
    236 H236       -3.6833  -22.5123  -56.7727 H         1 UNK         0.0600 
    237 H237       -2.0126  -23.6175  -58.2780 H         1 UNK         0.0600 
    238 H238       -3.2825  -22.8026  -59.1746 H         1 UNK         0.0600 
    239 H239       -1.6918  -22.0661  -59.0525 H         1 UNK         0.0600 
    240 H240       -2.8810  -19.8630  -55.6843 H         1 UNK         0.3000 
    241 H241       -3.9773  -17.9365  -57.5899 H         1 UNK         0.0600 
    242 H242       -7.0276  -19.1687  -55.3221 H         1 UNK         0.3800 
    243 H243       -5.5827  -20.1211  -55.5372 H         1 UNK         0.3800 
    244 H244       -2.0988  -17.1748  -56.3370 H         1 UNK         0.0800 
    245 H245       -3.4719  -16.2510  -55.8224 H         1 UNK         0.0800 
    246 H246       -4.6920  -16.7213  -53.3022 H         1 UNK         0.0800 
    247 H247       -3.4244  -15.5289  -53.4985 H         1 UNK         0.0800 
@<TRIPOS>BOND
     1    1    2 1    
     2    1  127 1    
     3    1  128 1    
     4    1  129 1    
     5    2    3 2    
     6    2    4 am   BACKBONE|DICT|INTERRES
     7    4    5 1    
     8    4  130 1    
     9    5    6 1    
    10    5   65 1    
    11    5  131 1    
    12    6    7 1    
    13    6  132 1    
    14    6  133 1    
    15    7    8 1    
    16    8    9 1    
    17    8  134 1    
    18    8  135 1    
    19    9   10 ar   
    20    9   14 ar   
    21   10   11 ar   
    22   10  136 1    
    23   11   12 ar   
    24   11  126 1    
    25   12   13 ar   
    26   12  137 1    
    27   13   14 ar   
    28   13   15 1    
    29   14  138 1    
    30   15   16 1    
    31   15  139 1    
    32   15  140 1    
    33   16   17 1    
    34   17   18 1    
    35   17  141 1    
    36   17  142 1    
    37   18   19 1    
    38   18   67 1    
    39   18  143 1    
    40   19   20 am   BACKBONE|DICT|INTERRES
    41   19  144 1    
    42   20   21 2    
    43   20   22 1    
    44   22   23 1    
    45   22   24 1    
    46   22  145 1    
    47   23  146 1    
    48   23  147 1    
    49   23  148 1    
    50   24   25 am   BACKBONE|DICT|INTERRES
    51   24  149 1    
    52   25   26 2    
    53   25   27 1    
    54   27   28 1    
    55   27   29 1    
    56   27  150 1    
    57   28  151 1    
    58   28  152 1    
    59   28  153 1    
    60   29   30 am   BACKBONE|DICT|INTERRES
    61   29  154 1    
    62   30   31 2    
    63   30   32 1    
    64   32   33 1    
    65   32   34 1    
    66   32  155 1    
    67   33  156 1    
    68   33  157 1    
    69   33  158 1    
    70   34   35 am   BACKBONE|DICT|INTERRES
    71   34  159 1    
    72   35   36 2    
    73   35   37 1    
    74   37   38 1    
    75   37   39 1    
    76   37  160 1    
    77   38  161 1    
    78   38  162 1    
    79   38  163 1    
    80   39   40 am   BACKBONE|DICT|INTERRES
    81   39  164 1    
    82   40   41 2    
    83   40   42 1    
    84   42   43 1    
    85   42   44 1    
    86   42  165 1    
    87   43  166 1    
    88   43  167 1    
    89   43  168 1    
    90   44   45 am   BACKBONE|DICT|INTERRES
    91   44  169 1    
    92   45   46 2    
    93   45   47 1    
    94   47   48 1    
    95   47   49 1    
    96   47  170 1    
    97   48  171 1    
    98   48  172 1    
    99   48  173 1    
   100   49   50 am   BACKBONE|DICT|INTERRES
   101   49  174 1    
   102   50   51 2    
   103   50   52 1    
   104   52   53 1    
   105   52   54 1    
   106   52  175 1    
   107   53  176 1    
   108   53  177 1    
   109   53  178 1    
   110   54   55 am   BACKBONE|DICT|INTERRES
   111   54  179 1    
   112   55   56 2    
   113   55   57 1    
   114   57   58 1    
   115   57   59 1    
   116   57  180 1    
   117   58  181 1    
   118   58  182 1    
   119   58  183 1    
   120   59   60 am   BACKBONE|DICT|INTERRES
   121   59  184 1    
   122   60   61 2    
   123   60   62 1    
   124   62   63 1    
   125   62   64 1    
   126   62  185 1    
   127   63  186 1    
   128   63  187 1    
   129   63  188 1    
   130   64   65 am   BACKBONE|DICT|INTERRES
   131   64  189 1    
   132   65   66 2    
   133   67   68 2    
   134   67   69 am   BACKBONE|DICT|INTERRES
   135   69   70 1    
   136   69  190 1    
   137   70   71 1    
   138   70   72 1    
   139   70  191 1    
   140   71  192 1    
   141   71  193 1    
   142   71  194 1    
   143   72   73 2    
   144   72   74 am   BACKBONE|DICT|INTERRES
   145   74   75 1    
   146   74  195 1    
   147   75   76 1    
   148   75   77 1    
   149   75  196 1    
   150   76  197 1    
   151   76  198 1    
   152   76  199 1    
   153   77   78 2    
   154   77   79 am   BACKBONE|DICT|INTERRES
   155   79   80 1    
   156   79  200 1    
   157   80   81 1    
   158   80   82 1    
   159   80  201 1    
   160   81  202 1    
   161   81  203 1    
   162   81  204 1    
   163   82   83 2    
   164   82   84 am   BACKBONE|DICT|INTERRES
   165   84   85 1    
   166   84  205 1    
   167   85   86 1    
   168   85   87 1    
   169   85  206 1    
   170   86  207 1    
   171   86  208 1    
   172   86  209 1    
   173   87   88 2    
   174   87   89 am   BACKBONE|DICT|INTERRES
   175   89   90 1    
   176   89  210 1    
   177   90   91 1    
   178   90   92 1    
   179   90  211 1    
   180   91  212 1    
   181   91  213 1    
   182   91  214 1    
   183   92   93 2    
   184   92   94 am   BACKBONE|DICT|INTERRES
   185   94   95 1    
   186   94  215 1    
   187   95   96 1    
   188   95   97 1    
   189   95  216 1    
   190   96  217 1    
   191   96  218 1    
   192   96  219 1    
   193   97   98 2    
   194   97   99 am   BACKBONE|DICT|INTERRES
   195   99  100 1    
   196   99  220 1    
   197  100  101 1    
   198  100  102 1    
   199  100  221 1    
   200  101  222 1    
   201  101  223 1    
   202  101  224 1    
   203  102  103 2    
   204  102  104 am   BACKBONE|DICT|INTERRES
   205  104  105 1    
   206  104  225 1    
   207  105  106 1    
   208  105  107 1    
   209  105  226 1    
   210  106  227 1    
   211  106  228 1    
   212  106  229 1    
   213  107  108 2    
   214  107  109 am   BACKBONE|DICT|INTERRES
   215  109  110 1    
   216  109  230 1    
   217  110  111 1    
   218  110  112 1    
   219  110  231 1    
   220  111  232 1    
   221  111  233 1    
   222  111  234 1    
   223  112  113 2    
   224  112  114 am   BACKBONE|DICT|INTERRES
   225  114  115 1    
   226  114  235 1    
   227  115  116 1    
   228  115  117 1    
   229  115  236 1    
   230  116  237 1    
   231  116  238 1    
   232  116  239 1    
   233  117  118 2    
   234  117  119 am   BACKBONE|DICT|INTERRES
   235  119  120 1    
   236  119  240 1    
   237  120  121 1    
   238  120  124 1    
   239  120  241 1    
   240  121  122 am   BACKBONE|DICT|INTERRES
   241  121  123 2    
   242  122  242 1    
   243  122  243 1    
   244  124  125 1    
   245  124  244 1    
   246  124  245 1    
   247  125  126 1    
   248  126  246 1    
   249  126  247 1    
@<TRIPOS>SUBSTRUCTURE
     1 UNK         1 GROUP             0       ****    0 ROOT    
