@<TRIPOS>MOLECULE
3R540
247   249    1
SMALL
USER_CHARGES


@<TRIPOS>ATOM
      1 CA          1.4013  -11.8516  -47.6062 C.3       0 UNK        -0.1800 
      2 C           1.2082  -12.9954  -46.6221 C.2       0 UNK         0.5000 
      3 O           1.3048  -12.7849  -45.4107 O.2       0 UNK        -0.5000 
      4 N           0.9343  -14.1993  -47.1391 N.am      1 UNK        -0.5000 
      5 CA          0.6014  -15.4065  -46.3774 C.3       1 UNK         0.1400 
      6 C6          0.5051  -16.6793  -47.2620 C.3       23 UNK        -0.0398 
      7 S7         -0.3059  -16.4333  -48.8857 S.3       23 UNK        -0.2404 
      8 C8          1.1100  -16.5725  -50.0278 C.3       23 UNK        -0.0205 
      9 C9          1.3094  -18.0062  -50.4971 C.ar      23 UNK        -0.0193 
     10 C10         0.8506  -18.3995  -51.7571 C.ar      23 UNK        -0.1150 
     11 C11         0.9928  -19.7228  -52.1896 C.ar      23 UNK        -0.0193 
     12 C12         1.6024  -20.6543  -51.3426 C.ar      23 UNK        -0.1150 
     13 C13         2.0766  -20.2732  -50.0839 C.ar      23 UNK        -0.0193 
     14 C14         1.9448  -18.9427  -49.6775 C.ar      23 UNK        -0.1150 
     15 C15         2.7278  -21.3016  -49.1649 C.3       23 UNK        -0.0205 
     16 S16         1.9721  -21.3468  -47.5039 S.3       23 UNK        -0.2404 
     17 C17         0.2354  -21.7497  -47.8942 C.3       23 UNK        -0.0398 
     18 CA         -0.2538  -23.0341  -47.1885 C.3       11 UNK         0.1400 
     19 N          -0.1689  -22.9294  -45.7286 N.am      11 UNK        -0.5000 
     20 C          -0.4422  -23.9188  -44.8675 C.2       10 UNK         0.5000 
     21 O          -0.7267  -25.0620  -45.2196 O.2       10 UNK        -0.5000 
     22 CA         -0.4659  -23.5693  -43.3667 C.3       10 UNK         0.1400 
     23 CB          0.8623  -23.9675  -42.7069 C.3       10 UNK        -0.1800 
     24 N          -0.7395  -22.1605  -43.0677 N.am      10 UNK        -0.5000 
     25 C          -1.7950  -21.4394  -43.4772 C.2       9 UNK         0.5000 
     26 O          -2.6880  -21.8925  -44.1936 O.2       9 UNK        -0.5000 
     27 CA         -1.8577  -19.9627  -43.0310 C.3       9 UNK         0.1400 
     28 CB         -3.0040  -19.7605  -42.0274 C.3       9 UNK        -0.1800 
     29 N          -0.6102  -19.4789  -42.4282 N.am      9 UNK        -0.5000 
     30 C           0.5290  -19.2497  -43.0948 C.2       8 UNK         0.5000 
     31 O           0.6390  -19.3534  -44.3186 O.2       8 UNK        -0.5000 
     32 CA          1.7568  -18.9351  -42.2183 C.3       8 UNK         0.1400 
     33 CB          2.2539  -20.2124  -41.5197 C.3       8 UNK        -0.1800 
     34 N           2.8682  -18.3683  -42.9796 N.am      8 UNK        -0.5000 
     35 C           2.9016  -17.1228  -43.4594 C.2       7 UNK         0.5000 
     36 O           1.9927  -16.2985  -43.3006 O.2       7 UNK        -0.5000 
     37 CA          4.1699  -16.7266  -44.2310 C.3       7 UNK         0.1400 
     38 CB          4.2233  -17.3601  -45.6313 C.3       7 UNK        -0.1800 
     39 N           4.1732  -15.2777  -44.3402 N.am      7 UNK        -0.5000 
     40 C           5.2352  -14.4721  -44.4178 C.2       6 UNK         0.5000 
     41 O           6.3937  -14.8668  -44.5530 O.2       6 UNK        -0.5000 
     42 CA          4.9417  -12.9638  -44.2918 C.3       6 UNK         0.1400 
     43 CB          4.8801  -12.3080  -45.6792 C.3       6 UNK        -0.1800 
     44 N           3.6841  -12.7084  -43.5808 N.am      6 UNK        -0.5000 
     45 C           3.5208  -12.8475  -42.2554 C.2       5 UNK         0.5000 
     46 O           4.4406  -13.1296  -41.4855 O.2       5 UNK        -0.5000 
     47 CA          2.0863  -12.6692  -41.7131 C.3       5 UNK         0.1400 
     48 CB          2.0401  -12.3112  -40.2134 C.3       5 UNK        -0.1800 
     49 N           1.2933  -11.7286  -42.5080 N.am      5 UNK        -0.5000 
     50 C           1.5177  -10.4193  -42.6995 C.2       4 UNK         0.5000 
     51 O           2.4059   -9.7812  -42.1335 O.2       4 UNK        -0.5000 
     52 CA          0.6142   -9.7059  -43.7224 C.3       4 UNK         0.1400 
     53 CB          1.4390   -9.2576  -44.9401 C.3       4 UNK        -0.1800 
     54 N          -0.4736  -10.5762  -44.1809 N.am      4 UNK        -0.5000 
     55 C          -1.7525  -10.4522  -43.8030 C.2       3 UNK         0.5000 
     56 O          -2.1724   -9.5524  -43.0743 O.2       3 UNK        -0.5000 
     57 CA         -2.7275  -11.5271  -44.3135 C.3       3 UNK         0.1400 
     58 CB         -3.0959  -11.2704  -45.7831 C.3       3 UNK        -0.1800 
     59 N          -2.2138  -12.8904  -44.1811 N.am      3 UNK        -0.5000 
     60 C          -1.9501  -13.5321  -43.0361 C.2       2 UNK         0.5000 
     61 O          -2.0563  -13.0116  -41.9261 O.2       2 UNK        -0.5000 
     62 CA         -1.4820  -15.0011  -43.1340 C.3       2 UNK         0.1400 
     63 CB         -2.6834  -15.9593  -43.2197 C.3       2 UNK        -0.1800 
     64 N          -0.5110  -15.2740  -44.2019 N.am      2 UNK        -0.5000 
     65 C          -0.6661  -15.1841  -45.5303 C.2       1 UNK         0.5000 
     66 O          -1.7234  -14.8779  -46.0853 O.2       1 UNK        -0.5000 
     67 C          -1.6761  -23.3865  -47.6768 C.2       11 UNK         0.5000 
     68 O          -1.8071  -24.0767  -48.6883 O.2       11 UNK        -0.5000 
     69 N          -2.7143  -22.9257  -46.9631 N.am      12 UNK        -0.5000 
     70 CA         -4.1095  -23.2484  -47.2617 C.3       12 UNK         0.1400 
     71 CB         -5.0363  -22.2038  -46.6244 C.3       12 UNK        -0.1800 
     72 C          -4.4763  -24.6679  -46.8003 C.2       12 UNK         0.5000 
     73 O          -5.2022  -25.3626  -47.5103 O.2       12 UNK        -0.5000 
     74 N          -3.9309  -25.0933  -45.6510 N.am      13 UNK        -0.5000 
     75 CA         -4.0847  -26.4465  -45.1069 C.3       13 UNK         0.1400 
     76 CB         -3.5772  -26.4795  -43.6572 C.3       13 UNK        -0.1800 
     77 C          -3.3698  -27.5073  -45.9663 C.2       13 UNK         0.5000 
     78 O          -3.9038  -28.5993  -46.1609 O.2       13 UNK        -0.5000 
     79 N          -2.1987  -27.1426  -46.5058 N.am      14 UNK        -0.5000 
     80 CA         -1.4275  -27.9202  -47.4784 C.3       14 UNK         0.1400 
     81 CB         -0.0003  -27.3517  -47.5337 C.3       14 UNK        -0.1800 
     82 C          -2.0496  -27.9311  -48.8914 C.2       14 UNK         0.5000 
     83 O          -1.6007  -28.7048  -49.7375 O.2       14 UNK        -0.5000 
     84 N          -3.0477  -27.0651  -49.1240 N.am      15 UNK        -0.5000 
     85 CA         -3.7806  -26.8412  -50.3736 C.3       15 UNK         0.1400 
     86 CB         -4.5443  -28.1085  -50.8100 C.3       15 UNK        -0.1800 
     87 C          -2.9214  -26.2357  -51.5038 C.2       15 UNK         0.5000 
     88 O          -3.2969  -26.3273  -52.6732 O.2       15 UNK        -0.5000 
     89 N          -1.8075  -25.5876  -51.1385 N.am      16 UNK        -0.5000 
     90 CA         -0.9743  -24.7937  -52.0403 C.3       16 UNK         0.1400 
     91 CB          0.4176  -24.6029  -51.4161 C.3       16 UNK        -0.1800 
     92 C          -1.6366  -23.4365  -52.3289 C.2       16 UNK         0.5000 
     93 O          -1.6792  -23.0084  -53.4806 O.2       16 UNK        -0.5000 
     94 N          -2.1867  -22.8233  -51.2739 N.am      17 UNK        -0.5000 
     95 CA         -2.9601  -21.5859  -51.3096 C.3       17 UNK         0.1400 
     96 CB         -2.3369  -20.5706  -50.3341 C.3       17 UNK        -0.1800 
     97 C          -4.4299  -21.8987  -50.9791 C.2       17 UNK         0.5000 
     98 O          -5.0281  -21.2423  -50.1258 O.2       17 UNK        -0.5000 
     99 N          -4.9897  -22.9181  -51.6509 N.am      18 UNK        -0.5000 
    100 CA        -6.3980  -23.3243  -51.5382 C.3       18 UNK         0.1400 
    101 CB        -6.6136  -24.6246  -52.3271 C.3       18 UNK        -0.1800 
    102 C         -7.3793  -22.2353  -52.0213 C.2       18 UNK         0.5000 
    103 O         -8.5007  -22.1476  -51.5205 O.2       18 UNK        -0.5000 
    104 N         -6.9092  -21.4100  -52.9595 N.am      19 UNK        -0.5000 
    105 CA        -7.4709  -20.1279  -53.3537 C.3       19 UNK         0.1400 
    106 CB        -8.1069  -20.2588  -54.7467 C.3       19 UNK        -0.1800 
    107 C         -6.3030  -19.1311  -53.3762 C.2       19 UNK         0.5000 
    108 O         -5.1492  -19.5517  -53.5082 O.2       19 UNK        -0.5000 
    109 N         -6.6105  -17.8312  -53.2872 N.am      20 UNK        -0.5000 
    110 CA        -5.6278  -16.7387  -53.2532 C.3       20 UNK         0.1400 
    111 CB        -6.3630  -15.4148  -52.9938 C.3       20 UNK        -0.1800 
    112 C         -4.7492  -16.6285  -54.5178 C.2       20 UNK         0.5000 
    113 O         -3.6385  -16.1028  -54.4423 O.2       20 UNK        -0.5000 
    114 N         -5.2557  -17.1381  -55.6482 N.am      21 UNK        -0.5000 
    115 CA        -4.5368  -17.2428  -56.9177 C.3       21 UNK         0.1400 
    116 CB        -5.5686  -17.3492  -58.0524 C.3       21 UNK        -0.1800 
    117 C         -3.5539  -18.4324  -56.9715 C.2       21 UNK         0.5000 
    118 O         -2.7335  -18.4791  -57.8891 O.2       21 UNK        -0.5000 
    119 N         -3.6607  -19.3750  -56.0214 N.am      22 UNK        -0.5000 
    120 CA        -2.8614  -20.6119  -55.9220 C.3       22 UNK         0.1400 
    121 C         -3.0909  -21.6251  -57.0882 C.2       22 UNK         0.5000 
    122 N         -4.2095  -21.5635  -57.8013 N.am      22 UNK        -0.7600 
    123 O         -2.2642  -22.4969  -57.3429 O.2       22 UNK        -0.5000 
    124 C124       -1.3568  -20.3399  -55.6412 C.3       23 UNK        -0.0398 
    125 S125       -1.0938  -19.4725  -54.0567 S.3       23 UNK        -0.2404 
    126 C126        0.5267  -20.1577  -53.5754 C.3       23 UNK        -0.0205 
    127 H127        2.3894  -11.4095  -47.4822 H         1 UNK         0.0600 
    128 H128        0.6547  -11.0775  -47.4297 H         1 UNK         0.0600 
    129 H129        1.3064  -12.1858  -48.6395 H         1 UNK         0.0600 
    130 H130        0.8242  -14.2926  -48.1386 H         1 UNK         0.3000 
    131 H131        1.4334  -15.5631  -45.6918 H         1 UNK         0.0600 
    132 H132        1.5110  -17.0522  -47.4338 H         1 UNK         0.0800 
    133 H133       -0.0033  -17.4894  -46.7348 H         1 UNK         0.0800 
    134 H134        0.9248  -15.9232  -50.8849 H         1 UNK         0.0800 
    135 H135        2.0218  -16.1969  -49.5611 H         1 UNK         0.0800 
    136 H136        0.3758  -17.6731  -52.4013 H         1 UNK         0.1150 
    137 H137        1.7141  -21.6789  -51.6674 H         1 UNK         0.1150 
    138 H138        2.3203  -18.6498  -48.7090 H         1 UNK         0.1150 
    139 H139        2.6764  -22.3009  -49.6003 H         1 UNK         0.0800 
    140 H140        3.7871  -21.0622  -49.0641 H         1 UNK         0.0800 
    141 H141        0.1279  -21.8554  -48.9750 H         1 UNK         0.0800 
    142 H142       -0.3795  -20.8932  -47.6111 H         1 UNK         0.0800 
    143 H143        0.3978  -23.8558  -47.4926 H         1 UNK         0.0600 
    144 H144        0.0757  -22.0214  -45.3588 H         1 UNK         0.3000 
    145 H145       -1.2653  -24.1571  -42.9119 H         1 UNK         0.0600 
    146 H146        0.8292  -23.8176  -41.6276 H         1 UNK         0.0600 
    147 H147        1.0843  -25.0216  -42.8798 H         1 UNK         0.0600 
    148 H148        1.6970  -23.3871  -43.1022 H         1 UNK         0.0600 
    149 H149       -0.0641  -21.6956  -42.4815 H         1 UNK         0.3000 
    150 H150       -2.0665  -19.3647  -43.9205 H         1 UNK         0.0600 
    151 H151       -2.8587  -20.3571  -41.1260 H         1 UNK         0.0600 
    152 H152       -3.9606  -20.0527  -42.4629 H         1 UNK         0.0600 
    153 H153       -3.0925  -18.7169  -41.7263 H         1 UNK         0.0600 
    154 H154       -0.6164  -19.3764  -41.4231 H         1 UNK         0.3000 
    155 H155        1.4568  -18.2126  -41.4560 H         1 UNK         0.0600 
    156 H156        2.5535  -20.9750  -42.2401 H         1 UNK         0.0600 
    157 H157        1.4817  -20.6461  -40.8832 H         1 UNK         0.0600 
    158 H158        3.1118  -20.0024  -40.8804 H         1 UNK         0.0600 
    159 H159        3.6341  -18.9933  -43.1835 H         1 UNK         0.3000 
    160 H160        5.0349  -17.0494  -43.6478 H         1 UNK         0.0600 
    161 H161        3.4323  -16.9781  -46.2729 H         1 UNK         0.0600 
    162 H162        4.1183  -18.4447  -45.5847 H         1 UNK         0.0600 
    163 H163        5.1742  -17.1472  -46.1198 H         1 UNK         0.0600 
    164 H164        3.2682  -14.8593  -44.1679 H         1 UNK         0.3000 
    165 H165        5.7589  -12.5055  -43.7310 H         1 UNK         0.0600 
    166 H166        4.6280  -11.2497  -45.6084 H         1 UNK         0.0600 
    167 H167        5.8438  -12.3809  -46.1847 H         1 UNK         0.0600 
    168 H168        4.1414  -12.7901  -46.3188 H         1 UNK         0.0600 
    169 H169        2.8692  -12.5072  -44.1518 H         1 UNK         0.3000 
    170 H170        1.6033  -13.6405  -41.8305 H         1 UNK         0.0600 
    171 H171        2.4945  -13.0979  -39.6101 H         1 UNK         0.0600 
    172 H172        2.5755  -11.3862  -39.9988 H         1 UNK         0.0600 
    173 H173        1.0126  -12.1929  -39.8690 H         1 UNK         0.0600 
    174 H174        0.5457  -12.1409  -43.0459 H         1 UNK         0.3000 
    175 H175        0.2154   -8.8127  -43.2378 H         1 UNK         0.0600 
    176 H176        2.1821   -8.5129  -44.6527 H         1 UNK         0.0600 
    177 H177        1.9758  -10.0909  -45.3923 H         1 UNK         0.0600 
    178 H178        0.8064   -8.8067  -45.7047 H         1 UNK         0.0600 
    179 H179       -0.2049  -11.3512  -44.7749 H         1 UNK         0.3000 
    180 H180       -3.6395  -11.4575  -43.7169 H         1 UNK         0.0600 
    181 H181       -2.2316  -11.3754  -46.4403 H         1 UNK         0.0600 
    182 H182       -3.4921  -10.2630  -45.9176 H         1 UNK         0.0600 
    183 H183       -3.8609  -11.9682  -46.1242 H         1 UNK         0.0600 
    184 H184       -2.1125  -13.4293  -45.0383 H         1 UNK         0.3000 
    185 H185       -0.9550  -15.2223  -42.2043 H         1 UNK         0.0600 
    186 H186       -3.3249  -15.8591  -42.3434 H         1 UNK         0.0600 
    187 H187       -3.2994  -15.7661  -44.0984 H         1 UNK         0.0600 
    188 H188       -2.3516  -16.9951  -43.2663 H         1 UNK         0.0600 
    189 H189        0.4113  -15.5394  -43.8606 H         1 UNK         0.3000 
    190 H190       -2.5461  -22.4009  -46.1101 H         1 UNK         0.3000 
    191 H191       -4.2538  -23.2073  -48.3423 H         1 UNK         0.0600 
    192 H192       -4.7900  -21.1991  -46.9688 H         1 UNK         0.0600 
    193 H193       -6.0759  -22.3927  -46.8947 H         1 UNK         0.0600 
    194 H194       -4.9736  -22.2128  -45.5361 H         1 UNK         0.0600 
    195 H195       -3.3311  -24.4616  -45.1406 H         1 UNK         0.3000 
    196 H196       -5.1499  -26.6870  -45.0989 H         1 UNK         0.0600 
    197 H197       -3.7443  -27.4604  -43.2107 H         1 UNK         0.0600 
    198 H198       -4.0981  -25.7482  -43.0390 H         1 UNK         0.0600 
    199 H199       -2.5089  -26.2721  -43.5957 H         1 UNK         0.0600 
    200 H200       -1.7870  -26.2612  -46.2090 H         1 UNK         0.3000 
    201 H201       -1.3755  -28.9543  -47.1323 H         1 UNK         0.0600 
    202 H202        0.6289  -27.9323  -48.2094 H         1 UNK         0.0600 
    203 H203        0.4719  -27.3737  -46.5513 H         1 UNK         0.0600 
    204 H204        0.0059  -26.3192  -47.8848 H         1 UNK         0.0600 
    205 H205       -3.3380  -26.4801  -48.3522 H         1 UNK         0.3000 
    206 H206       -4.5254  -26.0808  -50.1363 H         1 UNK         0.0600 
    207 H207       -5.1499  -28.5032  -49.9941 H         1 UNK         0.0600 
    208 H208       -5.2202  -27.8936  -51.6383 H         1 UNK         0.0600 
    209 H209       -3.8680  -28.8974  -51.1397 H         1 UNK         0.0600 
    210 H210       -1.6198  -25.4895  -50.1474 H         1 UNK         0.3000 
    211 H211       -0.8580  -25.3295  -52.9848 H         1 UNK         0.0600 
    212 H212        0.3719  -24.0537  -50.4750 H         1 UNK         0.0600 
    213 H213        1.0713  -24.0477  -52.0897 H         1 UNK         0.0600 
    214 H214        0.8946  -25.5631  -51.2191 H         1 UNK         0.0600 
    215 H215       -2.1289  -23.2874  -50.3716 H         1 UNK         0.3000 
    216 H216       -2.9431  -21.1478  -52.3093 H         1 UNK         0.0600 
    217 H217       -2.8420  -19.6065  -50.4027 H         1 UNK         0.0600 
    218 H218       -1.2858  -20.3980  -50.5616 H         1 UNK         0.0600 
    219 H219       -2.4075  -20.9059  -49.2995 H         1 UNK         0.0600 
    220 H220       -4.4261  -23.4171  -52.3244 H         1 UNK         0.3000 
    221 H221       -6.6099  -23.5191  -50.4847 H         1 UNK         0.0600 
    222 H222       -6.3814  -24.4969  -53.3852 H         1 UNK         0.0600 
    223 H223       -5.9910  -25.4311  -51.9436 H         1 UNK         0.0600 
    224 H224       -7.6501  -24.9570  -52.2563 H         1 UNK         0.0600 
    225 H225       -5.9470  -21.5278  -53.2490 H         1 UNK         0.3000 
    226 H226       -8.2144  -19.7905  -52.6284 H         1 UNK         0.0600 
    227 H227       -8.5429  -19.3131  -55.0703 H         1 UNK         0.0600 
    228 H228       -7.3752  -20.5598  -55.4980 H         1 UNK         0.0600 
    229 H229       -8.9059  -21.0005  -54.7439 H         1 UNK         0.0600 
    230 H230       -7.5801  -17.5620  -53.1984 H         1 UNK         0.3000 
    231 H231       -4.9563  -16.9266  -52.4126 H         1 UNK         0.0600 
    232 H232       -7.0736  -15.1871  -53.7893 H         1 UNK         0.0600 
    233 H233       -5.6606  -14.5823  -52.9330 H         1 UNK         0.0600 
    234 H234       -6.9102  -15.4444  -52.0513 H         1 UNK         0.0600 
    235 H235       -6.1828  -17.5352  -55.6178 H         1 UNK         0.3000 
    236 H236       -3.9554  -16.3310  -57.0703 H         1 UNK         0.0600 
    237 H237       -6.2293  -16.4821  -58.0671 H         1 UNK         0.0600 
    238 H238       -5.0779  -17.3972  -59.0255 H         1 UNK         0.0600 
    239 H239       -6.1873  -18.2418  -57.9524 H         1 UNK         0.0600 
    240 H240       -4.3242  -19.2395  -55.2664 H         1 UNK         0.3000 
    241 H241       -3.2526  -21.1331  -55.0475 H         1 UNK         0.0600 
    242 H242       -4.9038  -20.8605  -57.6080 H         1 UNK         0.3800 
    243 H243       -4.3571  -22.2234  -58.5487 H         1 UNK         0.3800 
    244 H244       -0.8093  -21.2826  -55.6017 H         1 UNK         0.0800 
    245 H245       -0.9031  -19.7607  -56.4458 H         1 UNK         0.0800 
    246 H246        0.4697  -21.2463  -53.6206 H         1 UNK         0.0800 
    247 H247        1.2745  -19.8523  -54.3081 H         1 UNK         0.0800 
@<TRIPOS>BOND
     1    1    2 1    
     2    1  127 1    
     3    1  128 1    
     4    1  129 1    
     5    2    3 2    
     6    2    4 am   BACKBONE|DICT|INTERRES
     7    4    5 1    
     8    4  130 1    
     9    5    6 1    
    10    5   65 1    
    11    5  131 1    
    12    6    7 1    
    13    6  132 1    
    14    6  133 1    
    15    7    8 1    
    16    8    9 1    
    17    8  134 1    
    18    8  135 1    
    19    9   10 ar   
    20    9   14 ar   
    21   10   11 ar   
    22   10  136 1    
    23   11   12 ar   
    24   11  126 1    
    25   12   13 ar   
    26   12  137 1    
    27   13   14 ar   
    28   13   15 1    
    29   14  138 1    
    30   15   16 1    
    31   15  139 1    
    32   15  140 1    
    33   16   17 1    
    34   17   18 1    
    35   17  141 1    
    36   17  142 1    
    37   18   19 1    
    38   18   67 1    
    39   18  143 1    
    40   19   20 am   BACKBONE|DICT|INTERRES
    41   19  144 1    
    42   20   21 2    
    43   20   22 1    
    44   22   23 1    
    45   22   24 1    
    46   22  145 1    
    47   23  146 1    
    48   23  147 1    
    49   23  148 1    
    50   24   25 am   BACKBONE|DICT|INTERRES
    51   24  149 1    
    52   25   26 2    
    53   25   27 1    
    54   27   28 1    
    55   27   29 1    
    56   27  150 1    
    57   28  151 1    
    58   28  152 1    
    59   28  153 1    
    60   29   30 am   BACKBONE|DICT|INTERRES
    61   29  154 1    
    62   30   31 2    
    63   30   32 1    
    64   32   33 1    
    65   32   34 1    
    66   32  155 1    
    67   33  156 1    
    68   33  157 1    
    69   33  158 1    
    70   34   35 am   BACKBONE|DICT|INTERRES
    71   34  159 1    
    72   35   36 2    
    73   35   37 1    
    74   37   38 1    
    75   37   39 1    
    76   37  160 1    
    77   38  161 1    
    78   38  162 1    
    79   38  163 1    
    80   39   40 am   BACKBONE|DICT|INTERRES
    81   39  164 1    
    82   40   41 2    
    83   40   42 1    
    84   42   43 1    
    85   42   44 1    
    86   42  165 1    
    87   43  166 1    
    88   43  167 1    
    89   43  168 1    
    90   44   45 am   BACKBONE|DICT|INTERRES
    91   44  169 1    
    92   45   46 2    
    93   45   47 1    
    94   47   48 1    
    95   47   49 1    
    96   47  170 1    
    97   48  171 1    
    98   48  172 1    
    99   48  173 1    
   100   49   50 am   BACKBONE|DICT|INTERRES
   101   49  174 1    
   102   50   51 2    
   103   50   52 1    
   104   52   53 1    
   105   52   54 1    
   106   52  175 1    
   107   53  176 1    
   108   53  177 1    
   109   53  178 1    
   110   54   55 am   BACKBONE|DICT|INTERRES
   111   54  179 1    
   112   55   56 2    
   113   55   57 1    
   114   57   58 1    
   115   57   59 1    
   116   57  180 1    
   117   58  181 1    
   118   58  182 1    
   119   58  183 1    
   120   59   60 am   BACKBONE|DICT|INTERRES
   121   59  184 1    
   122   60   61 2    
   123   60   62 1    
   124   62   63 1    
   125   62   64 1    
   126   62  185 1    
   127   63  186 1    
   128   63  187 1    
   129   63  188 1    
   130   64   65 am   BACKBONE|DICT|INTERRES
   131   64  189 1    
   132   65   66 2    
   133   67   68 2    
   134   67   69 am   BACKBONE|DICT|INTERRES
   135   69   70 1    
   136   69  190 1    
   137   70   71 1    
   138   70   72 1    
   139   70  191 1    
   140   71  192 1    
   141   71  193 1    
   142   71  194 1    
   143   72   73 2    
   144   72   74 am   BACKBONE|DICT|INTERRES
   145   74   75 1    
   146   74  195 1    
   147   75   76 1    
   148   75   77 1    
   149   75  196 1    
   150   76  197 1    
   151   76  198 1    
   152   76  199 1    
   153   77   78 2    
   154   77   79 am   BACKBONE|DICT|INTERRES
   155   79   80 1    
   156   79  200 1    
   157   80   81 1    
   158   80   82 1    
   159   80  201 1    
   160   81  202 1    
   161   81  203 1    
   162   81  204 1    
   163   82   83 2    
   164   82   84 am   BACKBONE|DICT|INTERRES
   165   84   85 1    
   166   84  205 1    
   167   85   86 1    
   168   85   87 1    
   169   85  206 1    
   170   86  207 1    
   171   86  208 1    
   172   86  209 1    
   173   87   88 2    
   174   87   89 am   BACKBONE|DICT|INTERRES
   175   89   90 1    
   176   89  210 1    
   177   90   91 1    
   178   90   92 1    
   179   90  211 1    
   180   91  212 1    
   181   91  213 1    
   182   91  214 1    
   183   92   93 2    
   184   92   94 am   BACKBONE|DICT|INTERRES
   185   94   95 1    
   186   94  215 1    
   187   95   96 1    
   188   95   97 1    
   189   95  216 1    
   190   96  217 1    
   191   96  218 1    
   192   96  219 1    
   193   97   98 2    
   194   97   99 am   BACKBONE|DICT|INTERRES
   195   99  100 1    
   196   99  220 1    
   197  100  101 1    
   198  100  102 1    
   199  100  221 1    
   200  101  222 1    
   201  101  223 1    
   202  101  224 1    
   203  102  103 2    
   204  102  104 am   BACKBONE|DICT|INTERRES
   205  104  105 1    
   206  104  225 1    
   207  105  106 1    
   208  105  107 1    
   209  105  226 1    
   210  106  227 1    
   211  106  228 1    
   212  106  229 1    
   213  107  108 2    
   214  107  109 am   BACKBONE|DICT|INTERRES
   215  109  110 1    
   216  109  230 1    
   217  110  111 1    
   218  110  112 1    
   219  110  231 1    
   220  111  232 1    
   221  111  233 1    
   222  111  234 1    
   223  112  113 2    
   224  112  114 am   BACKBONE|DICT|INTERRES
   225  114  115 1    
   226  114  235 1    
   227  115  116 1    
   228  115  117 1    
   229  115  236 1    
   230  116  237 1    
   231  116  238 1    
   232  116  239 1    
   233  117  118 2    
   234  117  119 am   BACKBONE|DICT|INTERRES
   235  119  120 1    
   236  119  240 1    
   237  120  121 1    
   238  120  124 1    
   239  120  241 1    
   240  121  122 am   BACKBONE|DICT|INTERRES
   241  121  123 2    
   242  122  242 1    
   243  122  243 1    
   244  124  125 1    
   245  124  244 1    
   246  124  245 1    
   247  125  126 1    
   248  126  246 1    
   249  126  247 1    
@<TRIPOS>SUBSTRUCTURE
     1 UNK         1 GROUP             0       ****    0 ROOT    
