@<TRIPOS>MOLECULE
3R540
247   249    1
SMALL
USER_CHARGES


@<TRIPOS>ATOM
      1 CA         -1.0595  -14.4070  -47.6526 C.3       0 UNK        -0.1800 
      2 C           0.3826  -14.0000  -47.9100 C.2       0 UNK         0.5000 
      3 O           0.8552  -13.0214  -47.3331 O.2       0 UNK        -0.5000 
      4 N           1.0795  -14.7536  -48.7696 N.am      1 UNK        -0.5000 
      5 CA          2.4502  -14.5097  -49.2439 C.3       1 UNK         0.1400 
      6 C6          2.9004  -15.5735  -50.2781 C.3       23 UNK        -0.0398 
      7 S7          2.6229  -17.3028  -49.7363 S.3       23 UNK        -0.2404 
      8 C8          1.7169  -17.9981  -51.1542 C.3       23 UNK        -0.0205 
      9 C9          0.3021  -17.4491  -51.2727 C.ar      23 UNK        -0.0193 
     10 C10        -0.0032  -16.4779  -52.2307 C.ar      23 UNK        -0.1150 
     11 C11        -1.3122  -16.0099  -52.3762 C.ar      23 UNK        -0.0193 
     12 C12        -2.3199  -16.5144  -51.5492 C.ar      23 UNK        -0.1150 
     13 C13        -2.0287  -17.4861  -50.5899 C.ar      23 UNK        -0.0193 
     14 C14        -0.7145  -17.9430  -50.4517 C.ar      23 UNK        -0.1150 
     15 C15        -3.1329  -18.0735  -49.7263 C.3       23 UNK        -0.0205 
     16 S16        -2.9272  -17.5691  -47.9948 S.3       23 UNK        -0.2404 
     17 C17        -3.9147  -18.8058  -47.0811 C.3       23 UNK        -0.0398 
     18 CA         -3.5331  -20.2964  -47.3157 C.3       11 UNK         0.1400 
     19 N          -2.1040  -20.4844  -47.5835 N.am      11 UNK        -0.5000 
     20 C          -1.4679  -21.6418  -47.8080 C.2       10 UNK         0.5000 
     21 O          -2.0328  -22.7322  -47.8808 O.2       10 UNK        -0.5000 
     22 CA          0.0673  -21.5849  -47.9222 C.3       10 UNK         0.1400 
     23 CB          0.4931  -21.6948  -49.3939 C.3       10 UNK        -0.1800 
     24 N           0.6794  -20.3915  -47.3245 N.am      10 UNK        -0.5000 
     25 C           0.5418  -19.9935  -46.0508 C.2       9 UNK         0.5000 
     26 O          -0.1446  -20.5889  -45.2139 O.2       9 UNK        -0.5000 
     27 CA          1.2248  -18.6646  -45.6969 C.3       9 UNK         0.1400 
     28 CB          0.4309  -17.4799  -46.2710 C.3       9 UNK        -0.1800 
     29 N           1.3378  -18.4826  -44.2547 N.am      9 UNK        -0.5000 
     30 C           2.2810  -19.0334  -43.4809 C.2       8 UNK         0.5000 
     31 O           3.1617  -19.7833  -43.9032 O.2       8 UNK        -0.5000 
     32 CA          2.2691  -18.6398  -41.9923 C.3       8 UNK         0.1400 
     33 CB          3.3284  -17.5581  -41.7266 C.3       8 UNK        -0.1800 
     34 N           0.9632  -18.1392  -41.5582 N.am      8 UNK        -0.5000 
     35 C          -0.0550  -18.9242  -41.1803 C.2       7 UNK         0.5000 
     36 O           0.0253  -20.1487  -41.0837 O.2       7 UNK        -0.5000 
     37 CA         -1.3895  -18.2247  -40.8650 C.3       7 UNK         0.1400 
     38 CB         -1.4877  -17.9018  -39.3668 C.3       7 UNK        -0.1800 
     39 N          -1.5812  -17.0001  -41.6455 N.am      7 UNK        -0.5000 
     40 C          -1.9106  -16.9804  -42.9470 C.2       6 UNK         0.5000 
     41 O          -2.0642  -18.0032  -43.6146 O.2       6 UNK        -0.5000 
     42 CA         -2.0511  -15.6085  -43.6414 C.3       6 UNK         0.1400 
     43 CB         -3.2629  -15.5458  -44.5919 C.3       6 UNK        -0.1800 
     44 N          -2.0300  -14.4665  -42.7238 N.am      6 UNK        -0.5000 
     45 C          -2.9548  -14.0995  -41.8229 C.2       5 UNK         0.5000 
     46 O          -4.0421  -14.6611  -41.6852 O.2       5 UNK        -0.5000 
     47 CA         -2.5769  -12.9107  -40.9074 C.3       5 UNK         0.1400 
     48 CB         -3.2838  -12.9702  -39.5370 C.3       5 UNK        -0.1800 
     49 N          -1.1252  -12.7426  -40.7341 N.am      5 UNK        -0.5000 
     50 C          -0.2673  -13.6412  -40.2254 C.2       4 UNK         0.5000 
     51 O          -0.6074  -14.7497  -39.8103 O.2       4 UNK        -0.5000 
     52 CA          1.2245  -13.2513  -40.2766 C.3       4 UNK         0.1400 
     53 CB          2.1555  -14.4057  -39.8537 C.3       4 UNK        -0.1800 
     54 N           1.6212  -12.7284  -41.5921 N.am      4 UNK        -0.5000 
     55 C           1.5131  -13.3480  -42.7785 C.2       3 UNK         0.5000 
     56 O           1.0202  -14.4702  -42.9219 O.2       3 UNK        -0.5000 
     57 CA          1.9858  -12.5720  -44.0283 C.3       3 UNK         0.1400 
     58 CB          2.8297  -11.3139  -43.7216 C.3       3 UNK        -0.1800 
     59 N           2.6745  -13.4441  -44.9823 N.am      3 UNK        -0.5000 
     60 C           3.8033  -14.1396  -44.7729 C.2       2 UNK         0.5000 
     61 O           4.4708  -14.0630  -43.7403 O.2       2 UNK        -0.5000 
     62 CA          4.2696  -15.0974  -45.8884 C.3       2 UNK         0.1400 
     63 CB          4.3982  -16.5291  -45.3504 C.3       2 UNK        -0.1800 
     64 N           3.3687  -15.1165  -47.0435 N.am      2 UNK        -0.5000 
     65 C           3.5073  -14.3454  -48.1286 C.2       1 UNK         0.5000 
     66 O           4.4134  -13.5230  -48.2708 O.2       1 UNK        -0.5000 
     67 C          -4.0169  -21.1510  -46.1255 C.2       11 UNK         0.5000 
     68 O          -5.1061  -21.7210  -46.1846 O.2       11 UNK        -0.5000 
     69 N          -3.1752  -21.2356  -45.0872 N.am      12 UNK        -0.5000 
     70 CA         -3.3891  -22.0606  -43.9050 C.3       12 UNK         0.1400 
     71 CB         -3.1212  -21.2160  -42.6520 C.3       12 UNK        -0.1800 
     72 C          -2.4717  -23.2914  -43.9300 C.2       12 UNK         0.5000 
     73 O          -2.9443  -24.3974  -43.6686 O.2       12 UNK        -0.5000 
     74 N          -1.1850  -23.0909  -44.2553 N.am      13 UNK        -0.5000 
     75 CA         -0.1366  -24.1119  -44.1623 C.3       13 UNK         0.1400 
     76 CB          1.2383  -23.4407  -44.3046 C.3       13 UNK        -0.1800 
     77 C          -0.2816  -25.2733  -45.1645 C.2       13 UNK         0.5000 
     78 O           0.1957  -26.3723  -44.8794 O.2       13 UNK        -0.5000 
     79 N          -0.9382  -25.0201  -46.3027 N.am      14 UNK        -0.5000 
     80 CA         -1.2317  -26.0056  -47.3442 C.3       14 UNK         0.1400 
     81 CB         -0.3452  -25.7161  -48.5690 C.3       14 UNK        -0.1800 
     82 C          -2.7274  -25.9980  -47.7119 C.2       14 UNK         0.5000 
     83 O          -3.0881  -26.5070  -48.7730 O.2       14 UNK        -0.5000 
     84 N          -3.5704  -25.3873  -46.8620 N.am      15 UNK        -0.5000 
     85 CA         -5.0211  -25.2090  -47.0244 C.3       15 UNK         0.1400 
     86 CB         -5.7431  -26.5551  -46.8105 C.3       15 UNK        -0.1800 
     87 C          -5.4261  -24.5238  -48.3523 C.2       15 UNK         0.5000 
     88 O          -6.4913  -24.8171  -48.8974 O.2       15 UNK        -0.5000 
     89 N          -4.5439  -23.6503  -48.8604 N.am      16 UNK        -0.5000 
     90 CA         -4.6008  -22.9330  -50.1363 C.3       16 UNK         0.1400 
     91 CB         -5.8573  -22.0435  -50.2333 C.3       16 UNK        -0.1800 
     92 C          -4.4238  -23.8241  -51.3842 C.2       16 UNK         0.5000 
     93 O          -4.5319  -23.3082  -52.4970 O.2       16 UNK        -0.5000 
     94 N          -4.1044  -25.1169  -51.2171 N.am      17 UNK        -0.5000 
     95 CA         -3.9054  -26.0566  -52.3255 C.3       17 UNK         0.1400 
     96 CB         -3.8677  -27.4955  -51.7900 C.3       17 UNK        -0.1800 
     97 C          -2.6380  -25.7460  -53.1417 C.2       17 UNK         0.5000 
     98 O          -2.6550  -25.8757  -54.3657 O.2       17 UNK        -0.5000 
     99 N          -1.5762  -25.3083  -52.4502 N.am      18 UNK        -0.5000 
    100 CA        -0.3253  -24.8569  -53.0632 C.3       18 UNK         0.1400 
    101 CB         0.8143  -24.9878  -52.0415 C.3       18 UNK        -0.1800 
    102 C         -0.4160  -23.4153  -53.6027 C.2       18 UNK         0.5000 
    103 O          0.3461  -23.0618  -54.5028 O.2       18 UNK        -0.5000 
    104 N         -1.3392  -22.6126  -53.0520 N.am      19 UNK        -0.5000 
    105 CA        -1.6301  -21.2514  -53.5066 C.3       19 UNK         0.1400 
    106 CB        -2.3775  -20.4895  -52.4030 C.3       19 UNK        -0.1800 
    107 C         -2.4395  -21.2531  -54.8151 C.2       19 UNK         0.5000 
    108 O         -2.1429  -20.4638  -55.7133 O.2       19 UNK        -0.5000 
    109 N         -3.4267  -22.1590  -54.8989 N.am      20 UNK        -0.5000 
    110 CA        -4.2824  -22.4449  -56.0513 C.3       20 UNK         0.1400 
    111 CB        -3.4761  -23.2075  -57.1262 C.3       20 UNK        -0.1800 
    112 C         -4.9888  -21.1762  -56.5714 C.2       20 UNK         0.5000 
    113 O         -5.8266  -20.6187  -55.8598 O.2       20 UNK        -0.5000 
    114 N         -4.6131  -20.7178  -57.7737 N.am      21 UNK        -0.5000 
    115 CA        -5.1216  -19.5126  -58.4345 C.3       21 UNK         0.1400 
    116 CB        -4.5127  -19.4272  -59.8426 C.3       21 UNK        -0.1800 
    117 C         -4.8736  -18.2018  -57.6587 C.2       21 UNK         0.5000 
    118 O         -5.5882  -17.2260  -57.8925 O.2       21 UNK        -0.5000 
    119 N         -3.8926  -18.1994  -56.7451 N.am      22 UNK        -0.5000 
    120 CA        -3.6511  -17.1059  -55.7908 C.3       22 UNK         0.1400 
    121 C         -4.7226  -17.0085  -54.6607 C.2       22 UNK         0.5000 
    122 N         -5.5389  -18.0292  -54.4183 N.am      22 UNK        -0.7600 
    123 O         -4.8358  -15.9786  -54.0043 O.2       22 UNK        -0.5000 
    124 C124       -2.2105  -17.1746  -55.2123 C.3       23 UNK        -0.0398 
    125 S125       -1.3567  -15.5593  -55.1434 S.3       23 UNK        -0.2404 
    126 C126       -1.6481  -14.9731  -53.4386 C.3       23 UNK        -0.0205 
    127 H127       -1.6988  -13.5259  -47.5982 H         1 UNK         0.0600 
    128 H128       -1.1386  -14.9459  -46.7096 H         1 UNK         0.0600 
    129 H129       -1.4379  -15.0465  -48.4502 H         1 UNK         0.0600 
    130 H130        0.6266  -15.5511  -49.1944 H         1 UNK         0.3000 
    131 H131        2.4186  -13.5500  -49.7639 H         1 UNK         0.0600 
    132 H132        2.3684  -15.3983  -51.2121 H         1 UNK         0.0800 
    133 H133        3.9553  -15.4540  -50.5323 H         1 UNK         0.0800 
    134 H134        1.6734  -19.0823  -51.0444 H         1 UNK         0.0800 
    135 H135        2.2806  -17.8130  -52.0700 H         1 UNK         0.0800 
    136 H136        0.7713  -16.0987  -52.8824 H         1 UNK         0.1150 
    137 H137       -3.3359  -16.1636  -51.6654 H         1 UNK         0.1150 
    138 H138       -0.4882  -18.6914  -49.7081 H         1 UNK         0.1150 
    139 H139       -4.1170  -17.7591  -50.0771 H         1 UNK         0.0800 
    140 H140       -3.1051  -19.1582  -49.8186 H         1 UNK         0.0800 
    141 H141       -4.9690  -18.6508  -47.3154 H         1 UNK         0.0800 
    142 H142       -3.8052  -18.5413  -46.0271 H         1 UNK         0.0800 
    143 H143       -4.0626  -20.6460  -48.2018 H         1 UNK         0.0600 
    144 H144       -1.5498  -19.6426  -47.5345 H         1 UNK         0.3000 
    145 H145        0.4554  -22.4565  -47.3934 H         1 UNK         0.0600 
    146 H146        0.0302  -22.5581  -49.8706 H         1 UNK         0.0600 
    147 H147        1.5728  -21.8135  -49.4857 H         1 UNK         0.0600 
    148 H148        0.2014  -20.8196  -49.9714 H         1 UNK         0.0600 
    149 H149        1.2618  -19.8416  -47.9395 H         1 UNK         0.3000 
    150 H150        2.2251  -18.6630  -46.1352 H         1 UNK         0.0600 
    151 H151        0.4077  -17.5070  -47.3610 H         1 UNK         0.0600 
    152 H152        0.8739  -16.5283  -45.9779 H         1 UNK         0.0600 
    153 H153       -0.6027  -17.4843  -45.9232 H         1 UNK         0.0600 
    154 H154        0.6017  -17.9585  -43.8078 H         1 UNK         0.3000 
    155 H155        2.5325  -19.5259  -41.4108 H         1 UNK         0.0600 
    156 H156        3.1109  -16.6370  -42.2699 H         1 UNK         0.0600 
    157 H157        4.3183  -17.8942  -42.0382 H         1 UNK         0.0600 
    158 H158        3.3892  -17.3187  -40.6650 H         1 UNK         0.0600 
    159 H159        0.8166  -17.1403  -41.5994 H         1 UNK         0.3000 
    160 H160       -2.1984  -18.9152  -41.1093 H         1 UNK         0.0600 
    161 H161       -0.6613  -17.2733  -39.0337 H         1 UNK         0.0600 
    162 H162       -1.4619  -18.8151  -38.7712 H         1 UNK         0.0600 
    163 H163       -2.4189  -17.3855  -39.1324 H         1 UNK         0.0600 
    164 H164       -1.4370  -16.1242  -41.1545 H         1 UNK         0.3000 
    165 H165       -1.1564  -15.5023  -44.2557 H         1 UNK         0.0600 
    166 H166       -3.3452  -14.5680  -45.0662 H         1 UNK         0.0600 
    167 H167       -4.2001  -15.7528  -44.0753 H         1 UNK         0.0600 
    168 H168       -3.1651  -16.2810  -45.3882 H         1 UNK         0.0600 
    169 H169       -1.1463  -13.9745  -42.7021 H         1 UNK         0.3000 
    170 H170       -2.9289  -12.0146  -41.4204 H         1 UNK         0.0600 
    171 H171       -4.3678  -12.9413  -39.6531 H         1 UNK         0.0600 
    172 H172       -3.0386  -13.8833  -38.9935 H         1 UNK         0.0600 
    173 H173       -3.0042  -12.1223  -38.9118 H         1 UNK         0.0600 
    174 H174       -0.7448  -11.8699  -41.0734 H         1 UNK         0.3000 
    175 H175        1.3571  -12.4388  -39.5609 H         1 UNK         0.0600 
    176 H176        2.0237  -15.2792  -40.4908 H         1 UNK         0.0600 
    177 H177        3.2031  -14.1090  -39.9037 H         1 UNK         0.0600 
    178 H178        1.9526  -14.7166  -38.8283 H         1 UNK         0.0600 
    179 H179        2.0310  -11.8048  -41.5845 H         1 UNK         0.3000 
    180 H180        1.0773  -12.2404  -44.5328 H         1 UNK         0.0600 
    181 H181        3.7212  -11.5484  -43.1390 H         1 UNK         0.0600 
    182 H182        2.2525  -10.5736  -43.1666 H         1 UNK         0.0600 
    183 H183        3.1563  -10.8319  -44.6433 H         1 UNK         0.0600 
    184 H184        2.1999  -13.5562  -45.8713 H         1 UNK         0.3000 
    185 H185        5.2628  -14.7696  -46.2019 H         1 UNK         0.0600 
    186 H186        5.1462  -16.5883  -44.5589 H         1 UNK         0.0600 
    187 H187        3.4545  -16.8696  -44.9317 H         1 UNK         0.0600 
    188 H188        4.6959  -17.2272  -46.1330 H         1 UNK         0.0600 
    189 H189        2.5963  -15.7643  -47.0132 H         1 UNK         0.3000 
    190 H190       -2.2889  -20.7455  -45.1383 H         1 UNK         0.3000 
    191 H191       -4.4222  -22.4117  -43.8607 H         1 UNK         0.0600 
    192 H192       -3.2550  -21.8034  -41.7429 H         1 UNK         0.0600 
    193 H193       -3.8022  -20.3664  -42.5980 H         1 UNK         0.0600 
    194 H194       -2.1033  -20.8260  -42.6483 H         1 UNK         0.0600 
    195 H195       -0.8683  -22.1509  -44.4808 H         1 UNK         0.3000 
    196 H196       -0.1926  -24.5449  -43.1613 H         1 UNK         0.0600 
    197 H197        1.3730  -22.9981  -45.2909 H         1 UNK         0.0600 
    198 H198        1.3716  -22.6510  -43.5644 H         1 UNK         0.0600 
    199 H199        2.0426  -24.1626  -44.1580 H         1 UNK         0.0600 
    200 H200       -1.2974  -24.0882  -46.4728 H         1 UNK         0.3000 
    201 H201       -1.0110  -27.0145  -46.9908 H         1 UNK         0.0600 
    202 H202       -0.5884  -24.7539  -49.0181 H         1 UNK         0.0600 
    203 H203       -0.4718  -26.4800  -49.3372 H         1 UNK         0.0600 
    204 H204        0.7107  -25.7028  -48.2985 H         1 UNK         0.0600 
    205 H205       -3.1826  -25.0225  -46.0028 H         1 UNK         0.3000 
    206 H206       -5.3365  -24.5334  -46.2282 H         1 UNK         0.0600 
    207 H207       -5.4588  -27.0078  -45.8606 H         1 UNK         0.0600 
    208 H208       -6.8255  -26.4231  -46.7932 H         1 UNK         0.0600 
    209 H209       -5.5116  -27.2666  -47.6040 H         1 UNK         0.0600 
    210 H210       -3.6863  -23.4954  -48.3357 H         1 UNK         0.3000 
    211 H211       -3.7359  -22.2692  -50.1274 H         1 UNK         0.0600 
    212 H212       -5.7813  -21.3521  -51.0734 H         1 UNK         0.0600 
    213 H213       -5.9962  -21.4460  -49.3328 H         1 UNK         0.0600 
    214 H214       -6.7609  -22.6347  -50.3831 H         1 UNK         0.0600 
    215 H215       -3.9859  -25.4881  -50.2796 H         1 UNK         0.3000 
    216 H216       -4.7629  -25.9701  -52.9962 H         1 UNK         0.0600 
    217 H217       -2.9959  -27.6697  -51.1585 H         1 UNK         0.0600 
    218 H218       -3.8245  -28.2135  -52.6097 H         1 UNK         0.0600 
    219 H219       -4.7579  -27.7230  -51.2033 H         1 UNK         0.0600 
    220 H220       -1.6445  -25.2579  -51.4446 H         1 UNK         0.3000 
    221 H221       -0.0921  -25.5086  -53.9082 H         1 UNK         0.0600 
    222 H222        0.9220  -26.0177  -51.7008 H         1 UNK         0.0600 
    223 H223        0.6489  -24.3614  -51.1666 H         1 UNK         0.0600 
    224 H224        1.7676  -24.6907  -52.4805 H         1 UNK         0.0600 
    225 H225       -1.9472  -22.9988  -52.3480 H         1 UNK         0.3000 
    226 H226       -0.6851  -20.7357  -53.6917 H         1 UNK         0.0600 
    227 H227       -3.3663  -20.9053  -52.2133 H         1 UNK         0.0600 
    228 H228       -1.8191  -20.5053  -51.4677 H         1 UNK         0.0600 
    229 H229       -2.5178  -19.4458  -52.6831 H         1 UNK         0.0600 
    230 H230       -3.6569  -22.6870  -54.0613 H         1 UNK         0.3000 
    231 H231       -5.0704  -23.1096  -55.6941 H         1 UNK         0.0600 
    232 H232       -2.6282  -22.6297  -57.4959 H         1 UNK         0.0600 
    233 H233       -4.1031  -23.4707  -57.9790 H         1 UNK         0.0600 
    234 H234       -3.0819  -24.1398  -56.7210 H         1 UNK         0.0600 
    235 H235       -3.8908  -21.2234  -58.2656 H         1 UNK         0.3000 
    236 H236       -6.2028  -19.6262  -58.5354 H         1 UNK         0.0600 
    237 H237       -4.7606  -20.3081  -60.4351 H         1 UNK         0.0600 
    238 H238       -4.8926  -18.5582  -60.3817 H         1 UNK         0.0600 
    239 H239       -3.4260  -19.3408  -59.8051 H         1 UNK         0.0600 
    240 H240       -3.3548  -19.0475  -56.5992 H         1 UNK         0.3000 
    241 H241       -3.7389  -16.1797  -56.3621 H         1 UNK         0.0600 
    242 H242       -5.5075  -18.8810  -54.9691 H         1 UNK         0.3800 
    243 H243       -6.2322  -17.9366  -53.6938 H         1 UNK         0.3800 
    244 H244       -2.1837  -17.6777  -54.2463 H         1 UNK         0.0800 
    245 H245       -1.5826  -17.7925  -55.8557 H         1 UNK         0.0800 
    246 H246       -1.0388  -14.0849  -53.2668 H         1 UNK         0.0800 
    247 H247       -2.6842  -14.6462  -53.3479 H         1 UNK         0.0800 
@<TRIPOS>BOND
     1    1    2 1    
     2    1  127 1    
     3    1  128 1    
     4    1  129 1    
     5    2    3 2    
     6    2    4 am   BACKBONE|DICT|INTERRES
     7    4    5 1    
     8    4  130 1    
     9    5    6 1    
    10    5   65 1    
    11    5  131 1    
    12    6    7 1    
    13    6  132 1    
    14    6  133 1    
    15    7    8 1    
    16    8    9 1    
    17    8  134 1    
    18    8  135 1    
    19    9   10 ar   
    20    9   14 ar   
    21   10   11 ar   
    22   10  136 1    
    23   11   12 ar   
    24   11  126 1    
    25   12   13 ar   
    26   12  137 1    
    27   13   14 ar   
    28   13   15 1    
    29   14  138 1    
    30   15   16 1    
    31   15  139 1    
    32   15  140 1    
    33   16   17 1    
    34   17   18 1    
    35   17  141 1    
    36   17  142 1    
    37   18   19 1    
    38   18   67 1    
    39   18  143 1    
    40   19   20 am   BACKBONE|DICT|INTERRES
    41   19  144 1    
    42   20   21 2    
    43   20   22 1    
    44   22   23 1    
    45   22   24 1    
    46   22  145 1    
    47   23  146 1    
    48   23  147 1    
    49   23  148 1    
    50   24   25 am   BACKBONE|DICT|INTERRES
    51   24  149 1    
    52   25   26 2    
    53   25   27 1    
    54   27   28 1    
    55   27   29 1    
    56   27  150 1    
    57   28  151 1    
    58   28  152 1    
    59   28  153 1    
    60   29   30 am   BACKBONE|DICT|INTERRES
    61   29  154 1    
    62   30   31 2    
    63   30   32 1    
    64   32   33 1    
    65   32   34 1    
    66   32  155 1    
    67   33  156 1    
    68   33  157 1    
    69   33  158 1    
    70   34   35 am   BACKBONE|DICT|INTERRES
    71   34  159 1    
    72   35   36 2    
    73   35   37 1    
    74   37   38 1    
    75   37   39 1    
    76   37  160 1    
    77   38  161 1    
    78   38  162 1    
    79   38  163 1    
    80   39   40 am   BACKBONE|DICT|INTERRES
    81   39  164 1    
    82   40   41 2    
    83   40   42 1    
    84   42   43 1    
    85   42   44 1    
    86   42  165 1    
    87   43  166 1    
    88   43  167 1    
    89   43  168 1    
    90   44   45 am   BACKBONE|DICT|INTERRES
    91   44  169 1    
    92   45   46 2    
    93   45   47 1    
    94   47   48 1    
    95   47   49 1    
    96   47  170 1    
    97   48  171 1    
    98   48  172 1    
    99   48  173 1    
   100   49   50 am   BACKBONE|DICT|INTERRES
   101   49  174 1    
   102   50   51 2    
   103   50   52 1    
   104   52   53 1    
   105   52   54 1    
   106   52  175 1    
   107   53  176 1    
   108   53  177 1    
   109   53  178 1    
   110   54   55 am   BACKBONE|DICT|INTERRES
   111   54  179 1    
   112   55   56 2    
   113   55   57 1    
   114   57   58 1    
   115   57   59 1    
   116   57  180 1    
   117   58  181 1    
   118   58  182 1    
   119   58  183 1    
   120   59   60 am   BACKBONE|DICT|INTERRES
   121   59  184 1    
   122   60   61 2    
   123   60   62 1    
   124   62   63 1    
   125   62   64 1    
   126   62  185 1    
   127   63  186 1    
   128   63  187 1    
   129   63  188 1    
   130   64   65 am   BACKBONE|DICT|INTERRES
   131   64  189 1    
   132   65   66 2    
   133   67   68 2    
   134   67   69 am   BACKBONE|DICT|INTERRES
   135   69   70 1    
   136   69  190 1    
   137   70   71 1    
   138   70   72 1    
   139   70  191 1    
   140   71  192 1    
   141   71  193 1    
   142   71  194 1    
   143   72   73 2    
   144   72   74 am   BACKBONE|DICT|INTERRES
   145   74   75 1    
   146   74  195 1    
   147   75   76 1    
   148   75   77 1    
   149   75  196 1    
   150   76  197 1    
   151   76  198 1    
   152   76  199 1    
   153   77   78 2    
   154   77   79 am   BACKBONE|DICT|INTERRES
   155   79   80 1    
   156   79  200 1    
   157   80   81 1    
   158   80   82 1    
   159   80  201 1    
   160   81  202 1    
   161   81  203 1    
   162   81  204 1    
   163   82   83 2    
   164   82   84 am   BACKBONE|DICT|INTERRES
   165   84   85 1    
   166   84  205 1    
   167   85   86 1    
   168   85   87 1    
   169   85  206 1    
   170   86  207 1    
   171   86  208 1    
   172   86  209 1    
   173   87   88 2    
   174   87   89 am   BACKBONE|DICT|INTERRES
   175   89   90 1    
   176   89  210 1    
   177   90   91 1    
   178   90   92 1    
   179   90  211 1    
   180   91  212 1    
   181   91  213 1    
   182   91  214 1    
   183   92   93 2    
   184   92   94 am   BACKBONE|DICT|INTERRES
   185   94   95 1    
   186   94  215 1    
   187   95   96 1    
   188   95   97 1    
   189   95  216 1    
   190   96  217 1    
   191   96  218 1    
   192   96  219 1    
   193   97   98 2    
   194   97   99 am   BACKBONE|DICT|INTERRES
   195   99  100 1    
   196   99  220 1    
   197  100  101 1    
   198  100  102 1    
   199  100  221 1    
   200  101  222 1    
   201  101  223 1    
   202  101  224 1    
   203  102  103 2    
   204  102  104 am   BACKBONE|DICT|INTERRES
   205  104  105 1    
   206  104  225 1    
   207  105  106 1    
   208  105  107 1    
   209  105  226 1    
   210  106  227 1    
   211  106  228 1    
   212  106  229 1    
   213  107  108 2    
   214  107  109 am   BACKBONE|DICT|INTERRES
   215  109  110 1    
   216  109  230 1    
   217  110  111 1    
   218  110  112 1    
   219  110  231 1    
   220  111  232 1    
   221  111  233 1    
   222  111  234 1    
   223  112  113 2    
   224  112  114 am   BACKBONE|DICT|INTERRES
   225  114  115 1    
   226  114  235 1    
   227  115  116 1    
   228  115  117 1    
   229  115  236 1    
   230  116  237 1    
   231  116  238 1    
   232  116  239 1    
   233  117  118 2    
   234  117  119 am   BACKBONE|DICT|INTERRES
   235  119  120 1    
   236  119  240 1    
   237  120  121 1    
   238  120  124 1    
   239  120  241 1    
   240  121  122 am   BACKBONE|DICT|INTERRES
   241  121  123 2    
   242  122  242 1    
   243  122  243 1    
   244  124  125 1    
   245  124  244 1    
   246  124  245 1    
   247  125  126 1    
   248  126  246 1    
   249  126  247 1    
@<TRIPOS>SUBSTRUCTURE
     1 UNK         1 GROUP             0       ****    0 ROOT    
