@<TRIPOS>MOLECULE
3R540
247   249    1
SMALL
USER_CHARGES


@<TRIPOS>ATOM
      1 CA          7.0076  -11.6028  -44.5907 C.3       0 UNK        -0.1800 
      2 C           5.6951  -12.2129  -45.0582 C.2       0 UNK         0.5000 
      3 O           4.6312  -11.6755  -44.7563 O.2       0 UNK        -0.5000 
      4 N           5.7648  -13.3182  -45.8124 N.am      1 UNK        -0.5000 
      5 CA          4.6323  -14.1036  -46.3316 C.3       1 UNK         0.1400 
      6 C6          5.1564  -15.3573  -47.0762 C.3       23 UNK        -0.0398 
      7 S7          3.9067  -16.6656  -47.3108 S.3       23 UNK        -0.2404 
      8 C8          3.9149  -16.8029  -49.1256 C.3       23 UNK        -0.0205 
      9 C9          2.9252  -17.8532  -49.5985 C.ar      23 UNK        -0.0193 
     10 C10         1.6668  -17.4739  -50.0701 C.ar      23 UNK        -0.1150 
     11 C11         0.7377  -18.4389  -50.4677 C.ar      23 UNK        -0.0193 
     12 C12         1.0735  -19.7932  -50.3847 C.ar      23 UNK        -0.1150 
     13 C13         2.3361  -20.1855  -49.9296 C.ar      23 UNK        -0.0193 
     14 C14         3.2626  -19.2080  -49.5518 C.ar      23 UNK        -0.1150 
     15 C15         2.6796  -21.6671  -49.8231 C.3       23 UNK        -0.0205 
     16 S16         3.3309  -22.1456  -48.1850 S.3       23 UNK        -0.2404 
     17 C17         2.0549  -21.4917  -47.0527 C.3       23 UNK        -0.0398 
     18 CA          1.0878  -22.5656  -46.5115 C.3       11 UNK         0.1400 
     19 N           0.2976  -22.0495  -45.3969 N.am      11 UNK        -0.5000 
     20 C          -0.4491  -22.7939  -44.5729 C.2       10 UNK         0.5000 
     21 O          -0.4773  -24.0239  -44.6010 O.2       10 UNK        -0.5000 
     22 CA         -1.3432  -22.0317  -43.5768 C.3       10 UNK         0.1400 
     23 CB         -0.5631  -21.6869  -42.2999 C.3       10 UNK        -0.1800 
     24 N          -1.9182  -20.8106  -44.1493 N.am      10 UNK        -0.5000 
     25 C          -2.7804  -20.7934  -45.1768 C.2       9 UNK         0.5000 
     26 O          -3.2124  -21.8102  -45.7184 O.2       9 UNK        -0.5000 
     27 CA         -3.2020  -19.4168  -45.7204 C.3       9 UNK         0.1400 
     28 CB         -4.2924  -18.7898  -44.8402 C.3       9 UNK        -0.1800 
     29 N          -2.0790  -18.4887  -45.8555 N.am      9 UNK        -0.5000 
     30 C          -1.0469  -18.6604  -46.6940 C.2       8 UNK         0.5000 
     31 O          -0.9560  -19.6067  -47.4745 O.2       8 UNK        -0.5000 
     32 CA          0.1020  -17.6378  -46.6046 C.3       8 UNK         0.1400 
     33 CB         -0.2632  -16.3317  -47.3221 C.3       8 UNK        -0.1800 
     34 N           0.4805  -17.3415  -45.2233 N.am      8 UNK        -0.5000 
     35 C           0.9481  -18.2454  -44.3516 C.2       7 UNK         0.5000 
     36 O           1.1683  -19.4221  -44.6336 O.2       7 UNK        -0.5000 
     37 CA          1.1407  -17.7690  -42.9037 C.3       7 UNK         0.1400 
     38 CB          2.4870  -17.0479  -42.7354 C.3       7 UNK        -0.1800 
     39 N           0.0434  -16.8999  -42.4762 N.am      7 UNK        -0.5000 
     40 C          -1.2051  -17.3291  -42.2388 C.2       6 UNK         0.5000 
     41 O          -1.5471  -18.5087  -42.3182 O.2       6 UNK        -0.5000 
     42 CA         -2.2573  -16.2586  -41.8929 C.3       6 UNK         0.1400 
     43 CB         -2.2029  -15.9091  -40.3984 C.3       6 UNK        -0.1800 
     44 N          -2.1013  -15.0367  -42.6828 N.am      6 UNK        -0.5000 
     45 C          -2.2904  -14.9621  -44.0079 C.2       5 UNK         0.5000 
     46 O          -2.6749  -15.9077  -44.6940 O.2       5 UNK        -0.5000 
     47 CA         -1.9472  -13.6221  -44.6886 C.3       5 UNK         0.1400 
     48 CB         -3.1797  -12.7073  -44.7284 C.3       5 UNK        -0.1800 
     49 N          -0.8345  -12.9045  -44.0603 N.am      5 UNK        -0.5000 
     50 C           0.4028  -13.3866  -43.8885 C.2       4 UNK         0.5000 
     51 O           0.7492  -14.5145  -44.2438 O.2       4 UNK        -0.5000 
     52 CA          1.4017  -12.4487  -43.1871 C.3       4 UNK         0.1400 
     53 CB          2.5906  -13.2118  -42.5775 C.3       4 UNK        -0.1800 
     54 N           1.9111  -11.4344  -44.1047 N.am      4 UNK        -0.5000 
     55 C           1.2443  -10.3516  -44.5252 C.2       3 UNK         0.5000 
     56 O           0.0974  -10.0764  -44.1686 O.2       3 UNK        -0.5000 
     57 CA          1.9793   -9.4215  -45.5042 C.3       3 UNK         0.1400 
     58 CB          2.9175   -8.4733  -44.7407 C.3       3 UNK        -0.1800 
     59 N           2.7609  -10.1842  -46.4780 N.am      3 UNK        -0.5000 
     60 C           2.3957  -10.4051  -47.7484 C.2       2 UNK         0.5000 
     61 O           1.3655   -9.9548  -48.2515 O.2       2 UNK        -0.5000 
     62 CA          3.3377  -11.2669  -48.6164 C.3       2 UNK         0.1400 
     63 CB          4.2799  -10.3713  -49.4354 C.3       2 UNK        -0.1800 
     64 N           4.1406  -12.2187  -47.8465 N.am      2 UNK        -0.5000 
     65 C           3.6449  -13.2830  -47.1988 C.2       1 UNK         0.5000 
     66 O           2.4565  -13.5987  -47.2381 O.2       1 UNK        -0.5000 
     67 C           0.1761  -23.1502  -47.6095 C.2       11 UNK         0.5000 
     68 O           0.3846  -24.2923  -48.0154 O.2       11 UNK        -0.5000 
     69 N          -0.8493  -22.3967  -48.0350 N.am      12 UNK        -0.5000 
     70 CA         -1.8346  -22.8201  -49.0361 C.3       12 UNK         0.1400 
     71 CB         -2.7475  -21.6394  -49.3934 C.3       12 UNK        -0.1800 
     72 C          -2.6596  -24.0533  -48.6137 C.2       12 UNK         0.5000 
     73 O          -3.0496  -24.8423  -49.4709 O.2       12 UNK        -0.5000 
     74 N          -2.8683  -24.2429  -47.3041 N.am      13 UNK        -0.5000 
     75 CA         -3.4795  -25.4449  -46.7317 C.3       13 UNK         0.1400 
     76 CB         -3.7699  -25.2150  -45.2415 C.3       13 UNK        -0.1800 
     77 C          -2.6444  -26.7266  -46.9422 C.2       13 UNK         0.5000 
     78 O          -3.2224  -27.8129  -46.9921 O.2       13 UNK        -0.5000 
     79 N          -1.3184  -26.5856  -47.0774 N.am      14 UNK        -0.5000 
     80 CA         -0.3909  -27.6795  -47.3656 C.3       14 UNK         0.1400 
     81 CB          0.9012  -27.4694  -46.5598 C.3       14 UNK        -0.1800 
     82 C          -0.0810  -27.7771  -48.8704 C.2       14 UNK         0.5000 
     83 O          -0.0487  -28.8813  -49.4142 O.2       14 UNK        -0.5000 
     84 N           0.1453  -26.6248  -49.5153 N.am      15 UNK        -0.5000 
     85 CA          0.5430  -26.5005  -50.9208 C.3       15 UNK         0.1400 
     86 CB          1.1994  -25.1243  -51.1212 C.3       15 UNK        -0.1800 
     87 C          -0.6066  -26.7000  -51.9302 C.2       15 UNK         0.5000 
     88 O          -0.3294  -26.8242  -53.1241 O.2       15 UNK        -0.5000 
     89 N          -1.8525  -26.7196  -51.4368 N.am      16 UNK        -0.5000 
     90 CA         -3.1304  -26.7287  -52.1562 C.3       16 UNK         0.1400 
     91 CB         -3.1908  -27.8178  -53.2491 C.3       16 UNK        -0.1800 
     92 C          -3.5138  -25.3312  -52.6839 C.2       16 UNK         0.5000 
     93 O          -2.7121  -24.3949  -52.6275 O.2       16 UNK        -0.5000 
     94 N          -4.7692  -25.2189  -53.1462 N.am      17 UNK        -0.5000 
     95 CA         -5.4794  -23.9758  -53.4759 C.3       17 UNK         0.1400 
     96 CB         -4.8139  -23.2261  -54.6502 C.3       17 UNK        -0.1800 
     97 C          -5.6842  -23.1000  -52.2220 C.2       17 UNK         0.5000 
     98 O          -5.3761  -21.9080  -52.2326 O.2       17 UNK        -0.5000 
     99 N          -6.1764  -23.7341  -51.1475 N.am      18 UNK        -0.5000 
    100 CA        -6.4289  -23.1168  -49.8439 C.3       18 UNK         0.1400 
    101 CB        -6.6715  -24.2244  -48.8096 C.3       18 UNK        -0.1800 
    102 C         -7.6106  -22.1317  -49.8640 C.2       18 UNK         0.5000 
    103 O         -7.5617  -21.1088  -49.1798 O.2       18 UNK        -0.5000 
    104 N         -8.6418  -22.4498  -50.6592 N.am      19 UNK        -0.5000 
    105 CA        -9.7719  -21.5691  -50.9445 C.3       19 UNK         0.1400 
    106 CB       -10.9006  -22.3829  -51.5976 C.3       19 UNK        -0.1800 
    107 C         -9.2986  -20.4265  -51.8572 C.2       19 UNK         0.5000 
    108 O         -8.8660  -20.6988  -52.9791 O.2       19 UNK        -0.5000 
    109 N         -9.3420  -19.1918  -51.3345 N.am      20 UNK        -0.5000 
    110 CA        -8.7210  -17.9851  -51.8960 C.3       20 UNK         0.1400 
    111 CB        -9.4076  -17.5618  -53.2124 C.3       20 UNK        -0.1800 
    112 C         -7.1928  -18.1658  -52.0256 C.2       20 UNK         0.5000 
    113 O         -6.6524  -18.0593  -53.1279 O.2       20 UNK        -0.5000 
    114 N         -6.5706  -18.4843  -50.8766 N.am      21 UNK        -0.5000 
    115 CA        -5.1857  -18.9056  -50.6218 C.3       21 UNK         0.1400 
    116 CB        -4.7428  -18.3598  -49.2526 C.3       21 UNK        -0.1800 
    117 C         -4.1562  -18.5583  -51.7141 C.2       21 UNK         0.5000 
    118 O         -3.7357  -17.4047  -51.8068 O.2       21 UNK        -0.5000 
    119 N         -3.8126  -19.5743  -52.5146 N.am      22 UNK        -0.5000 
    120 CA        -2.8744  -19.5792  -53.6497 C.3       22 UNK         0.1400 
    121 C         -3.2258  -18.6572  -54.8590 C.2       22 UNK         0.5000 
    122 N         -4.4068  -18.0560  -54.9278 N.am      22 UNK        -0.7600 
    123 O         -2.4318  -18.5243  -55.7868 O.2       22 UNK        -0.5000 
    124 C124       -1.3754  -19.5532  -53.2231 C.3       23 UNK        -0.0398 
    125 S125       -0.6894  -17.9168  -52.7812 S.3       23 UNK        -0.2404 
    126 C126       -0.6326  -18.0112  -50.9655 C.3       23 UNK        -0.0205 
    127 H127        7.0975  -10.5811  -44.9596 H         1 UNK         0.0600 
    128 H128        7.8686  -12.1704  -44.9442 H         1 UNK         0.0600 
    129 H129        7.0399  -11.5770  -43.5016 H         1 UNK         0.0600 
    130 H130        6.6792  -13.6885  -46.0302 H         1 UNK         0.3000 
    131 H131        4.0707  -14.4427  -45.4588 H         1 UNK         0.0600 
    132 H132        5.6015  -15.0777  -48.0328 H         1 UNK         0.0800 
    133 H133        5.9631  -15.8141  -46.5012 H         1 UNK         0.0800 
    134 H134        4.9173  -17.0637  -49.4685 H         1 UNK         0.0800 
    135 H135        3.6768  -15.8320  -49.5634 H         1 UNK         0.0800 
    136 H136        1.4052  -16.4260  -50.1149 H         1 UNK         0.1150 
    137 H137        0.3485  -20.5420  -50.6687 H         1 UNK         0.1150 
    138 H138        4.2364  -19.5034  -49.1872 H         1 UNK         0.1150 
    139 H139        1.8044  -22.2808  -50.0404 H         1 UNK         0.0800 
    140 H140        3.4222  -21.9120  -50.5832 H         1 UNK         0.0800 
    141 H141        1.5037  -20.6693  -47.5070 H         1 UNK         0.0800 
    142 H142        2.5960  -21.0444  -46.2181 H         1 UNK         0.0800 
    143 H143        1.6915  -23.3872  -46.1196 H         1 UNK         0.0600 
    144 H144        0.3233  -21.0439  -45.2535 H         1 UNK         0.3000 
    145 H145       -2.1687  -22.6920  -43.3030 H         1 UNK         0.0600 
    146 H146       -1.2093  -21.2176  -41.5580 H         1 UNK         0.0600 
    147 H147       -0.1430  -22.5844  -41.8443 H         1 UNK         0.0600 
    148 H148        0.2622  -21.0047  -42.5045 H         1 UNK         0.0600 
    149 H149       -1.6444  -19.9327  -43.7189 H         1 UNK         0.3000 
    150 H150       -3.6229  -19.5746  -46.7145 H         1 UNK         0.0600 
    151 H151       -5.1442  -19.4626  -44.7338 H         1 UNK         0.0600 
    152 H152       -4.6634  -17.8620  -45.2762 H         1 UNK         0.0600 
    153 H153       -3.9228  -18.5644  -43.8395 H         1 UNK         0.0600 
    154 H154       -2.1132  -17.6491  -45.2840 H         1 UNK         0.3000 
    155 H155        0.9718  -18.0702  -47.1038 H         1 UNK         0.0600 
    156 H156       -1.1074  -15.8328  -46.8500 H         1 UNK         0.0600 
    157 H157       -0.5401  -16.5195  -48.3574 H         1 UNK         0.0600 
    158 H158        0.5783  -15.6385  -47.3287 H         1 UNK         0.0600 
    159 H159        0.3776  -16.3805  -44.9127 H         1 UNK         0.3000 
    160 H160        1.1487  -18.6491  -42.2573 H         1 UNK         0.0600 
    161 H161        2.5780  -16.1917  -43.4033 H         1 UNK         0.0600 
    162 H162        3.3150  -17.7211  -42.9607 H         1 UNK         0.0600 
    163 H163        2.6233  -16.6951  -41.7132 H         1 UNK         0.0600 
    164 H164        0.2276  -15.9069  -42.4787 H         1 UNK         0.3000 
    165 H165       -3.2419  -16.6785  -42.1093 H         1 UNK         0.0600 
    166 H166       -2.9950  -15.2106  -40.1278 H         1 UNK         0.0600 
    167 H167       -2.3343  -16.8013  -39.7846 H         1 UNK         0.0600 
    168 H168       -1.2485  -15.4586  -40.1228 H         1 UNK         0.0600 
    169 H169       -1.7901  -14.2103  -42.1945 H         1 UNK         0.3000 
    170 H170       -1.6528  -13.8399  -45.7164 H         1 UNK         0.0600 
    171 H171       -4.0196  -13.2044  -45.2160 H         1 UNK         0.0600 
    172 H172       -3.5025  -12.4229  -43.7261 H         1 UNK         0.0600 
    173 H173       -2.9750  -11.7940  -45.2874 H         1 UNK         0.0600 
    174 H174       -1.0021  -11.9390  -43.8037 H         1 UNK         0.3000 
    175 H175        0.8770  -11.9504  -42.3693 H         1 UNK         0.0600 
    176 H176        3.1821  -13.7165  -43.3413 H         1 UNK         0.0600 
    177 H177        3.2547  -12.5375  -42.0366 H         1 UNK         0.0600 
    178 H178        2.2492  -13.9688  -41.8707 H         1 UNK         0.0600 
    179 H179        2.8672  -11.5703  -44.4250 H         1 UNK         0.3000 
    180 H180        1.2283   -8.8118  -46.0109 H         1 UNK         0.0600 
    181 H181        3.6983   -9.0181  -44.2082 H         1 UNK         0.0600 
    182 H182        2.3657   -7.8863  -44.0055 H         1 UNK         0.0600 
    183 H183        3.4030   -7.7716  -45.4190 H         1 UNK         0.0600 
    184 H184        3.5972  -10.6353  -46.1241 H         1 UNK         0.3000 
    185 H185        2.7155  -11.8338  -49.3123 H         1 UNK         0.0600 
    186 H186        3.7153   -9.6656  -50.0461 H         1 UNK         0.0600 
    187 H187        4.9434   -9.7914  -48.7926 H         1 UNK         0.0600 
    188 H188        4.8977  -10.9622  -50.1120 H         1 UNK         0.0600 
    189 H189        5.1257  -12.0168  -47.7570 H         1 UNK         0.3000 
    190 H190       -0.9477  -21.4478  -47.6791 H         1 UNK         0.3000 
    191 H191       -1.2840  -23.0952  -49.9371 H         1 UNK         0.0600 
    192 H192       -3.3741  -21.3436  -48.5516 H         1 UNK         0.0600 
    193 H193       -3.4011  -21.8983  -50.2263 H         1 UNK         0.0600 
    194 H194       -2.1666  -20.7714  -49.7021 H         1 UNK         0.0600 
    195 H195       -2.6038  -23.5068  -46.6578 H         1 UNK         0.3000 
    196 H196       -4.4351  -25.6035  -47.2308 H         1 UNK         0.0600 
    197 H197       -4.2938  -26.0692  -44.8110 H         1 UNK         0.0600 
    198 H198       -4.4004  -24.3382  -45.0924 H         1 UNK         0.0600 
    199 H199       -2.8549  -25.0721  -44.6684 H         1 UNK         0.0600 
    200 H200       -0.9219  -25.6537  -47.0520 H         1 UNK         0.3000 
    201 H201       -0.8251  -28.6310  -47.0513 H         1 UNK         0.0600 
    202 H202        0.6965  -27.4486  -45.4892 H         1 UNK         0.0600 
    203 H203        1.3971  -26.5341  -46.8215 H         1 UNK         0.0600 
    204 H204        1.6097  -28.2787  -46.7405 H         1 UNK         0.0600 
    205 H205        0.1449  -25.7605  -48.9758 H         1 UNK         0.3000 
    206 H206        1.2933  -27.2655  -51.1310 H         1 UNK         0.0600 
    207 H207        2.0371  -24.9809  -50.4382 H         1 UNK         0.0600 
    208 H208        1.5852  -25.0169  -52.1357 H         1 UNK         0.0600 
    209 H209        0.4885  -24.3152  -50.9545 H         1 UNK         0.0600 
    210 H210       -1.9441  -26.5050  -50.4518 H         1 UNK         0.3000 
    211 H211       -3.8726  -26.9841  -51.3984 H         1 UNK         0.0600 
    212 H212       -2.6030  -27.5489  -54.1270 H         1 UNK         0.0600 
    213 H213       -4.2148  -27.9776  -53.5871 H         1 UNK         0.0600 
    214 H214       -2.8231  -28.7738  -52.8762 H         1 UNK         0.0600 
    215 H215       -5.3372  -26.0541  -53.1715 H         1 UNK         0.3000 
    216 H216       -6.4772  -24.2684  -53.8060 H         1 UNK         0.0600 
    217 H217       -4.7127  -23.8722  -55.5220 H         1 UNK         0.0600 
    218 H218       -3.8227  -22.8544  -54.3926 H         1 UNK         0.0600 
    219 H219       -5.4135  -22.3659  -54.9505 H         1 UNK         0.0600 
    220 H220       -6.3729  -24.7210  -51.2203 H         1 UNK         0.3000 
    221 H221       -5.5363  -22.5644  -49.5483 H         1 UNK         0.0600 
    222 H222       -7.6115  -24.7480  -48.9886 H         1 UNK         0.0600 
    223 H223       -5.8725  -24.9634  -48.8369 H         1 UNK         0.0600 
    224 H224       -6.7078  -23.8141  -47.7996 H         1 UNK         0.0600 
    225 H225       -8.5769  -23.2909  -51.2123 H         1 UNK         0.3000 
    226 H226      -10.1463  -21.1577  -50.0045 H         1 UNK         0.0600 
    227 H227      -11.2475  -23.1766  -50.9357 H         1 UNK         0.0600 
    228 H228      -11.7583  -21.7473  -51.8208 H         1 UNK         0.0600 
    229 H229      -10.5805  -22.8429  -52.5335 H         1 UNK         0.0600 
    230 H230       -9.7129  -19.0892  -50.3999 H         1 UNK         0.3000 
    231 H231       -8.8808  -17.1834  -51.1734 H         1 UNK         0.0600 
    232 H232      -10.4807  -17.4323  -53.0726 H         1 UNK         0.0600 
    233 H233       -9.2593  -18.2924  -54.0079 H         1 UNK         0.0600 
    234 H234       -9.0089  -16.6110  -53.5678 H         1 UNK         0.0600 
    235 H235       -7.1684  -18.5696  -50.0675 H         1 UNK         0.3000 
    236 H236       -5.2148  -19.9908  -50.5241 H         1 UNK         0.0600 
    237 H237       -3.7110  -18.6387  -49.0333 H         1 UNK         0.0600 
    238 H238       -4.8015  -17.2714  -49.2170 H         1 UNK         0.0600 
    239 H239       -5.3640  -18.7567  -48.4494 H         1 UNK         0.0600 
    240 H240       -4.3150  -20.4521  -52.3860 H         1 UNK         0.3000 
    241 H241       -3.0267  -20.5740  -54.0683 H         1 UNK         0.0600 
    242 H242       -4.6203  -17.4800  -55.7256 H         1 UNK         0.3800 
    243 H243       -5.0930  -18.1464  -54.1813 H         1 UNK         0.3800 
    244 H244       -1.2163  -20.2542  -52.4039 H         1 UNK         0.0800 
    245 H245       -0.7661  -19.9369  -54.0428 H         1 UNK         0.0800 
    246 H246       -1.3990  -18.6871  -50.5869 H         1 UNK         0.0800 
    247 H247       -0.8865  -17.0261  -50.5738 H         1 UNK         0.0800 
@<TRIPOS>BOND
     1    1    2 1    
     2    1  127 1    
     3    1  128 1    
     4    1  129 1    
     5    2    3 2    
     6    2    4 am   BACKBONE|DICT|INTERRES
     7    4    5 1    
     8    4  130 1    
     9    5    6 1    
    10    5   65 1    
    11    5  131 1    
    12    6    7 1    
    13    6  132 1    
    14    6  133 1    
    15    7    8 1    
    16    8    9 1    
    17    8  134 1    
    18    8  135 1    
    19    9   10 ar   
    20    9   14 ar   
    21   10   11 ar   
    22   10  136 1    
    23   11   12 ar   
    24   11  126 1    
    25   12   13 ar   
    26   12  137 1    
    27   13   14 ar   
    28   13   15 1    
    29   14  138 1    
    30   15   16 1    
    31   15  139 1    
    32   15  140 1    
    33   16   17 1    
    34   17   18 1    
    35   17  141 1    
    36   17  142 1    
    37   18   19 1    
    38   18   67 1    
    39   18  143 1    
    40   19   20 am   BACKBONE|DICT|INTERRES
    41   19  144 1    
    42   20   21 2    
    43   20   22 1    
    44   22   23 1    
    45   22   24 1    
    46   22  145 1    
    47   23  146 1    
    48   23  147 1    
    49   23  148 1    
    50   24   25 am   BACKBONE|DICT|INTERRES
    51   24  149 1    
    52   25   26 2    
    53   25   27 1    
    54   27   28 1    
    55   27   29 1    
    56   27  150 1    
    57   28  151 1    
    58   28  152 1    
    59   28  153 1    
    60   29   30 am   BACKBONE|DICT|INTERRES
    61   29  154 1    
    62   30   31 2    
    63   30   32 1    
    64   32   33 1    
    65   32   34 1    
    66   32  155 1    
    67   33  156 1    
    68   33  157 1    
    69   33  158 1    
    70   34   35 am   BACKBONE|DICT|INTERRES
    71   34  159 1    
    72   35   36 2    
    73   35   37 1    
    74   37   38 1    
    75   37   39 1    
    76   37  160 1    
    77   38  161 1    
    78   38  162 1    
    79   38  163 1    
    80   39   40 am   BACKBONE|DICT|INTERRES
    81   39  164 1    
    82   40   41 2    
    83   40   42 1    
    84   42   43 1    
    85   42   44 1    
    86   42  165 1    
    87   43  166 1    
    88   43  167 1    
    89   43  168 1    
    90   44   45 am   BACKBONE|DICT|INTERRES
    91   44  169 1    
    92   45   46 2    
    93   45   47 1    
    94   47   48 1    
    95   47   49 1    
    96   47  170 1    
    97   48  171 1    
    98   48  172 1    
    99   48  173 1    
   100   49   50 am   BACKBONE|DICT|INTERRES
   101   49  174 1    
   102   50   51 2    
   103   50   52 1    
   104   52   53 1    
   105   52   54 1    
   106   52  175 1    
   107   53  176 1    
   108   53  177 1    
   109   53  178 1    
   110   54   55 am   BACKBONE|DICT|INTERRES
   111   54  179 1    
   112   55   56 2    
   113   55   57 1    
   114   57   58 1    
   115   57   59 1    
   116   57  180 1    
   117   58  181 1    
   118   58  182 1    
   119   58  183 1    
   120   59   60 am   BACKBONE|DICT|INTERRES
   121   59  184 1    
   122   60   61 2    
   123   60   62 1    
   124   62   63 1    
   125   62   64 1    
   126   62  185 1    
   127   63  186 1    
   128   63  187 1    
   129   63  188 1    
   130   64   65 am   BACKBONE|DICT|INTERRES
   131   64  189 1    
   132   65   66 2    
   133   67   68 2    
   134   67   69 am   BACKBONE|DICT|INTERRES
   135   69   70 1    
   136   69  190 1    
   137   70   71 1    
   138   70   72 1    
   139   70  191 1    
   140   71  192 1    
   141   71  193 1    
   142   71  194 1    
   143   72   73 2    
   144   72   74 am   BACKBONE|DICT|INTERRES
   145   74   75 1    
   146   74  195 1    
   147   75   76 1    
   148   75   77 1    
   149   75  196 1    
   150   76  197 1    
   151   76  198 1    
   152   76  199 1    
   153   77   78 2    
   154   77   79 am   BACKBONE|DICT|INTERRES
   155   79   80 1    
   156   79  200 1    
   157   80   81 1    
   158   80   82 1    
   159   80  201 1    
   160   81  202 1    
   161   81  203 1    
   162   81  204 1    
   163   82   83 2    
   164   82   84 am   BACKBONE|DICT|INTERRES
   165   84   85 1    
   166   84  205 1    
   167   85   86 1    
   168   85   87 1    
   169   85  206 1    
   170   86  207 1    
   171   86  208 1    
   172   86  209 1    
   173   87   88 2    
   174   87   89 am   BACKBONE|DICT|INTERRES
   175   89   90 1    
   176   89  210 1    
   177   90   91 1    
   178   90   92 1    
   179   90  211 1    
   180   91  212 1    
   181   91  213 1    
   182   91  214 1    
   183   92   93 2    
   184   92   94 am   BACKBONE|DICT|INTERRES
   185   94   95 1    
   186   94  215 1    
   187   95   96 1    
   188   95   97 1    
   189   95  216 1    
   190   96  217 1    
   191   96  218 1    
   192   96  219 1    
   193   97   98 2    
   194   97   99 am   BACKBONE|DICT|INTERRES
   195   99  100 1    
   196   99  220 1    
   197  100  101 1    
   198  100  102 1    
   199  100  221 1    
   200  101  222 1    
   201  101  223 1    
   202  101  224 1    
   203  102  103 2    
   204  102  104 am   BACKBONE|DICT|INTERRES
   205  104  105 1    
   206  104  225 1    
   207  105  106 1    
   208  105  107 1    
   209  105  226 1    
   210  106  227 1    
   211  106  228 1    
   212  106  229 1    
   213  107  108 2    
   214  107  109 am   BACKBONE|DICT|INTERRES
   215  109  110 1    
   216  109  230 1    
   217  110  111 1    
   218  110  112 1    
   219  110  231 1    
   220  111  232 1    
   221  111  233 1    
   222  111  234 1    
   223  112  113 2    
   224  112  114 am   BACKBONE|DICT|INTERRES
   225  114  115 1    
   226  114  235 1    
   227  115  116 1    
   228  115  117 1    
   229  115  236 1    
   230  116  237 1    
   231  116  238 1    
   232  116  239 1    
   233  117  118 2    
   234  117  119 am   BACKBONE|DICT|INTERRES
   235  119  120 1    
   236  119  240 1    
   237  120  121 1    
   238  120  124 1    
   239  120  241 1    
   240  121  122 am   BACKBONE|DICT|INTERRES
   241  121  123 2    
   242  122  242 1    
   243  122  243 1    
   244  124  125 1    
   245  124  244 1    
   246  124  245 1    
   247  125  126 1    
   248  126  246 1    
   249  126  247 1    
@<TRIPOS>SUBSTRUCTURE
     1 UNK         1 GROUP             0       ****    0 ROOT    
