@<TRIPOS>MOLECULE
3R540
247   249    1
SMALL
USER_CHARGES


@<TRIPOS>ATOM
      1 CA         -6.1705  -14.9761  -51.6539 C.3       0 UNK        -0.1800 
      2 C          -4.9936  -14.1412  -51.1681 C.2       0 UNK         0.5000 
      3 O          -4.8468  -12.9923  -51.5854 O.2       0 UNK        -0.5000 
      4 N          -4.1561  -14.7123  -50.2998 N.am      1 UNK        -0.5000 
      5 CA         -2.9511  -14.0936  -49.7436 C.3       1 UNK         0.1400 
      6 C6         -1.6784  -14.4845  -50.5454 C.3       23 UNK        -0.0398 
      7 S7         -1.4203  -16.2878  -50.6553 S.3       23 UNK        -0.2404 
      8 C8          0.2236  -16.4073  -51.4092 C.3       23 UNK        -0.0205 
      9 C9          0.6270  -17.8689  -51.4758 C.ar      23 UNK        -0.0193 
     10 C10         0.2145  -18.6705  -52.5420 C.ar      23 UNK        -0.1150 
     11 C11         0.5098  -20.0342  -52.5623 C.ar      23 UNK        -0.0193 
     12 C12         1.2369  -20.5951  -51.5074 C.ar      23 UNK        -0.1150 
     13 C13         1.6786  -19.8001  -50.4438 C.ar      23 UNK        -0.0193 
     14 C14         1.3744  -18.4342  -50.4416 C.ar      23 UNK        -0.1150 
     15 C15         2.5006  -20.4297  -49.3218 C.3       23 UNK        -0.0205 
     16 S16         2.1565  -19.7511  -47.6612 S.3       23 UNK        -0.2404 
     17 C17         0.4083  -20.2169  -47.4311 C.3       23 UNK        -0.0398 
     18 CA          0.2720  -21.6266  -46.8187 C.3       11 UNK         0.1400 
     19 N           0.7785  -21.7035  -45.4461 N.am      11 UNK        -0.5000 
     20 C           0.9985  -22.8476  -44.7857 C.2       10 UNK         0.5000 
     21 O           0.8134  -23.9609  -45.2764 O.2       10 UNK        -0.5000 
     22 CA          1.4441  -22.7310  -43.3171 C.3       10 UNK         0.1400 
     23 CB          2.9330  -22.3677  -43.2163 C.3       10 UNK        -0.1800 
     24 N           0.6410  -21.7630  -42.5687 N.am      10 UNK        -0.5000 
     25 C          -0.6710  -21.9002  -42.3293 C.2       9 UNK         0.5000 
     26 O          -1.3257  -22.8864  -42.6707 O.2       9 UNK        -0.5000 
     27 CA         -1.3805  -20.7256  -41.6288 C.3       9 UNK         0.1400 
     28 CB         -1.1738  -20.7894  -40.1083 C.3       9 UNK        -0.1800 
     29 N          -0.9536  -19.4172  -42.1282 N.am      9 UNK        -0.5000 
     30 C          -1.1349  -18.9858  -43.3851 C.2       8 UNK         0.5000 
     31 O          -1.7089  -19.6353  -44.2562 O.2       8 UNK        -0.5000 
     32 CA         -0.5209  -17.6227  -43.7497 C.3       8 UNK         0.1400 
     33 CB         -1.3901  -16.4770  -43.2081 C.3       8 UNK        -0.1800 
     34 N           0.8558  -17.4833  -43.2706 N.am      8 UNK        -0.5000 
     35 C           1.8641  -18.3026  -43.6055 C.2       7 UNK         0.5000 
     36 O           1.7519  -19.2307  -44.4030 O.2       7 UNK        -0.5000 
     37 CA          3.1987  -18.1088  -42.8674 C.3       7 UNK         0.1400 
     38 CB          4.0599  -17.0185  -43.5216 C.3       7 UNK        -0.1800 
     39 N           2.9927  -17.8241  -41.4460 N.am      7 UNK        -0.5000 
     40 C           2.5438  -18.7365  -40.5702 C.2       6 UNK         0.5000 
     41 O           2.2928  -19.9042  -40.8703 O.2       6 UNK        -0.5000 
     42 CA          2.3006  -18.2589  -39.1281 C.3       6 UNK         0.1400 
     43 CB          3.6164  -18.2274  -38.3367 C.3       6 UNK        -0.1800 
     44 N           1.6682  -16.9422  -39.0667 N.am      6 UNK        -0.5000 
     45 C           0.4313  -16.6571  -39.4906 C.2       5 UNK         0.5000 
     46 O          -0.3251  -17.4940  -39.9825 O.2       5 UNK        -0.5000 
     47 CA         -0.0257  -15.1881  -39.3841 C.3       5 UNK         0.1400 
     48 CB         -0.3491  -14.7944  -37.9304 C.3       5 UNK        -0.1800 
     49 N           0.9075  -14.2481  -40.0190 N.am      5 UNK        -0.5000 
     50 C           2.1654  -13.9385  -39.6776 C.2       4 UNK         0.5000 
     51 O           2.6934  -14.3203  -38.6318 O.2       4 UNK        -0.5000 
     52 CA          3.0059  -13.1041  -40.6740 C.3       4 UNK         0.1400 
     53 CB          4.3369  -13.8191  -40.9847 C.3       4 UNK        -0.1800 
     54 N           2.3640  -12.7040  -41.9396 N.am      4 UNK        -0.5000 
     55 C           1.8230  -13.4844  -42.8853 C.2       3 UNK         0.5000 
     56 O           1.5995  -14.6892  -42.7440 O.2       3 UNK        -0.5000 
     57 CA          1.4809  -12.8103  -44.2198 C.3       3 UNK         0.1400 
     58 CB          2.6839  -12.8830  -45.1781 C.3       3 UNK        -0.1800 
     59 N           0.3309  -13.4998  -44.7917 N.am      3 UNK        -0.5000 
     60 C          -0.4565  -13.0422  -45.7682 C.2       2 UNK         0.5000 
     61 O          -0.2680  -11.9809  -46.3692 O.2       2 UNK        -0.5000 
     62 CA         -1.6811  -13.9005  -46.1127 C.3       2 UNK         0.1400 
     63 CB         -2.8679  -13.5414  -45.1970 C.3       2 UNK        -0.1800 
     64 N          -2.0227  -13.6806  -47.5147 N.am      2 UNK        -0.5000 
     65 C          -2.8359  -14.4486  -48.2474 C.2       1 UNK         0.5000 
     66 O          -3.4650  -15.4040  -47.7866 O.2       1 UNK        -0.5000 
     67 C          -1.1738  -22.1426  -46.9412 C.2       11 UNK         0.5000 
     68 O          -1.4997  -22.7593  -47.9561 O.2       11 UNK        -0.5000 
     69 N          -2.0040  -21.9200  -45.9119 N.am      12 UNK        -0.5000 
     70 CA         -3.3641  -22.4487  -45.8164 C.3       12 UNK         0.1400 
     71 CB         -4.1058  -21.8192  -44.6292 C.3       12 UNK        -0.1800 
     72 C          -3.3935  -23.9838  -45.7419 C.2       12 UNK         0.5000 
     73 O          -4.2247  -24.6054  -46.4033 O.2       12 UNK        -0.5000 
     74 N          -2.4605  -24.5698  -44.9813 N.am      13 UNK        -0.5000 
     75 CA         -2.2587  -26.0160  -44.9144 C.3       13 UNK         0.1400 
     76 CB         -1.3453  -26.3502  -43.7250 C.3       13 UNK        -0.1800 
     77 C          -1.6921  -26.5940  -46.2265 C.2       13 UNK         0.5000 
     78 O          -2.1180  -27.6706  -46.6466 O.2       13 UNK        -0.5000 
     79 N          -0.7426  -25.8764  -46.8423 N.am      14 UNK        -0.5000 
     80 CA         -0.0345  -26.3047  -48.0469 C.3       14 UNK         0.1400 
     81 CB          1.2593  -25.4894  -48.1995 C.3       14 UNK        -0.1800 
     82 C          -0.8751  -26.2184  -49.3334 C.2       14 UNK         0.5000 
     83 O          -0.8890  -27.1813  -50.1021 O.2       14 UNK        -0.5000 
     84 N          -1.5174  -25.0671  -49.5748 N.am      15 UNK        -0.5000 
     85 CA         -2.1193  -24.7285  -50.8690 C.3       15 UNK         0.1400 
     86 CB         -1.0337  -24.1427  -51.7943 C.3       15 UNK        -0.1800 
     87 C          -3.3360  -23.7928  -50.7425 C.2       15 UNK         0.5000 
     88 O          -3.6613  -23.0898  -51.6997 O.2       15 UNK        -0.5000 
     89 N          -3.9843  -23.7789  -49.5681 N.am      16 UNK        -0.5000 
     90 CA         -5.1757  -22.9865  -49.2234 C.3       16 UNK         0.1400 
     91 CB         -6.3729  -23.3770  -50.1162 C.3       16 UNK        -0.1800 
     92 C          -4.9581  -21.4557  -49.1891 C.2       16 UNK         0.5000 
     93 O          -5.9343  -20.7253  -49.0156 O.2       16 UNK        -0.5000 
     94 N          -3.6998  -21.0003  -49.3270 N.am      17 UNK        -0.5000 
     95 CA         -3.2537  -19.6009  -49.4038 C.3       17 UNK         0.1400 
     96 CB         -3.2942  -18.9504  -48.0075 C.3       17 UNK        -0.1800 
     97 C          -4.0314  -18.7979  -50.4707 C.2       17 UNK         0.5000 
     98 O          -4.5112  -17.6939  -50.2088 O.2       17 UNK        -0.5000 
     99 N          -4.1905  -19.4152  -51.6468 N.am      18 UNK        -0.5000 
    100 CA        -5.1260  -18.9996  -52.6891 C.3       18 UNK         0.1400 
    101 CB        -5.6801  -20.2730  -53.3460 C.3       18 UNK        -0.1800 
    102 C         -4.5272  -18.0296  -53.7273 C.2       18 UNK         0.5000 
    103 O         -5.1863  -17.7487  -54.7296 O.2       18 UNK        -0.5000 
    104 N         -3.3059  -17.5294  -53.4891 N.am      19 UNK        -0.5000 
    105 CA        -2.5501  -16.6187  -54.3558 C.3       19 UNK         0.1400 
    106 CB        -3.2102  -15.2225  -54.3952 C.3       19 UNK        -0.1800 
    107 C         -2.3013  -17.2420  -55.7453 C.2       19 UNK         0.5000 
    108 O         -1.5699  -18.2271  -55.8426 O.2       19 UNK        -0.5000 
    109 N         -2.9187  -16.6801  -56.7913 N.am      20 UNK        -0.5000 
    110 CA        -2.8548  -17.1885  -58.1618 C.3       20 UNK         0.1400 
    111 CB        -3.3221  -16.0820  -59.1202 C.3       20 UNK        -0.1800 
    112 C         -3.6825  -18.4719  -58.3791 C.2       20 UNK         0.5000 
    113 O         -3.4263  -19.1936  -59.3435 O.2       20 UNK        -0.5000 
    114 N         -4.6569  -18.7382  -57.4977 N.am      21 UNK        -0.5000 
    115 CA        -5.5948  -19.8572  -57.6007 C.3       21 UNK         0.1400 
    116 CB        -6.9873  -19.3897  -57.1409 C.3       21 UNK        -0.1800 
    117 C         -5.1237  -21.1272  -56.8608 C.2       21 UNK         0.5000 
    118 O         -5.9265  -22.0448  -56.6833 O.2       21 UNK        -0.5000 
    119 N         -3.8432  -21.1887  -56.4621 N.am      22 UNK        -0.5000 
    120 CA        -3.2023  -22.3971  -55.9048 C.3       22 UNK         0.1400 
    121 C         -3.1350  -23.6050  -56.8901 C.2       22 UNK         0.5000 
    122 N         -3.2122  -23.4027  -58.2007 N.am      22 UNK        -0.7600 
    123 O         -3.0073  -24.7461  -56.4553 O.2       22 UNK        -0.5000 
    124 C124       -1.7797  -22.1090  -55.3623 C.3       23 UNK        -0.0398 
    125 S125       -1.7306  -21.0283  -53.8969 S.3       23 UNK        -0.2404 
    126 C126        0.0796  -20.8838  -53.7478 C.3       23 UNK        -0.0205 
    127 H127       -6.0390  -15.2323  -52.7053 H         1 UNK         0.0600 
    128 H128       -7.0992  -14.4149  -51.5507 H         1 UNK         0.0600 
    129 H129       -6.2720  -15.9018  -51.0878 H         1 UNK         0.0600 
    130 H130       -4.3159  -15.6676  -49.9876 H         1 UNK         0.3000 
    131 H131       -3.0577  -13.0077  -49.7875 H         1 UNK         0.0600 
    132 H132       -1.7506  -14.0886  -51.5589 H         1 UNK         0.0800 
    133 H133       -0.7911  -14.0235  -50.1088 H         1 UNK         0.0800 
    134 H134        0.2154  -15.9646  -52.4057 H         1 UNK         0.0800 
    135 H135        0.9429  -15.8387  -50.8176 H         1 UNK         0.0800 
    136 H136       -0.3497  -18.2458  -53.3569 H         1 UNK         0.1150 
    137 H137        1.4754  -21.6493  -51.5233 H         1 UNK         0.1150 
    138 H138        1.7014  -17.8082  -49.6237 H         1 UNK         0.1150 
    139 H139        2.3440  -21.5091  -49.2947 H         1 UNK         0.0800 
    140 H140        3.5571  -20.2778  -49.5451 H         1 UNK         0.0800 
    141 H141       -0.1030  -20.1536  -48.3929 H         1 UNK         0.0800 
    142 H142       -0.0659  -19.4742  -46.7871 H         1 UNK         0.0800 
    143 H143        0.8834  -22.3016  -47.4193 H         1 UNK         0.0600 
    144 H144        1.0032  -20.8185  -44.9950 H         1 UNK         0.3000 
    145 H145        1.3048  -23.7086  -42.8510 H         1 UNK         0.0600 
    146 H146        3.2611  -22.3353  -42.1772 H         1 UNK         0.0600 
    147 H147        3.5490  -23.1066  -43.7302 H         1 UNK         0.0600 
    148 H148        3.1453  -21.3971  -43.6638 H         1 UNK         0.0600 
    149 H149        1.1209  -20.9403  -42.2197 H         1 UNK         0.3000 
    150 H150       -2.4498  -20.8208  -41.8272 H         1 UNK         0.0600 
    151 H151       -1.5073  -21.7478  -39.7085 H         1 UNK         0.0600 
    152 H152       -1.7419  -20.0094  -39.6010 H         1 UNK         0.0600 
    153 H153       -0.1249  -20.6670  -39.8378 H         1 UNK         0.0600 
    154 H154       -0.5078  -18.7975  -41.4583 H         1 UNK         0.3000 
    155 H155       -0.4962  -17.5468  -44.8388 H         1 UNK         0.0600 
    156 H156       -1.5147  -16.5355  -42.1275 H         1 UNK         0.0600 
    157 H157       -2.3863  -16.5052  -43.6516 H         1 UNK         0.0600 
    158 H158       -0.9606  -15.5050  -43.4359 H         1 UNK         0.0600 
    159 H159        1.0536  -16.7015  -42.6577 H         1 UNK         0.3000 
    160 H160        3.7528  -19.0469  -42.9429 H         1 UNK         0.0600 
    161 H161        3.5723  -16.0463  -43.5149 H         1 UNK         0.0600 
    162 H162        4.2685  -17.2669  -44.5630 H         1 UNK         0.0600 
    163 H163        5.0191  -16.9162  -43.0142 H         1 UNK         0.0600 
    164 H164        3.1454  -16.8769  -41.1351 H         1 UNK         0.3000 
    165 H165        1.6307  -18.9763  -38.6495 H         1 UNK         0.0600 
    166 H166        3.4405  -17.9736  -37.2912 H         1 UNK         0.0600 
    167 H167        4.1076  -19.2012  -38.3563 H         1 UNK         0.0600 
    168 H168        4.3158  -17.4969  -38.7453 H         1 UNK         0.0600 
    169 H169        2.2226  -16.1734  -38.7003 H         1 UNK         0.3000 
    170 H170       -0.9529  -15.1085  -39.9538 H         1 UNK         0.0600 
    171 H171       -1.1294  -15.4373  -37.5215 H         1 UNK         0.0600 
    172 H172        0.5173  -14.8823  -37.2747 H         1 UNK         0.0600 
    173 H173       -0.7104  -13.7677  -37.8724 H         1 UNK         0.0600 
    174 H174        0.6281  -13.9424  -40.9413 H         1 UNK         0.3000 
    175 H175        3.2434  -12.1757  -40.1528 H         1 UNK         0.0600 
    176 H176        4.1736  -14.7798  -41.4722 H         1 UNK         0.0600 
    177 H177        4.9659  -13.2154  -41.6389 H         1 UNK         0.0600 
    178 H178        4.9091  -14.0076  -40.0754 H         1 UNK         0.0600 
    179 H179        2.4467  -11.7184  -42.1484 H         1 UNK         0.3000 
    180 H180        1.2168  -11.7671  -44.0344 H         1 UNK         0.0600 
    181 H181        2.4753  -12.3786  -46.1214 H         1 UNK         0.0600 
    182 H182        2.9535  -13.9159  -45.4033 H         1 UNK         0.0600 
    183 H183        3.5609  -12.4021  -44.7429 H         1 UNK         0.0600 
    184 H184        0.1271  -14.3802  -44.3372 H         1 UNK         0.3000 
    185 H185       -1.4187  -14.9520  -45.9775 H         1 UNK         0.0600 
    186 H186       -2.5988  -13.6426  -44.1450 H         1 UNK         0.0600 
    187 H187       -3.1964  -12.5134  -45.3538 H         1 UNK         0.0600 
    188 H188       -3.7217  -14.1957  -45.3721 H         1 UNK         0.0600 
    189 H189       -1.5299  -12.9018  -47.9351 H         1 UNK         0.3000 
    190 H190       -1.6966  -21.3221  -45.1496 H         1 UNK         0.3000 
    191 H191       -3.8914  -22.1517  -46.7192 H         1 UNK         0.0600 
    192 H192       -4.1630  -20.7355  -44.7315 H         1 UNK         0.0600 
    193 H193       -5.1287  -22.1924  -44.5675 H         1 UNK         0.0600 
    194 H194       -3.6188  -22.0425  -43.6811 H         1 UNK         0.0600 
    195 H195       -1.8348  -23.9887  -44.4342 H         1 UNK         0.3000 
    196 H196       -3.2280  -26.4861  -44.7351 H         1 UNK         0.0600 
    197 H197       -1.2064  -27.4278  -43.6307 H         1 UNK         0.0600 
    198 H198       -1.7731  -25.9931  -42.7880 H         1 UNK         0.0600 
    199 H199       -0.3582  -25.9001  -43.8325 H         1 UNK         0.0600 
    200 H200       -0.4002  -25.0357  -46.3872 H         1 UNK         0.3000 
    201 H201        0.2522  -27.3499  -47.9113 H         1 UNK         0.0600 
    202 H202        1.8999  -25.5964  -47.3239 H         1 UNK         0.0600 
    203 H203        1.0527  -24.4286  -48.3369 H         1 UNK         0.0600 
    204 H204        1.8325  -25.8252  -49.0645 H         1 UNK         0.0600 
    205 H205       -1.4606  -24.3078  -48.8973 H         1 UNK         0.3000 
    206 H206       -2.5061  -25.6378  -51.3332 H         1 UNK         0.0600 
    207 H207       -0.1902  -24.8241  -51.9046 H         1 UNK         0.0600 
    208 H208       -1.4273  -23.9594  -52.7941 H         1 UNK         0.0600 
    209 H209       -0.6532  -23.1956  -51.4103 H         1 UNK         0.0600 
    210 H210       -3.6371  -24.3756  -48.8288 H         1 UNK         0.3000 
    211 H211       -5.4447  -23.2665  -48.2063 H         1 UNK         0.0600 
    212 H212       -6.2360  -23.0535  -51.1481 H         1 UNK         0.0600 
    213 H213       -7.2957  -22.9216  -49.7552 H         1 UNK         0.0600 
    214 H214       -6.5270  -24.4560  -50.1196 H         1 UNK         0.0600 
    215 H215       -2.9730  -21.6973  -49.4232 H         1 UNK         0.3000 
    216 H216       -2.2132  -19.6212  -49.7318 H         1 UNK         0.0600 
    217 H217       -2.8369  -17.9615  -48.0312 H         1 UNK         0.0600 
    218 H218       -2.7457  -19.5389  -47.2738 H         1 UNK         0.0600 
    219 H219       -4.3160  -18.8332  -47.6454 H         1 UNK         0.0600 
    220 H220       -3.7545  -20.3185  -51.7804 H         1 UNK         0.3000 
    221 H221       -5.9661  -18.4773  -52.2267 H         1 UNK         0.0600 
    222 H222       -4.8909  -20.8463  -53.8308 H         1 UNK         0.0600 
    223 H223       -6.1518  -20.9212  -52.6072 H         1 UNK         0.0600 
    224 H224       -6.4360  -20.0420  -54.0948 H         1 UNK         0.0600 
    225 H225       -2.8357  -17.8328  -52.6482 H         1 UNK         0.3000 
    226 H226       -1.5700  -16.4864  -53.9021 H         1 UNK         0.0600 
    227 H227       -3.2481  -14.7907  -53.3968 H         1 UNK         0.0600 
    228 H228       -2.6363  -14.5322  -55.0147 H         1 UNK         0.0600 
    229 H229       -4.2299  -15.2488  -54.7799 H         1 UNK         0.0600 
    230 H230       -3.5226  -15.8878  -56.6273 H         1 UNK         0.3000 
    231 H231       -1.8146  -17.4251  -58.3959 H         1 UNK         0.0600 
    232 H232       -4.3568  -15.7948  -58.9292 H         1 UNK         0.0600 
    233 H233       -3.2592  -16.4112  -60.1583 H         1 UNK         0.0600 
    234 H234       -2.7021  -15.1902  -59.0260 H         1 UNK         0.0600 
    235 H235       -4.7734  -18.1373  -56.6873 H         1 UNK         0.3000 
    236 H236       -5.6926  -20.1436  -58.6498 H         1 UNK         0.0600 
    237 H237       -7.3314  -18.5447  -57.7373 H         1 UNK         0.0600 
    238 H238       -7.7287  -20.1818  -57.2510 H         1 UNK         0.0600 
    239 H239       -6.9909  -19.0799  -56.0977 H         1 UNK         0.0600 
    240 H240       -3.2463  -20.3880  -56.6114 H         1 UNK         0.3000 
    241 H241       -3.8159  -22.7289  -55.0648 H         1 UNK         0.0600 
    242 H242       -3.3070  -22.4719  -58.5749 H         1 UNK         0.3800 
    243 H243       -3.1694  -24.1916  -58.8268 H         1 UNK         0.3800 
    244 H244       -1.2823  -23.0389  -55.0797 H         1 UNK         0.0800 
    245 H245       -1.1656  -21.6644  -56.1474 H         1 UNK         0.0800 
    246 H246        0.4775  -20.4376  -54.6605 H         1 UNK         0.0800 
    247 H247        0.5120  -21.8830  -53.6765 H         1 UNK         0.0800 
@<TRIPOS>BOND
     1    1    2 1    
     2    1  127 1    
     3    1  128 1    
     4    1  129 1    
     5    2    3 2    
     6    2    4 am   BACKBONE|DICT|INTERRES
     7    4    5 1    
     8    4  130 1    
     9    5    6 1    
    10    5   65 1    
    11    5  131 1    
    12    6    7 1    
    13    6  132 1    
    14    6  133 1    
    15    7    8 1    
    16    8    9 1    
    17    8  134 1    
    18    8  135 1    
    19    9   10 ar   
    20    9   14 ar   
    21   10   11 ar   
    22   10  136 1    
    23   11   12 ar   
    24   11  126 1    
    25   12   13 ar   
    26   12  137 1    
    27   13   14 ar   
    28   13   15 1    
    29   14  138 1    
    30   15   16 1    
    31   15  139 1    
    32   15  140 1    
    33   16   17 1    
    34   17   18 1    
    35   17  141 1    
    36   17  142 1    
    37   18   19 1    
    38   18   67 1    
    39   18  143 1    
    40   19   20 am   BACKBONE|DICT|INTERRES
    41   19  144 1    
    42   20   21 2    
    43   20   22 1    
    44   22   23 1    
    45   22   24 1    
    46   22  145 1    
    47   23  146 1    
    48   23  147 1    
    49   23  148 1    
    50   24   25 am   BACKBONE|DICT|INTERRES
    51   24  149 1    
    52   25   26 2    
    53   25   27 1    
    54   27   28 1    
    55   27   29 1    
    56   27  150 1    
    57   28  151 1    
    58   28  152 1    
    59   28  153 1    
    60   29   30 am   BACKBONE|DICT|INTERRES
    61   29  154 1    
    62   30   31 2    
    63   30   32 1    
    64   32   33 1    
    65   32   34 1    
    66   32  155 1    
    67   33  156 1    
    68   33  157 1    
    69   33  158 1    
    70   34   35 am   BACKBONE|DICT|INTERRES
    71   34  159 1    
    72   35   36 2    
    73   35   37 1    
    74   37   38 1    
    75   37   39 1    
    76   37  160 1    
    77   38  161 1    
    78   38  162 1    
    79   38  163 1    
    80   39   40 am   BACKBONE|DICT|INTERRES
    81   39  164 1    
    82   40   41 2    
    83   40   42 1    
    84   42   43 1    
    85   42   44 1    
    86   42  165 1    
    87   43  166 1    
    88   43  167 1    
    89   43  168 1    
    90   44   45 am   BACKBONE|DICT|INTERRES
    91   44  169 1    
    92   45   46 2    
    93   45   47 1    
    94   47   48 1    
    95   47   49 1    
    96   47  170 1    
    97   48  171 1    
    98   48  172 1    
    99   48  173 1    
   100   49   50 am   BACKBONE|DICT|INTERRES
   101   49  174 1    
   102   50   51 2    
   103   50   52 1    
   104   52   53 1    
   105   52   54 1    
   106   52  175 1    
   107   53  176 1    
   108   53  177 1    
   109   53  178 1    
   110   54   55 am   BACKBONE|DICT|INTERRES
   111   54  179 1    
   112   55   56 2    
   113   55   57 1    
   114   57   58 1    
   115   57   59 1    
   116   57  180 1    
   117   58  181 1    
   118   58  182 1    
   119   58  183 1    
   120   59   60 am   BACKBONE|DICT|INTERRES
   121   59  184 1    
   122   60   61 2    
   123   60   62 1    
   124   62   63 1    
   125   62   64 1    
   126   62  185 1    
   127   63  186 1    
   128   63  187 1    
   129   63  188 1    
   130   64   65 am   BACKBONE|DICT|INTERRES
   131   64  189 1    
   132   65   66 2    
   133   67   68 2    
   134   67   69 am   BACKBONE|DICT|INTERRES
   135   69   70 1    
   136   69  190 1    
   137   70   71 1    
   138   70   72 1    
   139   70  191 1    
   140   71  192 1    
   141   71  193 1    
   142   71  194 1    
   143   72   73 2    
   144   72   74 am   BACKBONE|DICT|INTERRES
   145   74   75 1    
   146   74  195 1    
   147   75   76 1    
   148   75   77 1    
   149   75  196 1    
   150   76  197 1    
   151   76  198 1    
   152   76  199 1    
   153   77   78 2    
   154   77   79 am   BACKBONE|DICT|INTERRES
   155   79   80 1    
   156   79  200 1    
   157   80   81 1    
   158   80   82 1    
   159   80  201 1    
   160   81  202 1    
   161   81  203 1    
   162   81  204 1    
   163   82   83 2    
   164   82   84 am   BACKBONE|DICT|INTERRES
   165   84   85 1    
   166   84  205 1    
   167   85   86 1    
   168   85   87 1    
   169   85  206 1    
   170   86  207 1    
   171   86  208 1    
   172   86  209 1    
   173   87   88 2    
   174   87   89 am   BACKBONE|DICT|INTERRES
   175   89   90 1    
   176   89  210 1    
   177   90   91 1    
   178   90   92 1    
   179   90  211 1    
   180   91  212 1    
   181   91  213 1    
   182   91  214 1    
   183   92   93 2    
   184   92   94 am   BACKBONE|DICT|INTERRES
   185   94   95 1    
   186   94  215 1    
   187   95   96 1    
   188   95   97 1    
   189   95  216 1    
   190   96  217 1    
   191   96  218 1    
   192   96  219 1    
   193   97   98 2    
   194   97   99 am   BACKBONE|DICT|INTERRES
   195   99  100 1    
   196   99  220 1    
   197  100  101 1    
   198  100  102 1    
   199  100  221 1    
   200  101  222 1    
   201  101  223 1    
   202  101  224 1    
   203  102  103 2    
   204  102  104 am   BACKBONE|DICT|INTERRES
   205  104  105 1    
   206  104  225 1    
   207  105  106 1    
   208  105  107 1    
   209  105  226 1    
   210  106  227 1    
   211  106  228 1    
   212  106  229 1    
   213  107  108 2    
   214  107  109 am   BACKBONE|DICT|INTERRES
   215  109  110 1    
   216  109  230 1    
   217  110  111 1    
   218  110  112 1    
   219  110  231 1    
   220  111  232 1    
   221  111  233 1    
   222  111  234 1    
   223  112  113 2    
   224  112  114 am   BACKBONE|DICT|INTERRES
   225  114  115 1    
   226  114  235 1    
   227  115  116 1    
   228  115  117 1    
   229  115  236 1    
   230  116  237 1    
   231  116  238 1    
   232  116  239 1    
   233  117  118 2    
   234  117  119 am   BACKBONE|DICT|INTERRES
   235  119  120 1    
   236  119  240 1    
   237  120  121 1    
   238  120  124 1    
   239  120  241 1    
   240  121  122 am   BACKBONE|DICT|INTERRES
   241  121  123 2    
   242  122  242 1    
   243  122  243 1    
   244  124  125 1    
   245  124  244 1    
   246  124  245 1    
   247  125  126 1    
   248  126  246 1    
   249  126  247 1    
@<TRIPOS>SUBSTRUCTURE
     1 UNK         1 GROUP             0       ****    0 ROOT    
