@<TRIPOS>MOLECULE
3R540
247   249    1
SMALL
USER_CHARGES


@<TRIPOS>ATOM
      1 CA          4.9943  -15.0436  -46.5840 C.3       0 UNK        -0.1800 
      2 C           4.2191  -14.0895  -47.4817 C.2       0 UNK         0.5000 
      3 O           4.8275  -13.2680  -48.1670 O.2       0 UNK        -0.5000 
      4 N           2.8840  -14.2066  -47.4770 N.am      1 UNK        -0.5000 
      5 CA          1.9310  -13.4177  -48.2727 C.3       1 UNK         0.1400 
      6 C6          2.0731  -13.6190  -49.8112 C.3       23 UNK        -0.0398 
      7 S7          1.8892  -15.3253  -50.4638 S.3       23 UNK        -0.2404 
      8 C8          0.8913  -16.1985  -49.2167 C.3       23 UNK        -0.0205 
      9 C9          0.4061  -17.5504  -49.7122 C.ar      23 UNK        -0.0193 
     10 C10        -0.9200  -17.7090  -50.1225 C.ar      23 UNK        -0.1150 
     11 C11        -1.4097  -18.9655  -50.4976 C.ar      23 UNK        -0.0193 
     12 C12        -0.5402  -20.0605  -50.4796 C.ar      23 UNK        -0.1150 
     13 C13         0.7983  -19.9144  -50.1006 C.ar      23 UNK        -0.0193 
     14 C14         1.2658  -18.6516  -49.7208 C.ar      23 UNK        -0.1150 
     15 C15         1.7224  -21.1297  -50.1287 C.3       23 UNK        -0.0205 
     16 S16         2.8329  -21.2964  -48.6852 S.3       23 UNK        -0.2404 
     17 C17         1.7130  -21.1066  -47.2573 C.3       23 UNK        -0.0398 
     18 CA          1.0466  -22.4248  -46.7951 C.3       11 UNK         0.1400 
     19 N           0.6960  -22.3829  -45.3746 N.am      11 UNK        -0.5000 
     20 C           0.1582  -23.3882  -44.6697 C.2       10 UNK         0.5000 
     21 O          -0.0304  -24.5197  -45.1159 O.2       10 UNK        -0.5000 
     22 CA         -0.3035  -23.0469  -43.2421 C.3       10 UNK         0.1400 
     23 CB          0.8647  -23.1274  -42.2479 C.3       10 UNK        -0.1800 
     24 N          -0.9210  -21.7207  -43.1747 N.am      10 UNK        -0.5000 
     25 C          -2.0984  -21.4075  -43.7348 C.2       9 UNK         0.5000 
     26 O          -2.8152  -22.2216  -44.3173 O.2       9 UNK        -0.5000 
     27 CA         -2.5197  -19.9278  -43.6726 C.3       9 UNK         0.1400 
     28 CB         -3.1432  -19.5948  -42.3093 C.3       9 UNK        -0.1800 
     29 N          -1.4008  -19.0204  -43.9364 N.am      9 UNK        -0.5000 
     30 C          -0.8055  -18.8965  -45.1331 C.2       8 UNK         0.5000 
     31 O          -1.1693  -19.5076  -46.1358 O.2       8 UNK        -0.5000 
     32 CA          0.4341  -17.9834  -45.2232 C.3       8 UNK         0.1400 
     33 CB          0.0173  -16.5553  -45.6028 C.3       8 UNK        -0.1800 
     34 N           1.2264  -17.9512  -43.9917 N.am      8 UNK        -0.5000 
     35 C           1.7784  -19.0272  -43.4073 C.2       7 UNK         0.5000 
     36 O           1.7496  -20.1514  -43.9066 O.2       7 UNK        -0.5000 
     37 CA          2.4252  -18.8491  -42.0176 C.3       7 UNK         0.1400 
     38 CB          3.9556  -18.8255  -42.1438 C.3       7 UNK        -0.1800 
     39 N           1.9919  -17.6499  -41.2983 N.am      7 UNK        -0.5000 
     40 C           0.7319  -17.3357  -40.9618 C.2       6 UNK         0.5000 
     41 O          -0.2293  -18.0842  -41.1441 O.2       6 UNK        -0.5000 
     42 CA          0.5004  -15.9192  -40.3924 C.3       6 UNK         0.1400 
     43 CB          0.3879  -15.9675  -38.8617 C.3       6 UNK        -0.1800 
     44 N           1.5301  -14.9385  -40.7652 N.am      6 UNK        -0.5000 
     45 C           1.8780  -14.6051  -42.0163 C.2       5 UNK         0.5000 
     46 O           1.3614  -15.0967  -43.0213 O.2       5 UNK        -0.5000 
     47 CA          3.0052  -13.5686  -42.1487 C.3       5 UNK         0.1400 
     48 CB          3.6051  -13.5254  -43.5650 C.3       5 UNK        -0.1800 
     49 N           2.5161  -12.2405  -41.7907 N.am      5 UNK        -0.5000 
     50 C           2.5384  -11.7231  -40.5547 C.2       4 UNK         0.5000 
     51 O           2.9396  -12.3471  -39.5710 O.2       4 UNK        -0.5000 
     52 CA          2.0543  -10.2697  -40.3770 C.3       4 UNK         0.1400 
     53 CB          3.2544   -9.3316  -40.1724 C.3       4 UNK        -0.1800 
     54 N           1.2714   -9.7822  -41.5133 N.am      4 UNK        -0.5000 
     55 C          -0.0398   -9.9969  -41.6820 C.2       3 UNK         0.5000 
     56 O          -0.7469  -10.5919  -40.8682 O.2       3 UNK        -0.5000 
     57 CA         -0.6614   -9.4751  -42.9940 C.3       3 UNK         0.1400 
     58 CB         -1.2085   -8.0525  -42.8006 C.3       3 UNK        -0.1800 
     59 N           0.2565   -9.4862  -44.1407 N.am      3 UNK        -0.5000 
     60 C           0.8179  -10.5891  -44.6516 C.2       2 UNK         0.5000 
     61 O           0.6746  -11.7138  -44.1657 O.2       2 UNK        -0.5000 
     62 CA          1.7126  -10.4100  -45.8854 C.3       2 UNK         0.1400 
     63 CB          3.1110   -9.9089  -45.4865 C.3       2 UNK        -0.1800 
     64 N           1.8288  -11.7078  -46.5385 N.am      2 UNK        -0.5000 
     65 C           1.9436  -11.9304  -47.8510 C.2       1 UNK         0.5000 
     66 O           2.0469  -11.0338  -48.6906 O.2       1 UNK        -0.5000 
     67 C          -0.1807  -22.7696  -47.6610 C.2       11 UNK         0.5000 
     68 O          -0.1191  -23.7144  -48.4450 O.2       11 UNK        -0.5000 
     69 N          -1.2864  -22.0358  -47.4670 N.am      12 UNK        -0.5000 
     70 CA         -2.5603  -22.2527  -48.1504 C.3       12 UNK         0.1400 
     71 CB         -3.5489  -21.1430  -47.7681 C.3       12 UNK        -0.1800 
     72 C          -3.1635  -23.6397  -47.8768 C.2       12 UNK         0.5000 
     73 O          -3.6578  -24.2698  -48.8103 O.2       12 UNK        -0.5000 
     74 N          -3.0822  -24.1110  -46.6254 N.am      13 UNK        -0.5000 
     75 CA         -3.5156  -25.4514  -46.2288 C.3       13 UNK         0.1400 
     76 CB         -3.4542  -25.5857  -44.6998 C.3       13 UNK        -0.1800 
     77 C          -2.7039  -26.5666  -46.9164 C.2       13 UNK         0.5000 
     78 O          -3.2931  -27.5317  -47.4043 O.2       13 UNK        -0.5000 
     79 N          -1.3753  -26.4009  -46.9693 N.am      14 UNK        -0.5000 
     80 CA         -0.4486  -27.3320  -47.6136 C.3       14 UNK         0.1400 
     81 CB          0.9879  -26.9939  -47.1857 C.3       14 UNK        -0.1800 
     82 C          -0.5686  -27.3401  -49.1494 C.2       14 UNK         0.5000 
     83 O          -0.5407  -28.4112  -49.7563 O.2       14 UNK        -0.5000 
     84 N          -0.6990  -26.1501  -49.7489 N.am      15 UNK        -0.5000 
     85 CA         -0.7339  -25.9373  -51.1974 C.3       15 UNK         0.1400 
     86 CB         -0.2021  -24.5254  -51.4985 C.3       15 UNK        -0.1800 
     87 C          -2.1253  -26.1332  -51.8306 C.2       15 UNK         0.5000 
     88 O          -2.2526  -25.9380  -53.0399 O.2       15 UNK        -0.5000 
     89 N          -3.1471  -26.4604  -51.0239 N.am      16 UNK        -0.5000 
     90 CA         -4.5604  -26.6018  -51.4043 C.3       16 UNK         0.1400 
     91 CB         -4.7647  -27.8247  -52.3221 C.3       16 UNK        -0.1800 
     92 C          -5.1165  -25.2925  -52.0028 C.2       16 UNK         0.5000 
     93 O          -5.6202  -25.2683  -53.1277 O.2       16 UNK        -0.5000 
     94 N          -4.9244  -24.2065  -51.2428 N.am      17 UNK        -0.5000 
     95 CA         -5.2049  -22.8051  -51.5632 C.3       17 UNK         0.1400 
     96 CB         -6.7116  -22.5764  -51.8026 C.3       17 UNK        -0.1800 
     97 C          -4.3284  -22.2310  -52.6957 C.2       17 UNK         0.5000 
     98 O          -4.6308  -21.1428  -53.1849 O.2       17 UNK        -0.5000 
     99 N          -3.2631  -22.9541  -53.0780 N.am      18 UNK        -0.5000 
    100 CA        -2.3254  -22.6638  -54.1675 C.3       18 UNK         0.1400 
    101 CB        -1.4273  -21.4599  -53.8219 C.3       18 UNK        -0.1800 
    102 C         -3.0475  -22.5311  -55.5204 C.2       18 UNK         0.5000 
    103 O         -2.9433  -21.5008  -56.1861 O.2       18 UNK        -0.5000 
    104 N         -3.8126  -23.5777  -55.8662 N.am      19 UNK        -0.5000 
    105 CA        -4.6847  -23.6752  -57.0433 C.3       19 UNK         0.1400 
    106 CB        -3.8606  -23.6792  -58.3483 C.3       19 UNK        -0.1800 
    107 C         -5.8014  -22.6095  -57.0270 C.2       19 UNK         0.5000 
    108 O         -6.0859  -21.9831  -58.0492 O.2       19 UNK        -0.5000 
    109 N         -6.4004  -22.4301  -55.8408 N.am      20 UNK        -0.5000 
    110 CA        -7.4834  -21.4969  -55.5151 C.3       20 UNK         0.1400 
    111 CB        -8.7541  -21.8054  -56.3349 C.3       20 UNK        -0.1800 
    112 C         -7.0884  -20.0053  -55.5658 C.2       20 UNK         0.5000 
    113 O         -7.9758  -19.1513  -55.6014 O.2       20 UNK        -0.5000 
    114 N         -5.7857  -19.6942  -55.4953 N.am      21 UNK        -0.5000 
    115 CA        -5.2635  -18.3293  -55.3622 C.3       21 UNK         0.1400 
    116 CB        -3.7352  -18.3458  -55.5004 C.3       21 UNK        -0.1800 
    117 C         -5.6810  -17.6615  -54.0363 C.2       21 UNK         0.5000 
    118 O         -5.9766  -16.4661  -54.0232 O.2       21 UNK        -0.5000 
    119 N         -5.7481  -18.4616  -52.9651 N.am      22 UNK        -0.5000 
    120 CA        -6.3425  -18.0958  -51.6687 C.3       22 UNK         0.1400 
    121 C         -7.8960  -18.2459  -51.6218 C.2       22 UNK         0.5000 
    122 N         -8.5851  -18.5795  -52.7071 N.am      22 UNK        -0.7600 
    123 O         -8.5022  -18.0369  -50.5747 O.2       22 UNK        -0.5000 
    124 C124       -5.6536  -18.8533  -50.5013 C.3       23 UNK        -0.0398 
    125 S125       -4.0516  -18.1192  -50.0369 S.3       23 UNK        -0.2404 
    126 C126       -2.8600  -19.1641  -50.9397 C.3       23 UNK        -0.0205 
    127 H127        5.6734  -15.6510  -47.1823 H         1 UNK         0.0600 
    128 H128        4.3330  -15.7155  -46.0362 H         1 UNK         0.0600 
    129 H129        5.5861  -14.4816  -45.8615 H         1 UNK         0.0600 
    130 H130        2.4686  -14.8939  -46.8667 H         1 UNK         0.3000 
    131 H131        0.9383  -13.7617  -47.9843 H         1 UNK         0.0600 
    132 H132        1.3233  -13.0164  -50.3265 H         1 UNK         0.0800 
    133 H133        3.0359  -13.2376  -50.1538 H         1 UNK         0.0800 
    134 H134        1.4798  -16.3494  -48.3124 H         1 UNK         0.0800 
    135 H135        0.0325  -15.5854  -48.9415 H         1 UNK         0.0800 
    136 H136       -1.5759  -16.8505  -50.1310 H         1 UNK         0.1150 
    137 H137       -0.9067  -21.0346  -50.7677 H         1 UNK         0.1150 
    138 H138        2.2959  -18.5259  -49.4185 H         1 UNK         0.1150 
    139 H139        1.1412  -22.0472  -50.2211 H         1 UNK         0.0800 
    140 H140        2.3351  -21.0722  -51.0290 H         1 UNK         0.0800 
    141 H141        0.9777  -20.3259  -47.4479 H         1 UNK         0.0800 
    142 H142        2.3389  -20.7172  -46.4538 H         1 UNK         0.0800 
    143 H143        1.7690  -23.2361  -46.9075 H         1 UNK         0.0600 
    144 H144        0.8738  -21.5066  -44.8913 H         1 UNK         0.3000 
    145 H145       -1.0512  -23.7859  -42.9468 H         1 UNK         0.0600 
    146 H146        0.5298  -22.9297  -41.2295 H         1 UNK         0.0600 
    147 H147        1.3119  -24.1222  -42.2554 H         1 UNK         0.0600 
    148 H148        1.6534  -22.4135  -42.4861 H         1 UNK         0.0600 
    149 H149       -0.3752  -20.9844  -42.7521 H         1 UNK         0.3000 
    150 H150       -3.2784  -19.7647  -44.4411 H         1 UNK         0.0600 
    151 H151       -3.4889  -18.5615  -42.2756 H         1 UNK         0.0600 
    152 H152       -4.0046  -20.2331  -42.1087 H         1 UNK         0.0600 
    153 H153       -2.4328  -19.7367  -41.4941 H         1 UNK         0.0600 
    154 H154       -1.0251  -18.5150  -43.1425 H         1 UNK         0.3000 
    155 H155        1.0750  -18.3708  -46.0169 H         1 UNK         0.0600 
    156 H156       -0.6060  -16.1018  -44.8310 H         1 UNK         0.0600 
    157 H157       -0.5537  -16.5484  -46.5321 H         1 UNK         0.0600 
    158 H158        0.8866  -15.9146  -45.7461 H         1 UNK         0.0600 
    159 H159        1.2954  -17.0500  -43.5288 H         1 UNK         0.3000 
    160 H160        2.1413  -19.7151  -41.4166 H         1 UNK         0.0600 
    161 H161        4.2982  -17.9624  -42.7162 H         1 UNK         0.0600 
    162 H162        4.3205  -19.7207  -42.6494 H         1 UNK         0.0600 
    163 H163        4.4327  -18.7913  -41.1641 H         1 UNK         0.0600 
    164 H164        2.7071  -16.9647  -41.1060 H         1 UNK         0.3000 
    165 H165       -0.4497  -15.5632  -40.7955 H         1 UNK         0.0600 
    166 H166        0.1282  -14.9903  -38.4539 H         1 UNK         0.0600 
    167 H167       -0.3894  -16.6658  -38.5481 H         1 UNK         0.0600 
    168 H168        1.3229  -16.2872  -38.4000 H         1 UNK         0.0600 
    169 H169        1.9925  -14.4584  -40.0035 H         1 UNK         0.3000 
    170 H170        3.8080  -13.8622  -41.4690 H         1 UNK         0.0600 
    171 H171        4.0140  -14.4990  -43.8355 H         1 UNK         0.0600 
    172 H172        2.8624  -13.2623  -44.3167 H         1 UNK         0.0600 
    173 H173        4.4183  -12.8024  -43.6288 H         1 UNK         0.0600 
    174 H174        2.0536  -11.7259  -42.5292 H         1 UNK         0.3000 
    175 H175        1.4401  -10.2356  -39.4746 H         1 UNK         0.0600 
    176 H176        3.9125   -9.3235  -41.0422 H         1 UNK         0.0600 
    177 H177        2.9277   -8.3080  -39.9882 H         1 UNK         0.0600 
    178 H178        3.8506   -9.6401  -39.3125 H         1 UNK         0.0600 
    179 H179        1.7720   -9.2758  -42.2288 H         1 UNK         0.3000 
    180 H180       -1.5000  -10.1311  -43.2372 H         1 UNK         0.0600 
    181 H181       -0.4108   -7.3400  -42.5869 H         1 UNK         0.0600 
    182 H182       -1.9139   -8.0145  -41.9693 H         1 UNK         0.0600 
    183 H183       -1.7381   -7.7086  -43.6893 H         1 UNK         0.0600 
    184 H184        0.4304   -8.5956  -44.5846 H         1 UNK         0.3000 
    185 H185        1.2371   -9.6937  -46.5587 H         1 UNK         0.0600 
    186 H186        3.0569   -8.9329  -45.0032 H         1 UNK         0.0600 
    187 H187        3.6017  -10.5938  -44.7938 H         1 UNK         0.0600 
    188 H188        3.7541   -9.8026  -46.3604 H         1 UNK         0.0600 
    189 H189        1.6849  -12.4892  -45.9113 H         1 UNK         0.3000 
    190 H190       -1.2487  -21.2402  -46.8340 H         1 UNK         0.3000 
    191 H191       -2.3723  -22.1850  -49.2231 H         1 UNK         0.0600 
    192 H192       -3.1424  -20.1594  -48.0027 H         1 UNK         0.0600 
    193 H193       -4.4881  -21.2467  -48.3124 H         1 UNK         0.0600 
    194 H194       -3.7805  -21.1588  -46.7029 H         1 UNK         0.0600 
    195 H195       -2.7090  -23.5120  -45.8962 H         1 UNK         0.3000 
    196 H196       -4.5578  -25.5654  -46.5341 H         1 UNK         0.0600 
    197 H197       -3.8089  -26.5662  -44.3800 H         1 UNK         0.0600 
    198 H198       -4.0809  -24.8381  -44.2133 H         1 UNK         0.0600 
    199 H199       -2.4386  -25.4657  -44.3232 H         1 UNK         0.0600 
    200 H200       -0.9636  -25.5906  -46.5153 H         1 UNK         0.3000 
    201 H201       -0.6782  -28.3384  -47.2574 H         1 UNK         0.0600 
    202 H202        1.1039  -27.0687  -46.1043 H         1 UNK         0.0600 
    203 H203        1.2685  -25.9820  -47.4809 H         1 UNK         0.0600 
    204 H204        1.7040  -27.6804  -47.6388 H         1 UNK         0.0600 
    205 H205       -0.6618  -25.3089  -49.1754 H         1 UNK         0.3000 
    206 H206       -0.0625  -26.6549  -51.6731 H         1 UNK         0.0600 
    207 H207        0.7862  -24.3776  -51.0630 H         1 UNK         0.0600 
    208 H208       -0.1051  -24.3594  -52.5715 H         1 UNK         0.0600 
    209 H209       -0.8629  -23.7533  -51.1022 H         1 UNK         0.0600 
    210 H210       -2.9473  -26.5474  -50.0365 H         1 UNK         0.3000 
    211 H211       -5.1144  -26.7831  -50.4820 H         1 UNK         0.0600 
    212 H212       -4.2642  -27.7038  -53.2831 H         1 UNK         0.0600 
    213 H213       -5.8242  -27.9850  -52.5249 H         1 UNK         0.0600 
    214 H214       -4.3816  -28.7330  -51.8571 H         1 UNK         0.0600 
    215 H215       -4.4669  -24.3451  -50.3400 H         1 UNK         0.3000 
    216 H216       -4.9285  -22.2437  -50.6705 H         1 UNK         0.0600 
    217 H217       -6.9382  -21.5207  -51.9552 H         1 UNK         0.0600 
    218 H218       -7.2969  -22.9084  -50.9452 H         1 UNK         0.0600 
    219 H219       -7.0714  -23.1159  -52.6779 H         1 UNK         0.0600 
    220 H220       -3.1419  -23.8599  -52.6459 H         1 UNK         0.3000 
    221 H221       -1.6744  -23.5332  -54.2644 H         1 UNK         0.0600 
    222 H222       -2.0063  -20.5645  -53.6028 H         1 UNK         0.0600 
    223 H223       -0.8036  -21.6796  -52.9574 H         1 UNK         0.0600 
    224 H224       -0.7540  -21.2217  -54.6459 H         1 UNK         0.0600 
    225 H225       -3.8492  -24.3641  -55.2306 H         1 UNK         0.3000 
    226 H226       -5.1872  -24.6409  -56.9724 H         1 UNK         0.0600 
    227 H227       -3.0889  -24.4485  -58.3247 H         1 UNK         0.0600 
    228 H228       -4.4970  -23.8853  -59.2095 H         1 UNK         0.0600 
    229 H229       -3.3733  -22.7203  -58.5267 H         1 UNK         0.0600 
    230 H230       -6.0675  -22.9904  -55.0687 H         1 UNK         0.3000 
    231 H231       -7.7292  -21.6878  -54.4708 H         1 UNK         0.0600 
    232 H232       -8.6303  -21.5530  -57.3882 H         1 UNK         0.0600 
    233 H233       -9.6074  -21.2365  -55.9638 H         1 UNK         0.0600 
    234 H234       -9.0192  -22.8607  -56.2703 H         1 UNK         0.0600 
    235 H235       -5.1108  -20.4440  -55.4142 H         1 UNK         0.3000 
    236 H236       -5.6732  -17.7322  -56.1794 H         1 UNK         0.0600 
    237 H237       -3.4310  -18.7484  -56.4666 H         1 UNK         0.0600 
    238 H238       -3.3233  -17.3390  -55.4220 H         1 UNK         0.0600 
    239 H239       -3.2713  -18.9527  -54.7233 H         1 UNK         0.0600 
    240 H240       -5.4554  -19.4292  -53.0734 H         1 UNK         0.3000 
    241 H241       -6.1737  -17.0294  -51.5085 H         1 UNK         0.0600 
    242 H242       -9.5875  -18.6564  -52.6390 H         1 UNK         0.3800 
    243 H243       -8.1418  -18.6911  -53.6097 H         1 UNK         0.3800 
    244 H244       -6.2608  -18.8226  -49.5951 H         1 UNK         0.0800 
    245 H245       -5.5338  -19.9095  -50.7358 H         1 UNK         0.0800 
    246 H246       -3.1420  -20.2077  -50.8020 H         1 UNK         0.0800 
    247 H247       -2.9396  -18.9531  -52.0066 H         1 UNK         0.0800 
@<TRIPOS>BOND
     1    1    2 1    
     2    1  127 1    
     3    1  128 1    
     4    1  129 1    
     5    2    3 2    
     6    2    4 am   BACKBONE|DICT|INTERRES
     7    4    5 1    
     8    4  130 1    
     9    5    6 1    
    10    5   65 1    
    11    5  131 1    
    12    6    7 1    
    13    6  132 1    
    14    6  133 1    
    15    7    8 1    
    16    8    9 1    
    17    8  134 1    
    18    8  135 1    
    19    9   10 ar   
    20    9   14 ar   
    21   10   11 ar   
    22   10  136 1    
    23   11   12 ar   
    24   11  126 1    
    25   12   13 ar   
    26   12  137 1    
    27   13   14 ar   
    28   13   15 1    
    29   14  138 1    
    30   15   16 1    
    31   15  139 1    
    32   15  140 1    
    33   16   17 1    
    34   17   18 1    
    35   17  141 1    
    36   17  142 1    
    37   18   19 1    
    38   18   67 1    
    39   18  143 1    
    40   19   20 am   BACKBONE|DICT|INTERRES
    41   19  144 1    
    42   20   21 2    
    43   20   22 1    
    44   22   23 1    
    45   22   24 1    
    46   22  145 1    
    47   23  146 1    
    48   23  147 1    
    49   23  148 1    
    50   24   25 am   BACKBONE|DICT|INTERRES
    51   24  149 1    
    52   25   26 2    
    53   25   27 1    
    54   27   28 1    
    55   27   29 1    
    56   27  150 1    
    57   28  151 1    
    58   28  152 1    
    59   28  153 1    
    60   29   30 am   BACKBONE|DICT|INTERRES
    61   29  154 1    
    62   30   31 2    
    63   30   32 1    
    64   32   33 1    
    65   32   34 1    
    66   32  155 1    
    67   33  156 1    
    68   33  157 1    
    69   33  158 1    
    70   34   35 am   BACKBONE|DICT|INTERRES
    71   34  159 1    
    72   35   36 2    
    73   35   37 1    
    74   37   38 1    
    75   37   39 1    
    76   37  160 1    
    77   38  161 1    
    78   38  162 1    
    79   38  163 1    
    80   39   40 am   BACKBONE|DICT|INTERRES
    81   39  164 1    
    82   40   41 2    
    83   40   42 1    
    84   42   43 1    
    85   42   44 1    
    86   42  165 1    
    87   43  166 1    
    88   43  167 1    
    89   43  168 1    
    90   44   45 am   BACKBONE|DICT|INTERRES
    91   44  169 1    
    92   45   46 2    
    93   45   47 1    
    94   47   48 1    
    95   47   49 1    
    96   47  170 1    
    97   48  171 1    
    98   48  172 1    
    99   48  173 1    
   100   49   50 am   BACKBONE|DICT|INTERRES
   101   49  174 1    
   102   50   51 2    
   103   50   52 1    
   104   52   53 1    
   105   52   54 1    
   106   52  175 1    
   107   53  176 1    
   108   53  177 1    
   109   53  178 1    
   110   54   55 am   BACKBONE|DICT|INTERRES
   111   54  179 1    
   112   55   56 2    
   113   55   57 1    
   114   57   58 1    
   115   57   59 1    
   116   57  180 1    
   117   58  181 1    
   118   58  182 1    
   119   58  183 1    
   120   59   60 am   BACKBONE|DICT|INTERRES
   121   59  184 1    
   122   60   61 2    
   123   60   62 1    
   124   62   63 1    
   125   62   64 1    
   126   62  185 1    
   127   63  186 1    
   128   63  187 1    
   129   63  188 1    
   130   64   65 am   BACKBONE|DICT|INTERRES
   131   64  189 1    
   132   65   66 2    
   133   67   68 2    
   134   67   69 am   BACKBONE|DICT|INTERRES
   135   69   70 1    
   136   69  190 1    
   137   70   71 1    
   138   70   72 1    
   139   70  191 1    
   140   71  192 1    
   141   71  193 1    
   142   71  194 1    
   143   72   73 2    
   144   72   74 am   BACKBONE|DICT|INTERRES
   145   74   75 1    
   146   74  195 1    
   147   75   76 1    
   148   75   77 1    
   149   75  196 1    
   150   76  197 1    
   151   76  198 1    
   152   76  199 1    
   153   77   78 2    
   154   77   79 am   BACKBONE|DICT|INTERRES
   155   79   80 1    
   156   79  200 1    
   157   80   81 1    
   158   80   82 1    
   159   80  201 1    
   160   81  202 1    
   161   81  203 1    
   162   81  204 1    
   163   82   83 2    
   164   82   84 am   BACKBONE|DICT|INTERRES
   165   84   85 1    
   166   84  205 1    
   167   85   86 1    
   168   85   87 1    
   169   85  206 1    
   170   86  207 1    
   171   86  208 1    
   172   86  209 1    
   173   87   88 2    
   174   87   89 am   BACKBONE|DICT|INTERRES
   175   89   90 1    
   176   89  210 1    
   177   90   91 1    
   178   90   92 1    
   179   90  211 1    
   180   91  212 1    
   181   91  213 1    
   182   91  214 1    
   183   92   93 2    
   184   92   94 am   BACKBONE|DICT|INTERRES
   185   94   95 1    
   186   94  215 1    
   187   95   96 1    
   188   95   97 1    
   189   95  216 1    
   190   96  217 1    
   191   96  218 1    
   192   96  219 1    
   193   97   98 2    
   194   97   99 am   BACKBONE|DICT|INTERRES
   195   99  100 1    
   196   99  220 1    
   197  100  101 1    
   198  100  102 1    
   199  100  221 1    
   200  101  222 1    
   201  101  223 1    
   202  101  224 1    
   203  102  103 2    
   204  102  104 am   BACKBONE|DICT|INTERRES
   205  104  105 1    
   206  104  225 1    
   207  105  106 1    
   208  105  107 1    
   209  105  226 1    
   210  106  227 1    
   211  106  228 1    
   212  106  229 1    
   213  107  108 2    
   214  107  109 am   BACKBONE|DICT|INTERRES
   215  109  110 1    
   216  109  230 1    
   217  110  111 1    
   218  110  112 1    
   219  110  231 1    
   220  111  232 1    
   221  111  233 1    
   222  111  234 1    
   223  112  113 2    
   224  112  114 am   BACKBONE|DICT|INTERRES
   225  114  115 1    
   226  114  235 1    
   227  115  116 1    
   228  115  117 1    
   229  115  236 1    
   230  116  237 1    
   231  116  238 1    
   232  116  239 1    
   233  117  118 2    
   234  117  119 am   BACKBONE|DICT|INTERRES
   235  119  120 1    
   236  119  240 1    
   237  120  121 1    
   238  120  124 1    
   239  120  241 1    
   240  121  122 am   BACKBONE|DICT|INTERRES
   241  121  123 2    
   242  122  242 1    
   243  122  243 1    
   244  124  125 1    
   245  124  244 1    
   246  124  245 1    
   247  125  126 1    
   248  126  246 1    
   249  126  247 1    
@<TRIPOS>SUBSTRUCTURE
     1 UNK         1 GROUP             0       ****    0 ROOT    
