@<TRIPOS>MOLECULE
3R540
247   249    1
SMALL
USER_CHARGES


@<TRIPOS>ATOM
      1 CA         -2.6157  -15.0083  -47.0517 C.3       0 UNK        -0.1800 
      2 C          -2.1110  -13.7341  -47.7082 C.2       0 UNK         0.5000 
      3 O          -1.7734  -12.7794  -47.0082 O.2       0 UNK        -0.5000 
      4 N          -2.0788  -13.7195  -49.0471 N.am      1 UNK        -0.5000 
      5 CA         -1.6966  -12.5962  -49.9114 C.3       1 UNK         0.1400 
      6 C6         -1.8056  -12.9565  -51.4155 C.3       23 UNK        -0.0398 
      7 S7         -3.4886  -13.4638  -51.9143 S.3       23 UNK        -0.2404 
      8 C8         -3.2350  -15.1854  -52.4558 C.3       23 UNK        -0.0205 
      9 C9         -3.0907  -16.1372  -51.2786 C.ar      23 UNK        -0.0193 
     10 C10        -4.2277  -16.6625  -50.6626 C.ar      23 UNK        -0.1150 
     11 C11        -4.1142  -17.5255  -49.5681 C.ar      23 UNK        -0.0193 
     12 C12        -2.8425  -17.8417  -49.0778 C.ar      23 UNK        -0.1150 
     13 C13        -1.6886  -17.3142  -49.6787 C.ar      23 UNK        -0.0193 
     14 C14        -1.8277  -16.4806  -50.7921 C.ar      23 UNK        -0.1150 
     15 C15        -0.2724  -17.5641  -49.1560 C.3       23 UNK        -0.0205 
     16 S16        -0.1415  -18.5399  -47.6202 S.3       23 UNK        -0.2404 
     17 C17         0.3594  -20.1781  -48.2383 C.3       23 UNK        -0.0398 
     18 CA         -0.2273  -21.3843  -47.4666 C.3       11 UNK         0.1400 
     19 N           0.1250  -21.4301  -46.0420 N.am      11 UNK        -0.5000 
     20 C           0.0625  -22.5569  -45.3149 C.2       10 UNK         0.5000 
     21 O          -0.3021  -23.6391  -45.7755 O.2       10 UNK        -0.5000 
     22 CA          0.4269  -22.4719  -43.8229 C.3       10 UNK         0.1400 
     23 CB          1.9433  -22.3316  -43.6200 C.3       10 UNK        -0.1800 
     24 N          -0.2777  -21.3962  -43.1301 N.am      10 UNK        -0.5000 
     25 C          -1.6054  -21.3589  -42.9472 C.2       9 UNK         0.5000 
     26 O          -2.3774  -22.2332  -43.3420 O.2       9 UNK        -0.5000 
     27 CA         -2.1703  -20.1194  -42.2296 C.3       9 UNK         0.1400 
     28 CB         -2.0260  -20.2577  -40.7068 C.3       9 UNK        -0.1800 
     29 N          -1.5364  -18.8768  -42.6667 N.am      9 UNK        -0.5000 
     30 C          -1.5853  -18.4059  -43.9210 C.2       8 UNK         0.5000 
     31 O          -2.2081  -18.9441  -44.8340 O.2       8 UNK        -0.5000 
     32 CA         -0.7535  -17.1497  -44.2114 C.3       8 UNK         0.1400 
     33 CB         -1.4458  -15.9014  -43.6423 C.3       8 UNK        -0.1800 
     34 N           0.6039  -17.2474  -43.6807 N.am      8 UNK        -0.5000 
     35 C           1.5060  -18.1958  -43.9697 C.2       7 UNK         0.5000 
     36 O           1.3147  -19.1201  -44.7574 O.2       7 UNK        -0.5000 
     37 CA          2.8342  -18.1278  -43.1996 C.3       7 UNK         0.1400 
     38 CB          3.7926  -17.1084  -43.8346 C.3       7 UNK        -0.1800 
     39 N           2.6255  -17.7962  -41.7909 N.am      7 UNK        -0.5000 
     40 C           2.0847  -18.6264  -40.8893 C.2       6 UNK         0.5000 
     41 O           1.7365  -19.7804  -41.1427 O.2       6 UNK        -0.5000 
     42 CA          1.8760  -18.0576  -39.4732 C.3       6 UNK         0.1400 
     43 CB          3.1778  -18.1326  -38.6612 C.3       6 UNK        -0.1800 
     44 N           1.3888  -16.6760  -39.4831 N.am      6 UNK        -0.5000 
     45 C           0.1607  -16.3193  -39.8828 C.2       5 UNK         0.5000 
     46 O          -0.6876  -17.1214  -40.2767 O.2       5 UNK        -0.5000 
     47 CA         -0.1659  -14.8104  -39.8747 C.3       5 UNK         0.1400 
     48 CB         -0.5670  -14.3577  -38.4625 C.3       5 UNK        -0.1800 
     49 N           0.8895  -13.9222  -40.3864 N.am      5 UNK        -0.5000 
     50 C           1.5234  -14.0635  -41.5580 C.2       4 UNK         0.5000 
     51 O           1.4223  -15.0628  -42.2671 O.2       4 UNK        -0.5000 
     52 CA          2.4457  -12.9193  -42.0177 C.3       4 UNK         0.1400 
     53 CB          3.8289  -13.0542  -41.3632 C.3       4 UNK        -0.1800 
     54 N           2.6073  -12.9562  -43.4746 N.am      4 UNK        -0.5000 
     55 C           1.6534  -12.6175  -44.3521 C.2       3 UNK         0.5000 
     56 O           0.6080  -12.0410  -44.0402 O.2       3 UNK        -0.5000 
     57 CA          1.8954  -13.0435  -45.8101 C.3       3 UNK         0.1400 
     58 CB          1.3570  -14.4633  -46.0531 C.3       3 UNK        -0.1800 
     59 N           1.2269  -12.1329  -46.7358 N.am      3 UNK        -0.5000 
     60 C           1.8221  -11.1109  -47.3632 C.2       2 UNK         0.5000 
     61 O           3.0113  -10.8252  -47.2087 O.2       2 UNK        -0.5000 
     62 CA          0.9501  -10.2594  -48.3160 C.3       2 UNK         0.1400 
     63 CB          1.7625   -9.6499  -49.4783 C.3       2 UNK        -0.1800 
     64 N          -0.2409  -10.9515  -48.8261 N.am      2 UNK        -0.5000 
     65 C          -0.2859  -12.0621  -49.5783 C.2       1 UNK         0.5000 
     66 O           0.7076  -12.6704  -49.9806 O.2       1 UNK        -0.5000 
     67 C          -1.7347  -21.5881  -47.7145 C.2       11 UNK         0.5000 
     68 O          -2.0901  -22.2389  -48.6964 O.2       11 UNK        -0.5000 
     69 N          -2.5931  -21.1022  -46.8041 N.am      12 UNK        -0.5000 
     70 CA         -4.0350  -21.3497  -46.8395 C.3       12 UNK         0.1400 
     71 CB         -4.7499  -20.5132  -45.7685 C.3       12 UNK        -0.1800 
     72 C          -4.3928  -22.8376  -46.6849 C.2       12 UNK         0.5000 
     73 O          -5.2929  -23.3083  -47.3804 O.2       12 UNK        -0.5000 
     74 N          -3.6734  -23.5455  -45.8022 N.am      13 UNK        -0.5000 
     75 CA         -3.8100  -24.9859  -45.5895 C.3       13 UNK         0.1400 
     76 CB         -3.1435  -25.3730  -44.2605 C.3       13 UNK        -0.1800 
     77 C          -3.2318  -25.8146  -46.7515 C.2       13 UNK         0.5000 
     78 O          -3.8389  -26.8130  -47.1409 O.2       13 UNK        -0.5000 
     79 N          -2.0771  -25.3904  -47.2857 N.am      14 UNK        -0.5000 
     80 CA         -1.3996  -26.0288  -48.4185 C.3       14 UNK         0.1400 
     81 CB          0.0269  -25.4733  -48.5350 C.3       14 UNK        -0.1800 
     82 C          -2.1444  -25.8617  -49.7568 C.2       14 UNK         0.5000 
     83 O          -1.9843  -26.7042  -50.6415 O.2       14 UNK        -0.5000 
     84 N          -2.9343  -24.7854  -49.8784 N.am      15 UNK        -0.5000 
     85 CA         -3.7028  -24.3818  -51.0556 C.3       15 UNK         0.1400 
     86 CB         -4.7977  -25.4243  -51.3800 C.3       15 UNK        -0.1800 
     87 C          -2.7707  -24.0546  -52.2390 C.2       15 UNK         0.5000 
     88 O          -1.7146  -23.4556  -52.0242 O.2       15 UNK        -0.5000 
     89 N          -3.1524  -24.4671  -53.4559 N.am      16 UNK        -0.5000 
     90 CA         -2.4889  -24.1826  -54.7345 C.3       16 UNK         0.1400 
     91 CB         -3.3029  -24.8408  -55.8595 C.3       16 UNK        -0.1800 
     92 C          -1.0009  -24.5893  -54.8345 C.2       16 UNK         0.5000 
     93 O          -0.3159  -24.1498  -55.7589 O.2       16 UNK        -0.5000 
     94 N          -0.5194  -25.4090  -53.8906 N.am      17 UNK        -0.5000 
     95 CA          0.8886  -25.7614  -53.7215 C.3       17 UNK         0.1400 
     96 CB          0.9839  -26.9541  -52.7577 C.3       17 UNK        -0.1800 
     97 C           1.7643  -24.5936  -53.2166 C.2       17 UNK         0.5000 
     98 O           2.9814  -24.6499  -53.3999 O.2       17 UNK        -0.5000 
     99 N           1.1573  -23.5751  -52.5889 N.am      18 UNK        -0.5000 
    100 CA         1.8579  -22.4157  -52.0302 C.3       18 UNK         0.1400 
    101 CB         2.1092  -22.6443  -50.5314 C.3       18 UNK        -0.1800 
    102 C          1.1005  -21.0977  -52.2589 C.2       18 UNK         0.5000 
    103 O          1.7339  -20.0827  -52.5511 O.2       18 UNK        -0.5000 
    104 N         -0.2286  -21.1217  -52.1159 N.am      19 UNK        -0.5000 
    105 CA        -1.1171  -19.9902  -52.3621 C.3       19 UNK         0.1400 
    106 CB        -2.3666  -20.1630  -51.4860 C.3       19 UNK        -0.1800 
    107 C         -1.5131  -19.9040  -53.8458 C.2       19 UNK         0.5000 
    108 O         -1.3088  -20.8530  -54.6053 O.2       19 UNK        -0.5000 
    109 N         -2.1123  -18.7691  -54.2280 N.am      20 UNK        -0.5000 
    110 CA        -2.6923  -18.5600  -55.5590 C.3       20 UNK         0.1400 
    111 CB        -2.8546  -17.0516  -55.8019 C.3       20 UNK        -0.1800 
    112 C         -4.0448  -19.2815  -55.7420 C.2       20 UNK         0.5000 
    113 O         -4.4530  -19.5270  -56.8777 O.2       20 UNK        -0.5000 
    114 N         -4.7119  -19.5986  -54.6270 N.am      21 UNK        -0.5000 
    115 CA        -5.9880  -20.2987  -54.5476 C.3       21 UNK         0.1400 
    116 CB        -7.1487  -19.3218  -54.8394 C.3       21 UNK        -0.1800 
    117 C         -6.0491  -20.9777  -53.1684 C.2       21 UNK         0.5000 
    118 O         -5.1142  -21.7005  -52.8236 O.2       21 UNK        -0.5000 
    119 N         -7.1085  -20.7137  -52.3937 N.am      22 UNK        -0.5000 
    120 CA        -7.3080  -21.1825  -51.0106 C.3       22 UNK         0.1400 
    121 C         -7.3899  -22.7373  -50.8940 C.2       22 UNK         0.5000 
    122 N         -6.9930  -23.3543  -49.7886 N.am      22 UNK        -0.7600 
    123 O         -7.8902  -23.4055  -51.7965 O.2       22 UNK        -0.5000 
    124 C124       -6.3449  -20.4786  -50.0073 C.3       23 UNK        -0.0398 
    125 S125       -6.6445  -18.6757  -49.9889 S.3       23 UNK        -0.2404 
    126 C126       -5.3595  -18.0464  -48.8577 C.3       23 UNK        -0.0205 
    127 H127       -1.8078  -15.7329  -46.9571 H         1 UNK         0.0600 
    128 H128       -3.4194  -15.4550  -47.6358 H         1 UNK         0.0600 
    129 H129       -3.0094  -14.7927  -46.0594 H         1 UNK         0.0600 
    130 H130       -2.3713  -14.5500  -49.5441 H         1 UNK         0.3000 
    131 H131       -2.4128  -11.7951  -49.7172 H         1 UNK         0.0600 
    132 H132       -1.0915  -13.7376  -51.6788 H         1 UNK         0.0800 
    133 H133       -1.5371  -12.0928  -52.0263 H         1 UNK         0.0800 
    134 H134       -2.3677  -15.2457  -53.1151 H         1 UNK         0.0800 
    135 H135       -4.0948  -15.4846  -53.0566 H         1 UNK         0.0800 
    136 H136       -5.2064  -16.3850  -51.0281 H         1 UNK         0.1150 
    137 H137       -2.7658  -18.4819  -48.2116 H         1 UNK         0.1150 
    138 H138       -0.9443  -16.0714  -51.2622 H         1 UNK         0.1150 
    139 H139        0.3302  -18.0227  -49.9409 H         1 UNK         0.0800 
    140 H140        0.1849  -16.5938  -48.9557 H         1 UNK         0.0800 
    141 H141        0.1043  -20.2612  -49.2956 H         1 UNK         0.0800 
    142 H142        1.4483  -20.2212  -48.1960 H         1 UNK         0.0800 
    143 H143        0.2521  -22.2570  -47.9112 H         1 UNK         0.0600 
    144 H144        0.4311  -20.5606  -45.6086 H         1 UNK         0.3000 
    145 H145        0.1204  -23.4119  -43.3591 H         1 UNK         0.0600 
    146 H146        2.2002  -22.3283  -42.5606 H         1 UNK         0.0600 
    147 H147        2.4746  -23.1650  -44.0812 H         1 UNK         0.0600 
    148 H148        2.3327  -21.4144  -44.0599 H         1 UNK         0.0600 
    149 H149        0.2864  -20.6324  -42.7801 H         1 UNK         0.3000 
    150 H150       -3.2338  -20.0534  -42.4680 H         1 UNK         0.0600 
    151 H151       -2.4985  -21.1738  -40.3505 H         1 UNK         0.0600 
    152 H152       -2.5005  -19.4237  -40.1894 H         1 UNK         0.0600 
    153 H153       -0.9789  -20.2861  -40.4025 H         1 UNK         0.0600 
    154 H154       -1.0240  -18.3526  -41.9657 H         1 UNK         0.3000 
    155 H155       -0.6780  -17.0310  -45.2910 H         1 UNK         0.0600 
    156 H156       -0.9176  -14.9891  -43.9179 H         1 UNK         0.0600 
    157 H157       -1.5037  -15.9343  -42.5555 H         1 UNK         0.0600 
    158 H158       -2.4661  -15.8164  -44.0161 H         1 UNK         0.0600 
    159 H159        0.8861  -16.5026  -43.0436 H         1 UNK         0.3000 
    160 H160        3.3027  -19.1127  -43.2557 H         1 UNK         0.0600 
    161 H161        3.4103  -16.0905  -43.7618 H         1 UNK         0.0600 
    162 H162        3.9486  -17.3261  -44.8920 H         1 UNK         0.0600 
    163 H163        4.7685  -17.1330  -43.3498 H         1 UNK         0.0600 
    164 H164        2.7983  -16.8382  -41.5222 H         1 UNK         0.3000 
    165 H165        1.1293  -18.6793  -38.9741 H         1 UNK         0.0600 
    166 H166        3.9608  -17.5085  -39.0937 H         1 UNK         0.0600 
    167 H167        3.0196  -17.8083  -37.6325 H         1 UNK         0.0600 
    168 H168        3.5557  -19.1552  -38.6241 H         1 UNK         0.0600 
    169 H169        2.0306  -15.9559  -39.1859 H         1 UNK         0.3000 
    170 H170       -1.0318  -14.6714  -40.5245 H         1 UNK         0.0600 
    171 H171       -1.3628  -14.9865  -38.0606 H         1 UNK         0.0600 
    172 H172        0.2737  -14.4088  -37.7696 H         1 UNK         0.0600 
    173 H173       -0.9376  -13.3324  -38.4664 H         1 UNK         0.0600 
    174 H174        1.0558  -13.0833  -39.8495 H         1 UNK         0.3000 
    175 H175        2.0012  -11.9645  -41.7294 H         1 UNK         0.0600 
    176 H176        4.4947  -12.2513  -41.6804 H         1 UNK         0.0600 
    177 H177        3.7558  -13.0028  -40.2761 H         1 UNK         0.0600 
    178 H178        4.3040  -14.0033  -41.6157 H         1 UNK         0.0600 
    179 H179        3.4192  -13.4509  -43.8125 H         1 UNK         0.3000 
    180 H180        2.9709  -13.0516  -45.9998 H         1 UNK         0.0600 
    181 H181        1.5542  -14.7915  -47.0738 H         1 UNK         0.0600 
    182 H182        1.8261  -15.1837  -45.3833 H         1 UNK         0.0600 
    183 H183        0.2813  -14.5177  -45.8896 H         1 UNK         0.0600 
    184 H184        0.2279  -12.2680  -46.8547 H         1 UNK         0.3000 
    185 H185        0.5775   -9.4318  -47.7109 H         1 UNK         0.0600 
    186 H186        1.1301   -9.0432  -50.1264 H         1 UNK         0.0600 
    187 H187        2.5563   -9.0017  -49.1054 H         1 UNK         0.0600 
    188 H188        2.2316  -10.4197  -50.0917 H         1 UNK         0.0600 
    189 H189       -1.1205  -10.5750  -48.4996 H         1 UNK         0.3000 
    190 H190       -2.2454  -20.5282  -46.0409 H         1 UNK         0.3000 
    191 H191       -4.3918  -21.0302  -47.8190 H         1 UNK         0.0600 
    192 H192       -5.8281  -20.6744  -45.8014 H         1 UNK         0.0600 
    193 H193       -4.5780  -19.4474  -45.9153 H         1 UNK         0.0600 
    194 H194       -4.4088  -20.7705  -44.7652 H         1 UNK         0.0600 
    195 H195       -2.9807  -23.0672  -45.2371 H         1 UNK         0.3000 
    196 H196       -4.8741  -25.2194  -45.5124 H         1 UNK         0.0600 
    197 H197       -3.2402  -26.4428  -44.0711 H         1 UNK         0.0600 
    198 H198       -3.6055  -24.8509  -43.4225 H         1 UNK         0.0600 
    199 H199       -2.0799  -25.1324  -44.2570 H         1 UNK         0.0600 
    200 H200       -1.6023  -24.6002  -46.8585 H         1 UNK         0.3000 
    201 H201       -1.3314  -27.0987  -48.2114 H         1 UNK         0.0600 
    202 H202        0.5904  -25.6282  -47.6148 H         1 UNK         0.0600 
    203 H203        0.0158  -24.4058  -48.7480 H         1 UNK         0.0600 
    204 H204        0.5756  -25.9625  -49.3405 H         1 UNK         0.0600 
    205 H205       -2.8852  -24.0878  -49.1441 H         1 UNK         0.3000 
    206 H206       -4.1953  -23.4463  -50.7873 H         1 UNK         0.0600 
    207 H207       -5.3735  -25.6732  -50.4889 H         1 UNK         0.0600 
    208 H208       -5.5022  -25.0376  -52.1173 H         1 UNK         0.0600 
    209 H209       -4.3821  -26.3539  -51.7699 H         1 UNK         0.0600 
    210 H210       -4.0259  -24.9683  -53.5209 H         1 UNK         0.3000 
    211 H211       -2.5334  -23.1029  -54.8782 H         1 UNK         0.0600 
    212 H212       -3.3331  -25.9255  -55.7502 H         1 UNK         0.0600 
    213 H213       -2.8719  -24.6208  -56.8372 H         1 UNK         0.0600 
    214 H214       -4.3295  -24.4736  -55.8714 H         1 UNK         0.0600 
    215 H215       -1.1501  -25.7136  -53.1621 H         1 UNK         0.3000 
    216 H216        1.2817  -26.0727  -54.6915 H         1 UNK         0.0600 
    217 H217        2.0185  -27.2774  -52.6352 H         1 UNK         0.0600 
    218 H218        0.4186  -27.8091  -53.1289 H         1 UNK         0.0600 
    219 H219        0.5997  -26.7017  -51.7688 H         1 UNK         0.0600 
    220 H220        0.1460  -23.5935  -52.4907 H         1 UNK         0.3000 
    221 H221        2.8260  -22.2991  -52.5221 H         1 UNK         0.0600 
    222 H222        1.1719  -22.7845  -49.9953 H         1 UNK         0.0600 
    223 H223        2.7271  -23.5266  -50.3635 H         1 UNK         0.0600 
    224 H224        2.6247  -21.7937  -50.0838 H         1 UNK         0.0600 
    225 H225       -0.7033  -22.0047  -51.9394 H         1 UNK         0.3000 
    226 H226       -0.6172  -19.0611  -52.0818 H         1 UNK         0.0600 
    227 H227       -2.1043  -20.1738  -50.4301 H         1 UNK         0.0600 
    228 H228       -3.0804  -19.3533  -51.6355 H         1 UNK         0.0600 
    229 H229       -2.8837  -21.0958  -51.7000 H         1 UNK         0.0600 
    230 H230       -2.2365  -18.0251  -53.5575 H         1 UNK         0.3000 
    231 H231       -2.0017  -18.9522  -56.3087 H         1 UNK         0.0600 
    232 H232       -3.2038  -16.8577  -56.8169 H         1 UNK         0.0600 
    233 H233       -1.9082  -16.5247  -55.6788 H         1 UNK         0.0600 
    234 H234       -3.5803  -16.6101  -55.1193 H         1 UNK         0.0600 
    235 H235       -4.2701  -19.4192  -53.7370 H         1 UNK         0.3000 
    236 H236       -6.0032  -21.0971  -55.2922 H         1 UNK         0.0600 
    237 H237       -7.1726  -18.4966  -54.1262 H         1 UNK         0.0600 
    238 H238       -7.0566  -18.8904  -55.8362 H         1 UNK         0.0600 
    239 H239       -8.1132  -19.8296  -54.8046 H         1 UNK         0.0600 
    240 H240       -7.8362  -20.1190  -52.7611 H         1 UNK         0.3000 
    241 H241       -8.3178  -20.8630  -50.7506 H         1 UNK         0.0600 
    242 H242       -7.1067  -24.3535  -49.7445 H         1 UNK         0.3800 
    243 H243       -6.5538  -22.8929  -49.0032 H         1 UNK         0.3800 
    244 H244       -5.3008  -20.6789  -50.2535 H         1 UNK         0.0800 
    245 H245       -6.5099  -20.8407  -48.9923 H         1 UNK         0.0800 
    246 H246       -5.1026  -18.8195  -48.1365 H         1 UNK         0.0800 
    247 H247       -5.7845  -17.2238  -48.2815 H         1 UNK         0.0800 
@<TRIPOS>BOND
     1    1    2 1    
     2    1  127 1    
     3    1  128 1    
     4    1  129 1    
     5    2    3 2    
     6    2    4 am   BACKBONE|DICT|INTERRES
     7    4    5 1    
     8    4  130 1    
     9    5    6 1    
    10    5   65 1    
    11    5  131 1    
    12    6    7 1    
    13    6  132 1    
    14    6  133 1    
    15    7    8 1    
    16    8    9 1    
    17    8  134 1    
    18    8  135 1    
    19    9   10 ar   
    20    9   14 ar   
    21   10   11 ar   
    22   10  136 1    
    23   11   12 ar   
    24   11  126 1    
    25   12   13 ar   
    26   12  137 1    
    27   13   14 ar   
    28   13   15 1    
    29   14  138 1    
    30   15   16 1    
    31   15  139 1    
    32   15  140 1    
    33   16   17 1    
    34   17   18 1    
    35   17  141 1    
    36   17  142 1    
    37   18   19 1    
    38   18   67 1    
    39   18  143 1    
    40   19   20 am   BACKBONE|DICT|INTERRES
    41   19  144 1    
    42   20   21 2    
    43   20   22 1    
    44   22   23 1    
    45   22   24 1    
    46   22  145 1    
    47   23  146 1    
    48   23  147 1    
    49   23  148 1    
    50   24   25 am   BACKBONE|DICT|INTERRES
    51   24  149 1    
    52   25   26 2    
    53   25   27 1    
    54   27   28 1    
    55   27   29 1    
    56   27  150 1    
    57   28  151 1    
    58   28  152 1    
    59   28  153 1    
    60   29   30 am   BACKBONE|DICT|INTERRES
    61   29  154 1    
    62   30   31 2    
    63   30   32 1    
    64   32   33 1    
    65   32   34 1    
    66   32  155 1    
    67   33  156 1    
    68   33  157 1    
    69   33  158 1    
    70   34   35 am   BACKBONE|DICT|INTERRES
    71   34  159 1    
    72   35   36 2    
    73   35   37 1    
    74   37   38 1    
    75   37   39 1    
    76   37  160 1    
    77   38  161 1    
    78   38  162 1    
    79   38  163 1    
    80   39   40 am   BACKBONE|DICT|INTERRES
    81   39  164 1    
    82   40   41 2    
    83   40   42 1    
    84   42   43 1    
    85   42   44 1    
    86   42  165 1    
    87   43  166 1    
    88   43  167 1    
    89   43  168 1    
    90   44   45 am   BACKBONE|DICT|INTERRES
    91   44  169 1    
    92   45   46 2    
    93   45   47 1    
    94   47   48 1    
    95   47   49 1    
    96   47  170 1    
    97   48  171 1    
    98   48  172 1    
    99   48  173 1    
   100   49   50 am   BACKBONE|DICT|INTERRES
   101   49  174 1    
   102   50   51 2    
   103   50   52 1    
   104   52   53 1    
   105   52   54 1    
   106   52  175 1    
   107   53  176 1    
   108   53  177 1    
   109   53  178 1    
   110   54   55 am   BACKBONE|DICT|INTERRES
   111   54  179 1    
   112   55   56 2    
   113   55   57 1    
   114   57   58 1    
   115   57   59 1    
   116   57  180 1    
   117   58  181 1    
   118   58  182 1    
   119   58  183 1    
   120   59   60 am   BACKBONE|DICT|INTERRES
   121   59  184 1    
   122   60   61 2    
   123   60   62 1    
   124   62   63 1    
   125   62   64 1    
   126   62  185 1    
   127   63  186 1    
   128   63  187 1    
   129   63  188 1    
   130   64   65 am   BACKBONE|DICT|INTERRES
   131   64  189 1    
   132   65   66 2    
   133   67   68 2    
   134   67   69 am   BACKBONE|DICT|INTERRES
   135   69   70 1    
   136   69  190 1    
   137   70   71 1    
   138   70   72 1    
   139   70  191 1    
   140   71  192 1    
   141   71  193 1    
   142   71  194 1    
   143   72   73 2    
   144   72   74 am   BACKBONE|DICT|INTERRES
   145   74   75 1    
   146   74  195 1    
   147   75   76 1    
   148   75   77 1    
   149   75  196 1    
   150   76  197 1    
   151   76  198 1    
   152   76  199 1    
   153   77   78 2    
   154   77   79 am   BACKBONE|DICT|INTERRES
   155   79   80 1    
   156   79  200 1    
   157   80   81 1    
   158   80   82 1    
   159   80  201 1    
   160   81  202 1    
   161   81  203 1    
   162   81  204 1    
   163   82   83 2    
   164   82   84 am   BACKBONE|DICT|INTERRES
   165   84   85 1    
   166   84  205 1    
   167   85   86 1    
   168   85   87 1    
   169   85  206 1    
   170   86  207 1    
   171   86  208 1    
   172   86  209 1    
   173   87   88 2    
   174   87   89 am   BACKBONE|DICT|INTERRES
   175   89   90 1    
   176   89  210 1    
   177   90   91 1    
   178   90   92 1    
   179   90  211 1    
   180   91  212 1    
   181   91  213 1    
   182   91  214 1    
   183   92   93 2    
   184   92   94 am   BACKBONE|DICT|INTERRES
   185   94   95 1    
   186   94  215 1    
   187   95   96 1    
   188   95   97 1    
   189   95  216 1    
   190   96  217 1    
   191   96  218 1    
   192   96  219 1    
   193   97   98 2    
   194   97   99 am   BACKBONE|DICT|INTERRES
   195   99  100 1    
   196   99  220 1    
   197  100  101 1    
   198  100  102 1    
   199  100  221 1    
   200  101  222 1    
   201  101  223 1    
   202  101  224 1    
   203  102  103 2    
   204  102  104 am   BACKBONE|DICT|INTERRES
   205  104  105 1    
   206  104  225 1    
   207  105  106 1    
   208  105  107 1    
   209  105  226 1    
   210  106  227 1    
   211  106  228 1    
   212  106  229 1    
   213  107  108 2    
   214  107  109 am   BACKBONE|DICT|INTERRES
   215  109  110 1    
   216  109  230 1    
   217  110  111 1    
   218  110  112 1    
   219  110  231 1    
   220  111  232 1    
   221  111  233 1    
   222  111  234 1    
   223  112  113 2    
   224  112  114 am   BACKBONE|DICT|INTERRES
   225  114  115 1    
   226  114  235 1    
   227  115  116 1    
   228  115  117 1    
   229  115  236 1    
   230  116  237 1    
   231  116  238 1    
   232  116  239 1    
   233  117  118 2    
   234  117  119 am   BACKBONE|DICT|INTERRES
   235  119  120 1    
   236  119  240 1    
   237  120  121 1    
   238  120  124 1    
   239  120  241 1    
   240  121  122 am   BACKBONE|DICT|INTERRES
   241  121  123 2    
   242  122  242 1    
   243  122  243 1    
   244  124  125 1    
   245  124  244 1    
   246  124  245 1    
   247  125  126 1    
   248  126  246 1    
   249  126  247 1    
@<TRIPOS>SUBSTRUCTURE
     1 UNK         1 GROUP             0       ****    0 ROOT    
