@<TRIPOS>MOLECULE
3R540
247   249    1
SMALL
USER_CHARGES


@<TRIPOS>ATOM
      1 CA         -0.5366  -12.2345  -47.6996 C.3       0 UNK        -0.1800 
      2 C           0.7885  -12.0023  -48.4132 C.2       0 UNK         0.5000 
      3 O           0.7952  -11.6772  -49.6003 O.2       0 UNK        -0.5000 
      4 N           1.9002  -12.1650  -47.6903 N.am      1 UNK        -0.5000 
      5 CA          3.2727  -11.9401  -48.1523 C.3       1 UNK         0.1400 
      6 C6          4.0420  -13.2635  -48.4227 C.3       23 UNK        -0.0398 
      7 S7          3.2475  -14.3467  -49.6563 S.3       23 UNK        -0.2404 
      8 C8          2.4942  -15.5603  -48.5351 C.3       23 UNK        -0.0205 
      9 C9          1.5200  -16.4754  -49.2538 C.ar      23 UNK        -0.0193 
     10 C10         0.2165  -16.0442  -49.5124 C.ar      23 UNK        -0.1150 
     11 C11        -0.7093  -16.9086  -50.1006 C.ar      23 UNK        -0.0193 
     12 C12        -0.3281  -18.2159  -50.4156 C.ar      23 UNK        -0.1150 
     13 C13         0.9771  -18.6553  -50.1779 C.ar      23 UNK        -0.0193 
     14 C14         1.9033  -17.7694  -49.6144 C.ar      23 UNK        -0.1150 
     15 C15         1.3562  -20.0952  -50.5146 C.3       23 UNK        -0.0205 
     16 S16         2.3985  -20.9159  -49.2566 S.3       23 UNK        -0.2404 
     17 C17         1.5053  -20.5621  -47.7028 C.3       23 UNK        -0.0398 
     18 CA          0.6318  -21.7285  -47.1983 C.3       11 UNK         0.1400 
     19 N           0.2933  -21.5494  -45.7868 N.am      11 UNK        -0.5000 
     20 C          -0.2767  -22.4764  -45.0081 C.2       10 UNK         0.5000 
     21 O          -0.5394  -23.6177  -45.3847 O.2       10 UNK        -0.5000 
     22 CA         -0.6595  -22.0360  -43.5839 C.3       10 UNK         0.1400 
     23 CB          0.5597  -22.0835  -42.6512 C.3       10 UNK        -0.1800 
     24 N          -1.2540  -20.6979  -43.5537 N.am      10 UNK        -0.5000 
     25 C          -2.4145  -20.3769  -44.1437 C.2       9 UNK         0.5000 
     26 O          -3.1273  -21.1917  -44.7296 O.2       9 UNK        -0.5000 
     27 CA         -2.8329  -18.8958  -44.1104 C.3       9 UNK         0.1400 
     28 CB         -3.4674  -18.5395  -42.7580 C.3       9 UNK        -0.1800 
     29 N          -1.7262  -17.9806  -44.3945 N.am      9 UNK        -0.5000 
     30 C          -1.0590  -17.9263  -45.5565 C.2       8 UNK         0.5000 
     31 O          -1.3208  -18.6343  -46.5270 O.2       8 UNK        -0.5000 
     32 CA          0.1385  -16.9603  -45.6286 C.3       8 UNK         0.1400 
     33 CB         -0.3310  -15.5108  -45.8269 C.3       8 UNK        -0.1800 
     34 N           0.9951  -17.0436  -44.4450 N.am      8 UNK        -0.5000 
     35 C           1.6488  -18.1491  -44.0582 C.2       7 UNK         0.5000 
     36 O           1.6451  -19.2054  -44.6896 O.2       7 UNK        -0.5000 
     37 CA          2.3760  -18.0821  -42.7054 C.3       7 UNK         0.1400 
     38 CB          3.7383  -17.3830  -42.8387 C.3       7 UNK        -0.1800 
     39 N           1.5641  -17.4108  -41.6901 N.am      7 UNK        -0.5000 
     40 C           0.4323  -17.9153  -41.1759 C.2       6 UNK         0.5000 
     41 O          -0.0212  -19.0200  -41.4726 O.2       6 UNK        -0.5000 
     42 CA         -0.3452  -17.0143  -40.1993 C.3       6 UNK         0.1400 
     43 CB          0.2234  -17.1392  -38.7780 C.3       6 UNK        -0.1800 
     44 N          -0.3326  -15.6084  -40.6051 N.am      6 UNK        -0.5000 
     45 C          -0.9212  -15.1311  -41.7115 C.2       5 UNK         0.5000 
     46 O          -1.5858  -15.8209  -42.4827 O.2       5 UNK        -0.5000 
     47 CA         -0.6775  -13.6457  -42.0375 C.3       5 UNK         0.1400 
     48 CB         -1.7305  -12.7612  -41.3543 C.3       5 UNK        -0.1800 
     49 N           0.6635  -13.1983  -41.6500 N.am      5 UNK        -0.5000 
     50 C           1.7955  -13.6530  -42.2011 C.2       4 UNK         0.5000 
     51 O           1.8287  -14.4723  -43.1244 O.2       4 UNK        -0.5000 
     52 CA          3.1043  -13.1616  -41.5729 C.3       4 UNK         0.1400 
     53 CB          3.4616  -14.0115  -40.3388 C.3       4 UNK        -0.1800 
     54 N           4.1637  -13.2555  -42.5694 N.am      4 UNK        -0.5000 
     55 C           5.3216  -12.5875  -42.5391 C.2       3 UNK         0.5000 
     56 O           5.6440  -11.8164  -41.6341 O.2       3 UNK        -0.5000 
     57 CA          6.2614  -12.7704  -43.7382 C.3       3 UNK         0.1400 
     58 CB          6.1601  -14.1574  -44.4068 C.3       3 UNK        -0.1800 
     59 N           5.9319  -11.7341  -44.7053 N.am      3 UNK        -0.5000 
     60 C           6.7865  -11.0538  -45.4731 C.2       2 UNK         0.5000 
     61 O           8.0056  -11.2345  -45.4644 O.2       2 UNK        -0.5000 
     62 CA          6.1483  -10.0237  -46.4357 C.3       2 UNK         0.1400 
     63 CB          7.1961   -9.2325  -47.2396 C.3       2 UNK        -0.1800 
     64 N           5.2177  -10.6604  -47.3743 N.am      2 UNK        -0.5000 
     65 C           4.0000  -11.1262  -47.0657 C.2       1 UNK         0.5000 
     66 O           3.4850  -10.9838  -45.9507 O.2       1 UNK        -0.5000 
     67 C          -0.6272  -21.9372  -48.0683 C.2       11 UNK         0.5000 
     68 O          -0.6385  -22.8411  -48.9024 O.2       11 UNK        -0.5000 
     69 N          -1.6804  -21.1417  -47.8304 N.am      12 UNK        -0.5000 
     70 CA         -2.9871  -21.2738  -48.4790 C.3       12 UNK         0.1400 
     71 CB         -3.8949  -20.1111  -48.0532 C.3       12 UNK        -0.1800 
     72 C          -3.6638  -22.6249  -48.1835 C.2       12 UNK         0.5000 
     73 O          -4.2090  -23.2457  -49.0968 O.2       12 UNK        -0.5000 
     74 N          -3.5833  -23.0757  -46.9229 N.am      13 UNK        -0.5000 
     75 CA         -4.0425  -24.3927  -46.4831 C.3       13 UNK         0.1400 
     76 CB         -3.9624  -24.4942  -44.9527 C.3       13 UNK        -0.1800 
     77 C          -3.2674  -25.5360  -47.1627 C.2       13 UNK         0.5000 
     78 O          -3.8927  -26.4602  -47.6857 O.2       13 UNK        -0.5000 
     79 N          -1.9302  -25.4229  -47.1858 N.am      14 UNK        -0.5000 
     80 CA         -1.0138  -26.3572  -47.8451 C.3       14 UNK         0.1400 
     81 CB          0.4385  -25.9750  -47.5235 C.3       14 UNK        -0.1800 
     82 C          -1.2290  -26.4541  -49.3671 C.2       14 UNK         0.5000 
     83 O          -1.1136  -27.5465  -49.9239 O.2       14 UNK        -0.5000 
     84 N          -1.6110  -25.3395  -50.0056 N.am      15 UNK        -0.5000 
     85 CA         -2.0368  -25.2401  -51.4056 C.3       15 UNK         0.1400 
     86 CB         -1.9003  -23.7762  -51.8651 C.3       15 UNK        -0.1800 
     87 C          -3.4591  -25.8037  -51.6426 C.2       15 UNK         0.5000 
     88 O          -4.2647  -25.1761  -52.3327 O.2       15 UNK        -0.5000 
     89 N          -3.7366  -26.9772  -51.0544 N.am      16 UNK        -0.5000 
     90 CA         -4.9721  -27.7636  -51.1049 C.3       16 UNK         0.1400 
     91 CB         -5.0653  -28.5086  -52.4506 C.3       16 UNK        -0.1800 
     92 C          -6.2382  -26.9520  -50.7596 C.2       16 UNK         0.5000 
     93 O          -7.2523  -27.0672  -51.4498 O.2       16 UNK        -0.5000 
     94 N          -6.1392  -26.1430  -49.6934 N.am      17 UNK        -0.5000 
     95 CA         -7.1557  -25.2099  -49.1979 C.3       17 UNK         0.1400 
     96 CB         -8.3597  -25.9746  -48.6092 C.3       17 UNK        -0.1800 
     97 C          -7.5531  -24.1622  -50.2587 C.2       17 UNK         0.5000 
     98 O          -8.7254  -24.0615  -50.6266 O.2       17 UNK        -0.5000 
     99 N          -6.5476  -23.4063  -50.7216 N.am      18 UNK        -0.5000 
    100 CA        -6.6229  -22.3340  -51.7175 C.3       18 UNK         0.1400 
    101 CB        -7.4258  -21.1401  -51.1596 C.3       18 UNK        -0.1800 
    102 C         -7.1357  -22.8231  -53.0890 C.2       18 UNK         0.5000 
    103 O         -8.0539  -22.2310  -53.6616 O.2       18 UNK        -0.5000 
    104 N         -6.5415  -23.9121  -53.5939 N.am      19 UNK        -0.5000 
    105 CA        -6.7976  -24.4354  -54.9331 C.3       19 UNK         0.1400 
    106 CB        -6.3978  -25.9168  -54.9888 C.3       19 UNK        -0.1800 
    107 C         -6.0101  -23.6027  -55.9577 C.2       19 UNK         0.5000 
    108 O         -4.7818  -23.7038  -56.0043 O.2       19 UNK        -0.5000 
    109 N         -6.7226  -22.7586  -56.7175 N.am      20 UNK        -0.5000 
    110 CA        -6.2481  -21.7904  -57.7216 C.3       20 UNK         0.1400 
    111 CB        -5.4853  -22.4852  -58.8667 C.3       20 UNK        -0.1800 
    112 C         -5.4369  -20.6110  -57.1420 C.2       20 UNK         0.5000 
    113 O         -5.6504  -19.4695  -57.5541 O.2       20 UNK        -0.5000 
    114 N         -4.5439  -20.8969  -56.1885 N.am      21 UNK        -0.5000 
    115 CA        -3.8279  -19.9313  -55.3590 C.3       21 UNK         0.1400 
    116 CB        -2.7072  -20.6779  -54.6136 C.3       21 UNK        -0.1800 
    117 C         -4.7638  -19.2308  -54.3530 C.2       21 UNK         0.5000 
    118 O         -5.8825  -19.6917  -54.1129 O.2       21 UNK        -0.5000 
    119 N         -4.2685  -18.1417  -53.7569 N.am      22 UNK        -0.5000 
    120 CA        -4.8902  -17.4516  -52.6160 C.3       22 UNK         0.1400 
    121 C         -5.0209  -18.3382  -51.3421 C.2       22 UNK         0.5000 
    122 N         -5.8997  -17.9699  -50.4189 N.am      22 UNK        -0.7600 
    123 O         -4.3161  -19.3288  -51.1647 O.2       22 UNK        -0.5000 
    124 C124       -4.1830  -16.1020  -52.3069 C.3       23 UNK        -0.0398 
    125 S125       -2.3626  -16.2131  -52.1842 S.3       23 UNK        -0.2404 
    126 C126       -2.1247  -16.4439  -50.3942 C.3       23 UNK        -0.0205 
    127 H127       -0.3929  -12.4949  -46.6507 H         1 UNK         0.0600 
    128 H128       -1.0860  -13.0445  -48.1788 H         1 UNK         0.0600 
    129 H129       -1.1490  -11.3341  -47.7438 H         1 UNK         0.0600 
    130 H130        1.8301  -12.3291  -46.6948 H         1 UNK         0.3000 
    131 H131        3.2672  -11.3357  -49.0618 H         1 UNK         0.0600 
    132 H132        5.0445  -13.0486  -48.7960 H         1 UNK         0.0800 
    133 H133        4.1875  -13.8211  -47.4952 H         1 UNK         0.0800 
    134 H134        1.9680  -15.0371  -47.7368 H         1 UNK         0.0800 
    135 H135        3.2804  -16.1432  -48.0521 H         1 UNK         0.0800 
    136 H136       -0.0754  -15.0378  -49.2492 H         1 UNK         0.1150 
    137 H137       -1.0543  -18.8874  -50.8535 H         1 UNK         0.1150 
    138 H138        2.9138  -18.0996  -49.4195 H         1 UNK         0.1150 
    139 H139        0.4590  -20.6996  -50.6586 H         1 UNK         0.0800 
    140 H140        1.8863  -20.1023  -51.4675 H         1 UNK         0.0800 
    141 H141        0.9199  -19.6456  -47.7689 H         1 UNK         0.0800 
    142 H142        2.2814  -20.3512  -46.9665 H         1 UNK         0.0800 
    143 H143        1.2264  -22.6421  -47.2622 H         1 UNK         0.0600 
    144 H144        0.5170  -20.6449  -45.3815 H         1 UNK         0.3000 
    145 H145       -1.4030  -22.7413  -43.2071 H         1 UNK         0.0600 
    146 H146        0.2777  -21.8539  -41.6235 H         1 UNK         0.0600 
    147 H147        1.0129  -23.0755  -42.6506 H         1 UNK         0.0600 
    148 H148        1.3273  -21.3706  -42.9537 H         1 UNK         0.0600 
    149 H149       -0.7453  -19.9835  -43.0415 H         1 UNK         0.3000 
    150 H150       -3.5880  -18.7490  -44.8851 H         1 UNK         0.0600 
    151 H151       -4.3070  -19.1989  -42.5344 H         1 UNK         0.0600 
    152 H152       -3.8474  -17.5178  -42.7585 H         1 UNK         0.0600 
    153 H153       -2.7516  -18.6294  -41.9408 H         1 UNK         0.0600 
    154 H154       -1.4821  -17.3232  -43.6587 H         1 UNK         0.3000 
    155 H155        0.7428  -17.2445  -46.4923 H         1 UNK         0.0600 
    156 H156       -0.9874  -15.1834  -45.0214 H         1 UNK         0.0600 
    157 H157       -0.8846  -15.4072  -46.7606 H         1 UNK         0.0600 
    158 H158        0.5126  -14.8221  -45.8657 H         1 UNK         0.0600 
    159 H159        1.0846  -16.2038  -43.8828 H         1 UNK         0.3000 
    160 H160        2.5550  -19.1066  -42.3720 H         1 UNK         0.0600 
    161 H161        4.2687  -17.3672  -41.8865 H         1 UNK         0.0600 
    162 H162        3.6403  -16.3546  -43.1847 H         1 UNK         0.0600 
    163 H163        4.3730  -17.9066  -43.5546 H         1 UNK         0.0600 
    164 H164        1.8414  -16.4774  -41.4295 H         1 UNK         0.3000 
    165 H165       -1.3826  -17.3548  -40.1844 H         1 UNK         0.0600 
    166 H166       -0.3673  -16.5634  -38.0653 H         1 UNK         0.0600 
    167 H167        0.2122  -18.1775  -38.4436 H         1 UNK         0.0600 
    168 H168        1.2544  -16.7872  -38.7221 H         1 UNK         0.0600 
    169 H169        0.1855  -14.9690  -40.0215 H         1 UNK         0.3000 
    170 H170       -0.7766  -13.5225  -43.1181 H         1 UNK         0.0600 
    171 H171       -2.7386  -13.0621  -41.6429 H         1 UNK         0.0600 
    172 H172       -1.6677  -12.8241  -40.2672 H         1 UNK         0.0600 
    173 H173       -1.6113  -11.7155  -41.6383 H         1 UNK         0.0600 
    174 H174        0.7154  -12.5281  -40.8961 H         1 UNK         0.3000 
    175 H175        2.9771  -12.1174  -41.2795 H         1 UNK         0.0600 
    176 H176        3.6252  -15.0566  -40.6042 H         1 UNK         0.0600 
    177 H177        4.3678  -13.6466  -39.8553 H         1 UNK         0.0600 
    178 H178        2.6665  -13.9803  -39.5931 H         1 UNK         0.0600 
    179 H179        3.9325  -13.8391  -43.3634 H         1 UNK         0.3000 
    180 H180        7.2812  -12.6328  -43.3723 H         1 UNK         0.0600 
    181 H181        5.1951  -14.3138  -44.8903 H         1 UNK         0.0600 
    182 H182        6.3030  -14.9562  -43.6779 H         1 UNK         0.0600 
    183 H183        6.9298  -14.2753  -45.1697 H         1 UNK         0.0600 
    184 H184        4.9454  -11.5044  -44.7928 H         1 UNK         0.3000 
    185 H185        5.5941   -9.3094  -45.8231 H         1 UNK         0.0600 
    186 H186        7.8897   -8.7151  -46.5755 H         1 UNK         0.0600 
    187 H187        7.7842   -9.8835  -47.8877 H         1 UNK         0.0600 
    188 H188        6.7232   -8.4750  -47.8650 H         1 UNK         0.0600 
    189 H189        5.5824  -10.8277  -48.3011 H         1 UNK         0.3000 
    190 H190       -1.5789  -20.3719  -47.1731 H         1 UNK         0.3000 
    191 H191       -2.8322  -21.2076  -49.5579 H         1 UNK         0.0600 
    192 H192       -4.0488  -20.0877  -46.9752 H         1 UNK         0.0600 
    193 H193       -4.8755  -20.1951  -48.5224 H         1 UNK         0.0600 
    194 H194       -3.4703  -19.1527  -48.3529 H         1 UNK         0.0600 
    195 H195       -3.1717  -22.4745  -46.2149 H         1 UNK         0.3000 
    196 H196       -5.0917  -24.4880  -46.7633 H         1 UNK         0.0600 
    197 H197       -4.3343  -25.4593  -44.6067 H         1 UNK         0.0600 
    198 H198       -4.5666  -23.7224  -44.4756 H         1 UNK         0.0600 
    199 H199       -2.9408  -24.3879  -44.5896 H         1 UNK         0.0600 
    200 H200       -1.4998  -24.6426  -46.6964 H         1 UNK         0.3000 
    201 H201       -1.2027  -27.3473  -47.4254 H         1 UNK         0.0600 
    202 H202        0.6184  -25.9772  -46.4484 H         1 UNK         0.0600 
    203 H203        0.6877  -24.9844  -47.9030 H         1 UNK         0.0600 
    204 H204        1.1368  -26.6829  -47.9716 H         1 UNK         0.0600 
    205 H205       -1.6245  -24.4726  -49.4770 H         1 UNK         0.3000 
    206 H206       -1.3560  -25.8402  -52.0122 H         1 UNK         0.0600 
    207 H207       -0.8847  -23.4085  -51.7172 H         1 UNK         0.0600 
    208 H208       -2.1301  -23.6736  -52.9263 H         1 UNK         0.0600 
    209 H209       -2.5759  -23.1189  -51.3172 H         1 UNK         0.0600 
    210 H210       -2.9835  -27.3907  -50.5144 H         1 UNK         0.3000 
    211 H211       -4.8835  -28.5179  -50.3218 H         1 UNK         0.0600 
    212 H212       -5.1085  -27.8173  -53.2896 H         1 UNK         0.0600 
    213 H213       -5.9535  -29.1400  -52.4946 H         1 UNK         0.0600 
    214 H214       -4.2017  -29.1565  -52.5996 H         1 UNK         0.0600 
    215 H215       -5.2579  -26.1383  -49.1893 H         1 UNK         0.3000 
    216 H216       -6.6961  -24.6534  -48.3819 H         1 UNK         0.0600 
    217 H217       -9.0732  -25.2857  -48.1558 H         1 UNK         0.0600 
    218 H218       -8.0417  -26.6701  -47.8325 H         1 UNK         0.0600 
    219 H219       -8.8946  -26.5435  -49.3702 H         1 UNK         0.0600 
    220 H220       -5.6226  -23.5591  -50.3256 H         1 UNK         0.3000 
    221 H221       -5.5989  -21.9922  -51.8782 H         1 UNK         0.0600 
    222 H222       -8.4737  -21.3916  -50.9961 H         1 UNK         0.0600 
    223 H223       -7.0095  -20.7968  -50.2128 H         1 UNK         0.0600 
    224 H224       -7.3977  -20.2968  -51.8503 H         1 UNK         0.0600 
    225 H225       -5.7750  -24.3443  -53.0806 H         1 UNK         0.3000 
    226 H226       -7.8657  -24.3701  -55.1521 H         1 UNK         0.0600 
    227 H227       -6.9556  -26.5014  -54.2570 H         1 UNK         0.0600 
    228 H228       -6.6052  -26.3395  -55.9724 H         1 UNK         0.0600 
    229 H229       -5.3342  -26.0529  -54.7906 H         1 UNK         0.0600 
    230 H230       -7.7170  -22.7132  -56.5382 H         1 UNK         0.3000 
    231 H231       -7.1521  -21.3577  -58.1538 H         1 UNK         0.0600 
    232 H232       -6.0831  -23.2793  -59.3142 H         1 UNK         0.0600 
    233 H233       -4.5451  -22.9217  -58.5279 H         1 UNK         0.0600 
    234 H234       -5.2445  -21.7744  -59.6583 H         1 UNK         0.0600 
    235 H235       -4.4509  -21.8756  -55.9312 H         1 UNK         0.3000 
    236 H236       -3.3842  -19.1746  -56.0096 H         1 UNK         0.0600 
    237 H237       -2.1093  -19.9954  -54.0082 H         1 UNK         0.0600 
    238 H238       -3.1115  -21.4388  -53.9437 H         1 UNK         0.0600 
    239 H239       -2.0286  -21.1713  -55.3103 H         1 UNK         0.0600 
    240 H240       -3.3287  -17.8441  -53.9757 H         1 UNK         0.3000 
    241 H241       -5.9116  -17.2184  -52.9230 H         1 UNK         0.0600 
    242 H242       -5.9857  -18.5235  -49.5831 H         1 UNK         0.3800 
    243 H243       -6.4926  -17.1636  -50.5393 H         1 UNK         0.3800 
    244 H244       -4.4032  -15.4004  -53.1125 H         1 UNK         0.0800 
    245 H245       -4.5852  -15.6359  -51.4057 H         1 UNK         0.0800 
    246 H246       -2.3459  -15.5097  -49.8754 H         1 UNK         0.0800 
    247 H247       -2.8220  -17.1866  -50.0072 H         1 UNK         0.0800 
@<TRIPOS>BOND
     1    1    2 1    
     2    1  127 1    
     3    1  128 1    
     4    1  129 1    
     5    2    3 2    
     6    2    4 am   BACKBONE|DICT|INTERRES
     7    4    5 1    
     8    4  130 1    
     9    5    6 1    
    10    5   65 1    
    11    5  131 1    
    12    6    7 1    
    13    6  132 1    
    14    6  133 1    
    15    7    8 1    
    16    8    9 1    
    17    8  134 1    
    18    8  135 1    
    19    9   10 ar   
    20    9   14 ar   
    21   10   11 ar   
    22   10  136 1    
    23   11   12 ar   
    24   11  126 1    
    25   12   13 ar   
    26   12  137 1    
    27   13   14 ar   
    28   13   15 1    
    29   14  138 1    
    30   15   16 1    
    31   15  139 1    
    32   15  140 1    
    33   16   17 1    
    34   17   18 1    
    35   17  141 1    
    36   17  142 1    
    37   18   19 1    
    38   18   67 1    
    39   18  143 1    
    40   19   20 am   BACKBONE|DICT|INTERRES
    41   19  144 1    
    42   20   21 2    
    43   20   22 1    
    44   22   23 1    
    45   22   24 1    
    46   22  145 1    
    47   23  146 1    
    48   23  147 1    
    49   23  148 1    
    50   24   25 am   BACKBONE|DICT|INTERRES
    51   24  149 1    
    52   25   26 2    
    53   25   27 1    
    54   27   28 1    
    55   27   29 1    
    56   27  150 1    
    57   28  151 1    
    58   28  152 1    
    59   28  153 1    
    60   29   30 am   BACKBONE|DICT|INTERRES
    61   29  154 1    
    62   30   31 2    
    63   30   32 1    
    64   32   33 1    
    65   32   34 1    
    66   32  155 1    
    67   33  156 1    
    68   33  157 1    
    69   33  158 1    
    70   34   35 am   BACKBONE|DICT|INTERRES
    71   34  159 1    
    72   35   36 2    
    73   35   37 1    
    74   37   38 1    
    75   37   39 1    
    76   37  160 1    
    77   38  161 1    
    78   38  162 1    
    79   38  163 1    
    80   39   40 am   BACKBONE|DICT|INTERRES
    81   39  164 1    
    82   40   41 2    
    83   40   42 1    
    84   42   43 1    
    85   42   44 1    
    86   42  165 1    
    87   43  166 1    
    88   43  167 1    
    89   43  168 1    
    90   44   45 am   BACKBONE|DICT|INTERRES
    91   44  169 1    
    92   45   46 2    
    93   45   47 1    
    94   47   48 1    
    95   47   49 1    
    96   47  170 1    
    97   48  171 1    
    98   48  172 1    
    99   48  173 1    
   100   49   50 am   BACKBONE|DICT|INTERRES
   101   49  174 1    
   102   50   51 2    
   103   50   52 1    
   104   52   53 1    
   105   52   54 1    
   106   52  175 1    
   107   53  176 1    
   108   53  177 1    
   109   53  178 1    
   110   54   55 am   BACKBONE|DICT|INTERRES
   111   54  179 1    
   112   55   56 2    
   113   55   57 1    
   114   57   58 1    
   115   57   59 1    
   116   57  180 1    
   117   58  181 1    
   118   58  182 1    
   119   58  183 1    
   120   59   60 am   BACKBONE|DICT|INTERRES
   121   59  184 1    
   122   60   61 2    
   123   60   62 1    
   124   62   63 1    
   125   62   64 1    
   126   62  185 1    
   127   63  186 1    
   128   63  187 1    
   129   63  188 1    
   130   64   65 am   BACKBONE|DICT|INTERRES
   131   64  189 1    
   132   65   66 2    
   133   67   68 2    
   134   67   69 am   BACKBONE|DICT|INTERRES
   135   69   70 1    
   136   69  190 1    
   137   70   71 1    
   138   70   72 1    
   139   70  191 1    
   140   71  192 1    
   141   71  193 1    
   142   71  194 1    
   143   72   73 2    
   144   72   74 am   BACKBONE|DICT|INTERRES
   145   74   75 1    
   146   74  195 1    
   147   75   76 1    
   148   75   77 1    
   149   75  196 1    
   150   76  197 1    
   151   76  198 1    
   152   76  199 1    
   153   77   78 2    
   154   77   79 am   BACKBONE|DICT|INTERRES
   155   79   80 1    
   156   79  200 1    
   157   80   81 1    
   158   80   82 1    
   159   80  201 1    
   160   81  202 1    
   161   81  203 1    
   162   81  204 1    
   163   82   83 2    
   164   82   84 am   BACKBONE|DICT|INTERRES
   165   84   85 1    
   166   84  205 1    
   167   85   86 1    
   168   85   87 1    
   169   85  206 1    
   170   86  207 1    
   171   86  208 1    
   172   86  209 1    
   173   87   88 2    
   174   87   89 am   BACKBONE|DICT|INTERRES
   175   89   90 1    
   176   89  210 1    
   177   90   91 1    
   178   90   92 1    
   179   90  211 1    
   180   91  212 1    
   181   91  213 1    
   182   91  214 1    
   183   92   93 2    
   184   92   94 am   BACKBONE|DICT|INTERRES
   185   94   95 1    
   186   94  215 1    
   187   95   96 1    
   188   95   97 1    
   189   95  216 1    
   190   96  217 1    
   191   96  218 1    
   192   96  219 1    
   193   97   98 2    
   194   97   99 am   BACKBONE|DICT|INTERRES
   195   99  100 1    
   196   99  220 1    
   197  100  101 1    
   198  100  102 1    
   199  100  221 1    
   200  101  222 1    
   201  101  223 1    
   202  101  224 1    
   203  102  103 2    
   204  102  104 am   BACKBONE|DICT|INTERRES
   205  104  105 1    
   206  104  225 1    
   207  105  106 1    
   208  105  107 1    
   209  105  226 1    
   210  106  227 1    
   211  106  228 1    
   212  106  229 1    
   213  107  108 2    
   214  107  109 am   BACKBONE|DICT|INTERRES
   215  109  110 1    
   216  109  230 1    
   217  110  111 1    
   218  110  112 1    
   219  110  231 1    
   220  111  232 1    
   221  111  233 1    
   222  111  234 1    
   223  112  113 2    
   224  112  114 am   BACKBONE|DICT|INTERRES
   225  114  115 1    
   226  114  235 1    
   227  115  116 1    
   228  115  117 1    
   229  115  236 1    
   230  116  237 1    
   231  116  238 1    
   232  116  239 1    
   233  117  118 2    
   234  117  119 am   BACKBONE|DICT|INTERRES
   235  119  120 1    
   236  119  240 1    
   237  120  121 1    
   238  120  124 1    
   239  120  241 1    
   240  121  122 am   BACKBONE|DICT|INTERRES
   241  121  123 2    
   242  122  242 1    
   243  122  243 1    
   244  124  125 1    
   245  124  244 1    
   246  124  245 1    
   247  125  126 1    
   248  126  246 1    
   249  126  247 1    
@<TRIPOS>SUBSTRUCTURE
     1 UNK         1 GROUP             0       ****    0 ROOT    
