@<TRIPOS>MOLECULE
3R540
247   249    1
SMALL
USER_CHARGES


@<TRIPOS>ATOM
      1 CA         -0.1311  -11.2980  -47.7266 C.3       0 UNK        -0.1800 
      2 C           0.0792  -12.7796  -47.4502 C.2       0 UNK         0.5000 
      3 O           1.2181  -13.2461  -47.4430 O.2       0 UNK        -0.5000 
      4 N          -1.0117  -13.5181  -47.2256 N.am      1 UNK        -0.5000 
      5 CA         -1.0044  -14.9591  -46.9592 C.3       1 UNK         0.1400 
      6 C6         -0.8218  -15.8398  -48.2229 C.3       23 UNK        -0.0398 
      7 S7         -1.9116  -15.4135  -49.6292 S.3       23 UNK        -0.2404 
      8 C8         -0.7216  -14.7130  -50.8207 C.3       23 UNK        -0.0205 
      9 C9          0.1480  -15.7907  -51.4533 C.ar      23 UNK        -0.0193 
     10 C10        -0.3053  -16.4925  -52.5742 C.ar      23 UNK        -0.1150 
     11 C11         0.4772  -17.5010  -53.1451 C.ar      23 UNK        -0.0193 
     12 C12         1.7150  -17.8156  -52.5757 C.ar      23 UNK        -0.1150 
     13 C13         2.1808  -17.1181  -51.4575 C.ar      23 UNK        -0.0193 
     14 C14         1.4029  -16.0925  -50.9164 C.ar      23 UNK        -0.1150 
     15 C15         3.5268  -17.4627  -50.8373 C.3       23 UNK        -0.0205 
     16 S16         3.5432  -19.1146  -50.0688 S.3       23 UNK        -0.2404 
     17 C17         2.4303  -18.9180  -48.6321 C.3       23 UNK        -0.0398 
     18 CA          1.5970  -20.2030  -48.3749 C.3       11 UNK         0.1400 
     19 N           1.4469  -20.4910  -46.9456 N.am      11 UNK        -0.5000 
     20 C           1.1878  -21.7082  -46.4436 C.2       10 UNK         0.5000 
     21 O           1.1266  -22.7263  -47.1322 O.2       10 UNK        -0.5000 
     22 CA          0.9297  -21.8211  -44.9269 C.3       10 UNK         0.1400 
     23 CB          2.1772  -22.3588  -44.2102 C.3       10 UNK        -0.1800 
     24 N           0.5121  -20.5673  -44.2954 N.am      10 UNK        -0.5000 
     25 C          -0.6207  -19.9074  -44.5711 C.2       9 UNK         0.5000 
     26 O          -1.4623  -20.3144  -45.3715 O.2       9 UNK        -0.5000 
     27 CA         -0.8038  -18.5300  -43.9065 C.3       9 UNK         0.1400 
     28 CB         -1.3834  -18.6704  -42.4921 C.3       9 UNK        -0.1800 
     29 N           0.4341  -17.7478  -43.8531 N.am      9 UNK        -0.5000 
     30 C           1.1552  -17.3769  -44.9218 C.2       8 UNK         0.5000 
     31 O           0.8458  -17.6416  -46.0828 O.2       8 UNK        -0.5000 
     32 CA          2.4751  -16.6417  -44.6420 C.3       8 UNK         0.1400 
     33 CB          2.2321  -15.1838  -44.2173 C.3       8 UNK        -0.1800 
     34 N           3.2494  -17.3405  -43.6182 N.am      8 UNK        -0.5000 
     35 C           3.8754  -18.5099  -43.8167 C.2       7 UNK         0.5000 
     36 O           3.9311  -19.0796  -44.9065 O.2       7 UNK        -0.5000 
     37 CA          4.5245  -19.1665  -42.5833 C.3       7 UNK         0.1400 
     38 CB          5.9733  -18.6845  -42.4173 C.3       7 UNK        -0.1800 
     39 N           3.7868  -18.9069  -41.3452 N.am      7 UNK        -0.5000 
     40 C           2.5623  -19.3815  -41.0734 C.2       6 UNK         0.5000 
     41 O           1.9319  -20.1186  -41.8288 O.2       6 UNK        -0.5000 
     42 CA          1.9111  -18.8973  -39.7644 C.3       6 UNK         0.1400 
     43 CB          2.3584  -19.7675  -38.5807 C.3       6 UNK        -0.1800 
     44 N           2.2095  -17.4909  -39.4805 N.am      6 UNK        -0.5000 
     45 C           1.8081  -16.4702  -40.2477 C.2       5 UNK         0.5000 
     46 O           1.1015  -16.6027  -41.2516 O.2       5 UNK        -0.5000 
     47 CA          2.3446  -15.0845  -39.8754 C.3       5 UNK         0.1400 
     48 CB          3.7763  -14.9099  -40.4221 C.3       5 UNK        -0.1800 
     49 N           1.4528  -14.0794  -40.4412 N.am      5 UNK        -0.5000 
     50 C           1.4646  -12.7716  -40.1642 C.2       4 UNK         0.5000 
     51 O           2.2552  -12.2400  -39.3832 O.2       4 UNK        -0.5000 
     52 CA          0.4046  -11.9090  -40.8727 C.3       4 UNK         0.1400 
     53 CB          0.8912  -11.5071  -42.2745 C.3       4 UNK        -0.1800 
     54 N          -0.9074  -12.5482  -40.9928 N.am      4 UNK        -0.5000 
     55 C          -1.6981  -12.9320  -39.9835 C.2       3 UNK         0.5000 
     56 O          -1.3680  -12.8606  -38.7992 O.2       3 UNK        -0.5000 
     57 CA         -3.1044  -13.4715  -40.3321 C.3       3 UNK         0.1400 
     58 CB         -4.1494  -12.3433  -40.2373 C.3       3 UNK        -0.1800 
     59 N          -3.2443  -14.1963  -41.6074 N.am      3 UNK        -0.5000 
     60 C          -3.0768  -13.7491  -42.8591 C.2       2 UNK         0.5000 
     61 O          -2.6651  -12.6222  -43.1466 O.2       2 UNK        -0.5000 
     62 CA         -3.4218  -14.7258  -43.9884 C.3       2 UNK         0.1400 
     63 CB         -4.8679  -14.5209  -44.4732 C.3       2 UNK        -0.1800 
     64 N          -2.4797  -14.4910  -45.0743 N.am      2 UNK        -0.5000 
     65 C          -2.1759  -15.3586  -46.0445 C.2       1 UNK         0.5000 
     66 O          -2.7604  -16.4297  -46.2008 O.2       1 UNK        -0.5000 
     67 C           0.2335  -20.1840  -49.1035 C.2       11 UNK         0.5000 
     68 O           0.1944  -20.4597  -50.3019 O.2       11 UNK        -0.5000 
     69 N          -0.8596  -19.9094  -48.3721 N.am      12 UNK        -0.5000 
     70 CA         -2.2277  -20.0940  -48.8581 C.3       12 UNK         0.1400 
     71 CB         -3.1742  -19.0706  -48.2165 C.3       12 UNK        -0.1800 
     72 C          -2.7266  -21.5239  -48.6022 C.2       12 UNK         0.5000 
     73 O          -3.3487  -22.1108  -49.4887 O.2       12 UNK        -0.5000 
     74 N          -2.4078  -22.0592  -47.4154 N.am      13 UNK        -0.5000 
     75 CA         -2.7270  -23.3989  -46.9156 C.3       13 UNK         0.1400 
     76 CB         -2.1095  -24.4853  -47.8232 C.3       13 UNK        -0.1800 
     77 C          -4.2350  -23.6252  -46.6751 C.2       13 UNK         0.5000 
     78 O          -5.0489  -22.7092  -46.8284 O.2       13 UNK        -0.5000 
     79 N          -4.5770  -24.8533  -46.2613 N.am      14 UNK        -0.5000 
     80 CA         -5.9422  -25.3086  -45.9978 C.3       14 UNK         0.1400 
     81 CB         -5.9015  -26.7538  -45.4792 C.3       14 UNK        -0.1800 
     82 C          -6.8272  -25.2077  -47.2520 C.2       14 UNK         0.5000 
     83 O          -6.3960  -25.6096  -48.3351 O.2       14 UNK        -0.5000 
     84 N          -8.0270  -24.6341  -47.0832 N.am      15 UNK        -0.5000 
     85 CA         -9.0323  -24.3641  -48.1217 C.3       15 UNK         0.1400 
     86 CB         -9.6239  -25.6881  -48.6499 C.3       15 UNK        -0.1800 
     87 C          -8.5344  -23.4489  -49.2659 C.2       15 UNK         0.5000 
     88 O          -9.1286  -23.4524  -50.3451 O.2       15 UNK        -0.5000 
     89 N          -7.4504  -22.6954  -49.0150 N.am      16 UNK        -0.5000 
     90 CA         -6.7100  -21.8572  -49.9632 C.3       16 UNK         0.1400 
     91 CB         -7.5749  -20.6695  -50.4371 C.3       16 UNK        -0.1800 
     92 C          -6.0949  -22.6582  -51.1345 C.2       16 UNK         0.5000 
     93 O          -5.9168  -22.1078  -52.2216 O.2       16 UNK        -0.5000 
     94 N          -5.7817  -23.9435  -50.9072 N.am      17 UNK        -0.5000 
     95 CA         -5.3001  -24.8748  -51.9291 C.3       17 UNK         0.1400 
     96 CB         -5.2270  -26.2891  -51.3359 C.3       17 UNK        -0.1800 
     97 C          -3.9497  -24.4819  -52.5543 C.2       17 UNK         0.5000 
     98 O          -3.7899  -24.5994  -53.7702 O.2       17 UNK        -0.5000 
     99 N          -3.0101  -24.0008  -51.7290 N.am      18 UNK        -0.5000 
    100 CA        -1.7023  -23.5370  -52.1925 C.3       18 UNK         0.1400 
    101 CB        -0.6708  -23.6124  -51.0586 C.3       18 UNK        -0.1800 
    102 C         -1.7812  -22.1292  -52.8067 C.2       18 UNK         0.5000 
    103 O         -1.0351  -21.8524  -53.7446 O.2       18 UNK        -0.5000 
    104 N         -2.7190  -21.2970  -52.3259 N.am      19 UNK        -0.5000 
    105 CA        -3.0514  -19.9938  -52.9093 C.3       19 UNK         0.1400 
    106 CB        -3.9958  -19.1997  -51.9882 C.3       19 UNK        -0.1800 
    107 C         -3.6381  -20.1179  -54.3269 C.2       19 UNK         0.5000 
    108 O         -3.2675  -19.3441  -55.2094 O.2       19 UNK        -0.5000 
    109 N         -4.5281  -21.1002  -54.5199 N.am      20 UNK        -0.5000 
    110 CA        -5.1360  -21.4314  -55.8074 C.3       20 UNK         0.1400 
    111 CB        -6.2782  -22.4346  -55.5851 C.3       20 UNK        -0.1800 
    112 C         -4.1192  -21.9788  -56.8267 C.2       20 UNK         0.5000 
    113 O         -4.2167  -21.6528  -58.0104 O.2       20 UNK        -0.5000 
    114 N         -3.1676  -22.7945  -56.3524 N.am      21 UNK        -0.5000 
    115 CA        -2.0933  -23.3682  -57.1599 C.3       21 UNK         0.1400 
    116 CB        -1.4934  -24.5793  -56.4255 C.3       21 UNK        -0.1800 
    117 C         -1.0141  -22.3258  -57.5071 C.2       21 UNK         0.5000 
    118 O         -0.8037  -22.0322  -58.6844 O.2       21 UNK        -0.5000 
    119 N         -0.3537  -21.7938  -56.4707 N.am      22 UNK        -0.5000 
    120 CA         0.7368  -20.8063  -56.5258 C.3       22 UNK         0.1400 
    121 C          2.0106  -21.2401  -57.3179 C.2       22 UNK         0.5000 
    122 N          2.2651  -22.5319  -57.4887 N.am      22 UNK        -0.7600 
    123 O          2.7957  -20.4072  -57.7631 O.2       22 UNK        -0.5000 
    124 C124        0.2195  -19.3803  -56.8780 C.3       23 UNK        -0.0398 
    125 S125        0.9811  -18.0927  -55.8288 S.3       23 UNK        -0.2404 
    126 C126       -0.0403  -18.2914  -54.3363 C.3       23 UNK        -0.0205 
    127 H127        0.2632  -11.0409  -48.7097 H         1 UNK         0.0600 
    128 H128        0.3917  -10.6995  -46.9806 H         1 UNK         0.0600 
    129 H129       -1.1868  -11.0263  -47.7020 H         1 UNK         0.0600 
    130 H130       -1.9274  -13.0912  -47.2652 H         1 UNK         0.3000 
    131 H131       -0.1354  -15.1538  -46.3312 H         1 UNK         0.0600 
    132 H132       -0.9483  -16.8971  -47.9883 H         1 UNK         0.0800 
    133 H133        0.2163  -15.7566  -48.5310 H         1 UNK         0.0800 
    134 H134       -0.1039  -13.9617  -50.3265 H         1 UNK         0.0800 
    135 H135       -1.2741  -14.1859  -51.5998 H         1 UNK         0.0800 
    136 H136       -1.2756  -16.2612  -52.9911 H         1 UNK         0.1150 
    137 H137        2.3128  -18.6110  -52.9984 H         1 UNK         0.1150 
    138 H138        1.7725  -15.5377  -50.0660 H         1 UNK         0.1150 
    139 H139        4.2907  -17.4310  -51.6153 H         1 UNK         0.0800 
    140 H140        3.8186  -16.7196  -50.0933 H         1 UNK         0.0800 
    141 H141        1.7919  -18.0409  -48.7502 H         1 UNK         0.0800 
    142 H142        3.0685  -18.7011  -47.7738 H         1 UNK         0.0800 
    143 H143        2.1497  -21.0468  -48.7947 H         1 UNK         0.0600 
    144 H144        1.4669  -19.6925  -46.3231 H         1 UNK         0.3000 
    145 H145        0.1226  -22.5438  -44.7909 H         1 UNK         0.0600 
    146 H146        1.9778  -22.5414  -43.1542 H         1 UNK         0.0600 
    147 H147        2.5034  -23.3042  -44.6456 H         1 UNK         0.0600 
    148 H148        3.0110  -21.6601  -44.2792 H         1 UNK         0.0600 
    149 H149        1.1233  -20.2030  -43.5695 H         1 UNK         0.3000 
    150 H150       -1.5204  -17.9722  -44.5091 H         1 UNK         0.0600 
    151 H151       -2.3317  -19.2087  -42.5110 H         1 UNK         0.0600 
    152 H152       -1.5707  -17.6943  -42.0442 H         1 UNK         0.0600 
    153 H153       -0.7082  -19.2165  -41.8333 H         1 UNK         0.0600 
    154 H154        0.7511  -17.4679  -42.9288 H         1 UNK         0.3000 
    155 H155        3.0573  -16.6291  -45.5662 H         1 UNK         0.0600 
    156 H156        1.5957  -15.1092  -43.3365 H         1 UNK         0.0600 
    157 H157        1.7483  -14.6218  -45.0158 H         1 UNK         0.0600 
    158 H158        3.1710  -14.6766  -43.9955 H         1 UNK         0.0600 
    159 H159        3.2175  -16.9624  -42.6843 H         1 UNK         0.3000 
    160 H160        4.5391  -20.2456  -42.7504 H         1 UNK         0.0600 
    161 H161        6.0224  -17.6121  -42.2237 H         1 UNK         0.0600 
    162 H162        6.5560  -18.8827  -43.3179 H         1 UNK         0.0600 
    163 H163        6.4678  -19.1981  -41.5926 H         1 UNK         0.0600 
    164 H164        4.2347  -18.3120  -40.6644 H         1 UNK         0.3000 
    165 H165        0.8294  -18.9988  -39.8730 H         1 UNK         0.0600 
    166 H166        1.8448  -19.4791  -37.6634 H         1 UNK         0.0600 
    167 H167        2.1307  -20.8189  -38.7622 H         1 UNK         0.0600 
    168 H168        3.4318  -19.6898  -38.4038 H         1 UNK         0.0600 
    169 H169        2.7887  -17.3053  -38.6740 H         1 UNK         0.3000 
    170 H170        2.3448  -14.9879  -38.7879 H         1 UNK         0.0600 
    171 H171        4.4404  -15.6912  -40.0506 H         1 UNK         0.0600 
    172 H172        3.7985  -14.9495  -41.5114 H         1 UNK         0.0600 
    173 H173        4.2087  -13.9573  -40.1170 H         1 UNK         0.0600 
    174 H174        0.7512  -14.4526  -41.0681 H         1 UNK         0.3000 
    175 H175        0.2734  -10.9995  -40.2830 H         1 UNK         0.0600 
    176 H176        1.0038  -12.3747  -42.9260 H         1 UNK         0.0600 
    177 H177        0.1932  -10.8189  -42.7519 H         1 UNK         0.0600 
    178 H178        1.8586  -11.0057  -42.2245 H         1 UNK         0.0600 
    179 H179       -1.3163  -12.5812  -41.9230 H         1 UNK         0.3000 
    180 H180       -3.3452  -14.2016  -39.5577 H         1 UNK         0.0600 
    181 H181       -5.1590  -12.7274  -40.3831 H         1 UNK         0.0600 
    182 H182       -3.9757  -11.5650  -40.9811 H         1 UNK         0.0600 
    183 H183       -4.1225  -11.8671  -39.2563 H         1 UNK         0.0600 
    184 H184       -3.5503  -15.1535  -41.4995 H         1 UNK         0.3000 
    185 H185       -3.2984  -15.7480  -43.6234 H         1 UNK         0.0600 
    186 H186       -5.1285  -15.2302  -45.2588 H         1 UNK         0.0600 
    187 H187       -5.5775  -14.6660  -43.6578 H         1 UNK         0.0600 
    188 H188       -5.0195  -13.5150  -44.8669 H         1 UNK         0.0600 
    189 H189       -1.9592  -13.6265  -44.9883 H         1 UNK         0.3000 
    190 H190       -0.7529  -19.7199  -47.3840 H         1 UNK         0.3000 
    191 H191       -2.2407  -19.9340  -49.9341 H         1 UNK         0.0600 
    192 H192       -4.2065  -19.2495  -48.5201 H         1 UNK         0.0600 
    193 H193       -2.9240  -18.0570  -48.5242 H         1 UNK         0.0600 
    194 H194       -3.1414  -19.1097  -47.1275 H         1 UNK         0.0600 
    195 H195       -1.9782  -21.4433  -46.7295 H         1 UNK         0.3000 
    196 H196       -2.2451  -23.4659  -45.9393 H         1 UNK         0.0600 
    197 H197       -2.6424  -24.5766  -48.7697 H         1 UNK         0.0600 
    198 H198       -1.0654  -24.2648  -48.0449 H         1 UNK         0.0600 
    199 H199       -2.1299  -25.4643  -47.3443 H         1 UNK         0.0600 
    200 H200       -3.8552  -25.5532  -46.1772 H         1 UNK         0.3000 
    201 H201       -6.3584  -24.6717  -45.2146 H         1 UNK         0.0600 
    202 H202       -5.4662  -27.4325  -46.2140 H         1 UNK         0.0600 
    203 H203       -6.9055  -27.1156  -45.2533 H         1 UNK         0.0600 
    204 H204       -5.3160  -26.8293  -44.5627 H         1 UNK         0.0600 
    205 H205       -8.2758  -24.3167  -46.1562 H         1 UNK         0.3000 
    206 H206       -9.8373  -23.8161  -47.6302 H         1 UNK         0.0600 
    207 H207       -9.9750  -26.3175  -47.8322 H         1 UNK         0.0600 
    208 H208      -10.4772  -25.5047  -49.3038 H         1 UNK         0.0600 
    209 H209       -8.8914  -26.2585  -49.2219 H         1 UNK         0.0600 
    210 H210       -7.0195  -22.7814  -48.1026 H         1 UNK         0.3000 
    211 H211       -5.8720  -21.4427  -49.4032 H         1 UNK         0.0600 
    212 H212       -6.9874  -19.9579  -51.0168 H         1 UNK         0.0600 
    213 H213       -7.9946  -20.1256  -49.5910 H         1 UNK         0.0600 
    214 H214       -8.4004  -20.9953  -51.0702 H         1 UNK         0.0600 
    215 H215       -5.9598  -24.3353  -49.9889 H         1 UNK         0.3000 
    216 H216       -6.0386  -24.8851  -52.7334 H         1 UNK         0.0600 
    217 H217       -4.5435  -26.3336  -50.4869 H         1 UNK         0.0600 
    218 H218       -4.8797  -27.0090  -52.0780 H         1 UNK         0.0600 
    219 H219       -6.2068  -26.6228  -50.9934 H         1 UNK         0.0600 
    220 H220       -3.2440  -23.8221  -50.7595 H         1 UNK         0.3000 
    221 H221       -1.3562  -24.2122  -52.9779 H         1 UNK         0.0600 
    222 H222       -0.5800  -24.6281  -50.6741 H         1 UNK         0.0600 
    223 H223       -0.9273  -22.9611  -50.2267 H         1 UNK         0.0600 
    224 H224        0.3151  -23.3077  -51.4118 H         1 UNK         0.0600 
    225 H225       -3.2795  -21.6143  -51.5444 H         1 UNK         0.3000 
    226 H226       -2.1276  -19.4237  -52.9873 H         1 UNK         0.0600 
    227 H227       -4.6882  -19.8479  -51.4548 H         1 UNK         0.0600 
    228 H228       -3.4363  -18.6258  -51.2512 H         1 UNK         0.0600 
    229 H229       -4.5900  -18.4751  -52.5472 H         1 UNK         0.0600 
    230 H230       -4.8466  -21.6331  -53.7142 H         1 UNK         0.3000 
    231 H231       -5.5631  -20.5161  -56.2223 H         1 UNK         0.0600 
    232 H232       -5.9178  -23.3626  -55.1398 H         1 UNK         0.0600 
    233 H233       -6.7655  -22.6883  -56.5273 H         1 UNK         0.0600 
    234 H234       -7.0409  -22.0224  -54.9241 H         1 UNK         0.0600 
    235 H235       -3.1866  -23.0411  -55.3713 H         1 UNK         0.3000 
    236 H236       -2.5212  -23.7296  -58.0976 H         1 UNK         0.0600 
    237 H237       -2.2465  -25.3511  -56.2647 H         1 UNK         0.0600 
    238 H238       -0.6868  -25.0285  -57.0060 H         1 UNK         0.0600 
    239 H239       -1.0873  -24.3072  -55.4511 H         1 UNK         0.0600 
    240 H240       -0.6358  -22.0489  -55.5266 H         1 UNK         0.3000 
    241 H241        1.0897  -20.7860  -55.4948 H         1 UNK         0.0600 
    242 H242        1.6401  -23.2313  -57.1221 H         1 UNK         0.3800 
    243 H243        3.0913  -22.8120  -57.9939 H         1 UNK         0.3800 
    244 H244       -0.8617  -19.3172  -56.7440 H         1 UNK         0.0800 
    245 H245        0.3923  -19.1425  -57.9288 H         1 UNK         0.0800 
    246 H246       -1.0610  -17.9942  -54.5782 H         1 UNK         0.0800 
    247 H247       -0.0749  -19.3446  -54.0578 H         1 UNK         0.0800 
@<TRIPOS>BOND
     1    1    2 1    
     2    1  127 1    
     3    1  128 1    
     4    1  129 1    
     5    2    3 2    
     6    2    4 am   BACKBONE|DICT|INTERRES
     7    4    5 1    
     8    4  130 1    
     9    5    6 1    
    10    5   65 1    
    11    5  131 1    
    12    6    7 1    
    13    6  132 1    
    14    6  133 1    
    15    7    8 1    
    16    8    9 1    
    17    8  134 1    
    18    8  135 1    
    19    9   10 ar   
    20    9   14 ar   
    21   10   11 ar   
    22   10  136 1    
    23   11   12 ar   
    24   11  126 1    
    25   12   13 ar   
    26   12  137 1    
    27   13   14 ar   
    28   13   15 1    
    29   14  138 1    
    30   15   16 1    
    31   15  139 1    
    32   15  140 1    
    33   16   17 1    
    34   17   18 1    
    35   17  141 1    
    36   17  142 1    
    37   18   19 1    
    38   18   67 1    
    39   18  143 1    
    40   19   20 am   BACKBONE|DICT|INTERRES
    41   19  144 1    
    42   20   21 2    
    43   20   22 1    
    44   22   23 1    
    45   22   24 1    
    46   22  145 1    
    47   23  146 1    
    48   23  147 1    
    49   23  148 1    
    50   24   25 am   BACKBONE|DICT|INTERRES
    51   24  149 1    
    52   25   26 2    
    53   25   27 1    
    54   27   28 1    
    55   27   29 1    
    56   27  150 1    
    57   28  151 1    
    58   28  152 1    
    59   28  153 1    
    60   29   30 am   BACKBONE|DICT|INTERRES
    61   29  154 1    
    62   30   31 2    
    63   30   32 1    
    64   32   33 1    
    65   32   34 1    
    66   32  155 1    
    67   33  156 1    
    68   33  157 1    
    69   33  158 1    
    70   34   35 am   BACKBONE|DICT|INTERRES
    71   34  159 1    
    72   35   36 2    
    73   35   37 1    
    74   37   38 1    
    75   37   39 1    
    76   37  160 1    
    77   38  161 1    
    78   38  162 1    
    79   38  163 1    
    80   39   40 am   BACKBONE|DICT|INTERRES
    81   39  164 1    
    82   40   41 2    
    83   40   42 1    
    84   42   43 1    
    85   42   44 1    
    86   42  165 1    
    87   43  166 1    
    88   43  167 1    
    89   43  168 1    
    90   44   45 am   BACKBONE|DICT|INTERRES
    91   44  169 1    
    92   45   46 2    
    93   45   47 1    
    94   47   48 1    
    95   47   49 1    
    96   47  170 1    
    97   48  171 1    
    98   48  172 1    
    99   48  173 1    
   100   49   50 am   BACKBONE|DICT|INTERRES
   101   49  174 1    
   102   50   51 2    
   103   50   52 1    
   104   52   53 1    
   105   52   54 1    
   106   52  175 1    
   107   53  176 1    
   108   53  177 1    
   109   53  178 1    
   110   54   55 am   BACKBONE|DICT|INTERRES
   111   54  179 1    
   112   55   56 2    
   113   55   57 1    
   114   57   58 1    
   115   57   59 1    
   116   57  180 1    
   117   58  181 1    
   118   58  182 1    
   119   58  183 1    
   120   59   60 am   BACKBONE|DICT|INTERRES
   121   59  184 1    
   122   60   61 2    
   123   60   62 1    
   124   62   63 1    
   125   62   64 1    
   126   62  185 1    
   127   63  186 1    
   128   63  187 1    
   129   63  188 1    
   130   64   65 am   BACKBONE|DICT|INTERRES
   131   64  189 1    
   132   65   66 2    
   133   67   68 2    
   134   67   69 am   BACKBONE|DICT|INTERRES
   135   69   70 1    
   136   69  190 1    
   137   70   71 1    
   138   70   72 1    
   139   70  191 1    
   140   71  192 1    
   141   71  193 1    
   142   71  194 1    
   143   72   73 2    
   144   72   74 am   BACKBONE|DICT|INTERRES
   145   74   75 1    
   146   74  195 1    
   147   75   76 1    
   148   75   77 1    
   149   75  196 1    
   150   76  197 1    
   151   76  198 1    
   152   76  199 1    
   153   77   78 2    
   154   77   79 am   BACKBONE|DICT|INTERRES
   155   79   80 1    
   156   79  200 1    
   157   80   81 1    
   158   80   82 1    
   159   80  201 1    
   160   81  202 1    
   161   81  203 1    
   162   81  204 1    
   163   82   83 2    
   164   82   84 am   BACKBONE|DICT|INTERRES
   165   84   85 1    
   166   84  205 1    
   167   85   86 1    
   168   85   87 1    
   169   85  206 1    
   170   86  207 1    
   171   86  208 1    
   172   86  209 1    
   173   87   88 2    
   174   87   89 am   BACKBONE|DICT|INTERRES
   175   89   90 1    
   176   89  210 1    
   177   90   91 1    
   178   90   92 1    
   179   90  211 1    
   180   91  212 1    
   181   91  213 1    
   182   91  214 1    
   183   92   93 2    
   184   92   94 am   BACKBONE|DICT|INTERRES
   185   94   95 1    
   186   94  215 1    
   187   95   96 1    
   188   95   97 1    
   189   95  216 1    
   190   96  217 1    
   191   96  218 1    
   192   96  219 1    
   193   97   98 2    
   194   97   99 am   BACKBONE|DICT|INTERRES
   195   99  100 1    
   196   99  220 1    
   197  100  101 1    
   198  100  102 1    
   199  100  221 1    
   200  101  222 1    
   201  101  223 1    
   202  101  224 1    
   203  102  103 2    
   204  102  104 am   BACKBONE|DICT|INTERRES
   205  104  105 1    
   206  104  225 1    
   207  105  106 1    
   208  105  107 1    
   209  105  226 1    
   210  106  227 1    
   211  106  228 1    
   212  106  229 1    
   213  107  108 2    
   214  107  109 am   BACKBONE|DICT|INTERRES
   215  109  110 1    
   216  109  230 1    
   217  110  111 1    
   218  110  112 1    
   219  110  231 1    
   220  111  232 1    
   221  111  233 1    
   222  111  234 1    
   223  112  113 2    
   224  112  114 am   BACKBONE|DICT|INTERRES
   225  114  115 1    
   226  114  235 1    
   227  115  116 1    
   228  115  117 1    
   229  115  236 1    
   230  116  237 1    
   231  116  238 1    
   232  116  239 1    
   233  117  118 2    
   234  117  119 am   BACKBONE|DICT|INTERRES
   235  119  120 1    
   236  119  240 1    
   237  120  121 1    
   238  120  124 1    
   239  120  241 1    
   240  121  122 am   BACKBONE|DICT|INTERRES
   241  121  123 2    
   242  122  242 1    
   243  122  243 1    
   244  124  125 1    
   245  124  244 1    
   246  124  245 1    
   247  125  126 1    
   248  126  246 1    
   249  126  247 1    
@<TRIPOS>SUBSTRUCTURE
     1 UNK         1 GROUP             0       ****    0 ROOT    
