@<TRIPOS>MOLECULE
3R540
247   249    1
SMALL
USER_CHARGES


@<TRIPOS>ATOM
      1 CA          6.8084  -13.6210  -50.1590 C.3       0 UNK        -0.1800 
      2 C           5.8046  -13.6858  -49.0166 C.2       0 UNK         0.5000 
      3 O           6.1508  -14.1340  -47.9240 O.2       0 UNK        -0.5000 
      4 N           4.5640  -13.2473  -49.2693 N.am      1 UNK        -0.5000 
      5 CA          3.4739  -13.1919  -48.2900 C.3       1 UNK         0.1400 
      6 C6          2.1063  -12.9710  -48.9957 C.3       23 UNK        -0.0398 
      7 S7          0.6694  -12.6498  -47.9083 S.3       23 UNK        -0.2404 
      8 C8          0.3726  -14.2810  -47.1625 C.3       23 UNK        -0.0205 
      9 C9         -0.1909  -15.2774  -48.1636 C.ar      23 UNK        -0.0193 
     10 C10        -1.5635  -15.3094  -48.4314 C.ar      23 UNK        -0.1150 
     11 C11        -2.0880  -16.2312  -49.3430 C.ar      23 UNK        -0.0193 
     12 C12        -1.2243  -17.1163  -49.9923 C.ar      23 UNK        -0.1150 
     13 C13         0.1483  -17.0960  -49.7339 C.ar      23 UNK        -0.0193 
     14 C14         0.6583  -16.1796  -48.8106 C.ar      23 UNK        -0.1150 
     15 C15         1.0773  -18.0731  -50.4428 C.3       23 UNK        -0.0205 
     16 S16         0.6206  -19.8120  -50.1467 S.3       23 UNK        -0.2404 
     17 C17         0.5696  -19.8454  -48.3274 C.3       23 UNK        -0.0398 
     18 CA          0.6124  -21.2719  -47.7364 C.3       11 UNK         0.1400 
     19 N           1.1298  -21.2418  -46.3660 N.am      11 UNK        -0.5000 
     20 C           1.5455  -22.3065  -45.6688 C.2       10 UNK         0.5000 
     21 O           1.5277  -23.4584  -46.1033 O.2       10 UNK        -0.5000 
     22 CA          2.0374  -22.0332  -44.2352 C.3       10 UNK         0.1400 
     23 CB          3.4691  -21.4759  -44.2429 C.3       10 UNK        -0.1800 
     24 N           1.1572  -21.1100  -43.5176 N.am      10 UNK        -0.5000 
     25 C          -0.0880  -21.4146  -43.1263 C.2       9 UNK         0.5000 
     26 O          -0.5912  -22.5299  -43.2621 O.2       9 UNK        -0.5000 
     27 CA         -0.9247  -20.2829  -42.5021 C.3       9 UNK         0.1400 
     28 CB         -0.6335  -20.1624  -40.9989 C.3       9 UNK        -0.1800 
     29 N          -0.7223  -18.9837  -43.1464 N.am      9 UNK        -0.5000 
     30 C          -1.0203  -18.7063  -44.4241 C.2       8 UNK         0.5000 
     31 O          -1.4985  -19.5238  -45.2072 O.2       8 UNK        -0.5000 
     32 CA         -0.6801  -17.2920  -44.9283 C.3       8 UNK         0.1400 
     33 CB         -1.7145  -16.2747  -44.4216 C.3       8 UNK        -0.1800 
     34 N           0.6691  -16.8709  -44.5460 N.am      8 UNK        -0.5000 
     35 C           1.7908  -17.5182  -44.8985 C.2       7 UNK         0.5000 
     36 O           1.8119  -18.5144  -45.6193 O.2       7 UNK        -0.5000 
     37 CA          3.1056  -17.0107  -44.2887 C.3       7 UNK         0.1400 
     38 CB          3.6237  -15.7763  -45.0399 C.3       7 UNK        -0.1800 
     39 N           2.9548  -16.7118  -42.8655 N.am      7 UNK        -0.5000 
     40 C           2.7481  -17.6425  -41.9216 C.2       6 UNK         0.5000 
     41 O           2.7159  -18.8526  -42.1470 O.2       6 UNK        -0.5000 
     42 CA          2.4887  -17.1281  -40.4943 C.3       6 UNK         0.1400 
     43 CB          3.8127  -16.8268  -39.7763 C.3       6 UNK        -0.1800 
     44 N           1.6430  -15.9333  -40.4769 N.am      6 UNK        -0.5000 
     45 C           0.3563  -15.9109  -40.8536 C.2       5 UNK         0.5000 
     46 O          -0.2656  -16.9080  -41.2155 O.2       5 UNK        -0.5000 
     47 CA         -0.3395  -14.5381  -40.8707 C.3       5 UNK         0.1400 
     48 CB         -0.9720  -14.2363  -39.5043 C.3       5 UNK        -0.1800 
     49 N           0.5644  -13.4469  -41.2409 N.am      5 UNK        -0.5000 
     50 C           1.1311  -13.3083  -42.4462 C.2       4 UNK         0.5000 
     51 O           0.9543  -14.0931  -43.3822 O.2       4 UNK        -0.5000 
     52 CA          2.1016  -12.1283  -42.6049 C.3       4 UNK         0.1400 
     53 CB          3.5578  -12.6178  -42.5977 C.3       4 UNK        -0.1800 
     54 N           1.8422  -11.3976  -43.8413 N.am      4 UNK        -0.5000 
     55 C           0.8861  -10.4670  -43.9796 C.2       3 UNK         0.5000 
     56 O           0.1145  -10.1590  -43.0689 O.2       3 UNK        -0.5000 
     57 CA          0.7676   -9.7556  -45.3489 C.3       3 UNK         0.1400 
     58 CB          0.2611   -8.3033  -45.2250 C.3       3 UNK        -0.1800 
     59 N           1.9926   -9.8133  -46.1547 N.am      3 UNK        -0.5000 
     60 C           3.2065   -9.3248  -45.8520 C.2       2 UNK         0.5000 
     61 O           3.4307   -8.6089  -44.8748 O.2       2 UNK        -0.5000 
     62 CA          4.3720   -9.7304  -46.7887 C.3       2 UNK         0.1400 
     63 CB          5.6947   -9.9199  -46.0172 C.3       2 UNK        -0.1800 
     64 N           4.1013  -10.9146  -47.6211 N.am      2 UNK        -0.5000 
     65 C           3.7615  -12.1429  -47.1950 C.2       1 UNK         0.5000 
     66 O           3.6360  -12.4488  -46.0091 O.2       1 UNK        -0.5000 
     67 C          -0.7559  -21.9856  -47.8498 C.2       11 UNK         0.5000 
     68 O          -1.0571  -22.5553  -48.8979 O.2       11 UNK        -0.5000 
     69 N          -1.5427  -21.9814  -46.7633 N.am      12 UNK        -0.5000 
     70 CA         -2.8576  -22.6179  -46.6441 C.3       12 UNK         0.1400 
     71 CB         -3.5491  -22.1177  -45.3656 C.3       12 UNK        -0.1800 
     72 C          -2.8523  -24.1619  -46.6913 C.2       12 UNK         0.5000 
     73 O          -3.9326  -24.7561  -46.6932 O.2       12 UNK        -0.5000 
     74 N          -1.6710  -24.7937  -46.7450 N.am      13 UNK        -0.5000 
     75 CA         -1.4818  -26.2358  -46.9172 C.3       13 UNK         0.1400 
     76 CB          0.0227  -26.5322  -46.9951 C.3       13 UNK        -0.1800 
     77 C          -2.2052  -26.7964  -48.1605 C.2       13 UNK         0.5000 
     78 O          -2.2478  -26.1344  -49.2014 O.2       13 UNK        -0.5000 
     79 N          -2.7749  -28.0017  -48.0144 N.am      14 UNK        -0.5000 
     80 CA         -3.5858  -28.7152  -49.0111 C.3       14 UNK         0.1400 
     81 CB         -2.7093  -29.1783  -50.1943 C.3       14 UNK        -0.1800 
     82 C          -4.8266  -27.9101  -49.4581 C.2       14 UNK         0.5000 
     83 O          -5.1497  -27.8814  -50.6468 O.2       14 UNK        -0.5000 
     84 N          -5.4728  -27.2380  -48.4912 N.am      15 UNK        -0.5000 
     85 CA         -6.6027  -26.3153  -48.6607 C.3       15 UNK         0.1400 
     86 CB         -7.8700  -27.0769  -49.1035 C.3       15 UNK        -0.1800 
     87 C          -6.2455  -25.1428  -49.5966 C.2       15 UNK         0.5000 
     88 O          -6.9686  -24.8672  -50.5541 O.2       15 UNK        -0.5000 
     89 N          -5.0935  -24.5158  -49.3219 N.am      16 UNK        -0.5000 
     90 CA         -4.4325  -23.4779  -50.1189 C.3       16 UNK         0.1400 
     91 CB         -5.2256  -22.1571  -50.0540 C.3       16 UNK        -0.1800 
     92 C          -4.1472  -23.9482  -51.5580 C.2       16 UNK         0.5000 
     93 O          -4.4913  -23.2541  -52.5160 O.2       16 UNK        -0.5000 
     94 N          -3.5607  -25.1491  -51.6736 N.am      17 UNK        -0.5000 
     95 CA         -3.2860  -25.8784  -52.9167 C.3       17 UNK         0.1400 
     96 CB         -2.1344  -25.1989  -53.6863 C.3       17 UNK        -0.1800 
     97 C          -4.5550  -26.0674  -53.7773 C.2       17 UNK         0.5000 
     98 O          -4.5556  -25.7300  -54.9614 O.2       17 UNK        -0.5000 
     99 N          -5.6300  -26.5562  -53.1417 N.am      18 UNK        -0.5000 
    100 CA        -6.9908  -26.6837  -53.6771 C.3       18 UNK         0.1400 
    101 CB        -7.0506  -27.7799  -54.7609 C.3       18 UNK        -0.1800 
    102 C         -7.5686  -25.3284  -54.1458 C.2       18 UNK         0.5000 
    103 O         -8.1013  -25.2221  -55.2520 O.2       18 UNK        -0.5000 
    104 N         -7.4241  -24.3144  -53.2819 N.am      19 UNK        -0.5000 
    105 CA        -7.8404  -22.9160  -53.4298 C.3       19 UNK         0.1400 
    106 CB        -9.3767  -22.8134  -53.5246 C.3       19 UNK        -0.1800 
    107 C         -7.1264  -22.1323  -54.5543 C.2       19 UNK         0.5000 
    108 O         -7.5900  -21.0502  -54.9192 O.2       19 UNK        -0.5000 
    109 N         -6.0139  -22.6607  -55.0809 N.am      20 UNK        -0.5000 
    110 CA        -5.2121  -22.0136  -56.1189 C.3       20 UNK         0.1400 
    111 CB        -4.4260  -23.0791  -56.8962 C.3       20 UNK        -0.1800 
    112 C         -4.2506  -20.9562  -55.5492 C.2       20 UNK         0.5000 
    113 O         -3.9884  -19.9550  -56.2183 O.2       20 UNK        -0.5000 
    114 N         -3.7309  -21.1872  -54.3366 N.am      21 UNK        -0.5000 
    115 CA        -2.7447  -20.3329  -53.6803 C.3       21 UNK         0.1400 
    116 CB        -1.8262  -21.2019  -52.8045 C.3       21 UNK        -0.1800 
    117 C         -3.4440  -19.2175  -52.8856 C.2       21 UNK         0.5000 
    118 O         -3.4966  -19.2691  -51.6570 O.2       21 UNK        -0.5000 
    119 N         -4.0005  -18.2398  -53.6104 N.am      22 UNK        -0.5000 
    120 CA        -4.6702  -17.0183  -53.1185 C.3       22 UNK         0.1400 
    121 C         -6.0187  -17.2542  -52.3647 C.2       22 UNK         0.5000 
    122 N         -6.1866  -18.3437  -51.6284 N.am      22 UNK        -0.7600 
    123 O         -6.9398  -16.4503  -52.4842 O.2       22 UNK        -0.5000 
    124 C124       -3.6587  -16.0330  -52.4300 C.3       23 UNK        -0.0398 
    125 S125       -4.1425  -15.1516  -50.8959 S.3       23 UNK        -0.2404 
    126 C126       -3.5883  -16.3006  -49.5945 C.3       23 UNK        -0.0205 
    127 H127        6.3648  -13.2124  -51.0672 H         1 UNK         0.0600 
    128 H128        7.1856  -14.6186  -50.3842 H         1 UNK         0.0600 
    129 H129        7.6531  -12.9909  -49.8802 H         1 UNK         0.0600 
    130 H130        4.3480  -12.9033  -50.1942 H         1 UNK         0.3000 
    131 H131        3.4326  -14.1636  -47.7944 H         1 UNK         0.0600 
    132 H132        2.1771  -12.1149  -49.6685 H         1 UNK         0.0800 
    133 H133        1.8794  -13.8202  -49.6401 H         1 UNK         0.0800 
    134 H134        1.2916  -14.6591  -46.7151 H         1 UNK         0.0800 
    135 H135       -0.3282  -14.1523  -46.3387 H         1 UNK         0.0800 
    136 H136       -2.2243  -14.6196  -47.9254 H         1 UNK         0.1150 
    137 H137       -1.6188  -17.8427  -50.6868 H         1 UNK         0.1150 
    138 H138        1.7177  -16.1652  -48.5968 H         1 UNK         0.1150 
    139 H139        1.0481  -17.8769  -51.5153 H         1 UNK         0.0800 
    140 H140        2.1115  -17.9227  -50.1293 H         1 UNK         0.0800 
    141 H141       -0.2998  -19.2924  -47.9660 H         1 UNK         0.0800 
    142 H142        1.4438  -19.2855  -47.9959 H         1 UNK         0.0800 
    143 H143        1.3252  -21.8582  -48.3205 H         1 UNK         0.0600 
    144 H144        1.2127  -20.3214  -45.9420 H         1 UNK         0.3000 
    145 H145        2.0476  -22.9840  -43.6980 H         1 UNK         0.0600 
    146 H146        4.1493  -22.1533  -44.7604 H         1 UNK         0.0600 
    147 H147        3.5242  -20.5084  -44.7428 H         1 UNK         0.0600 
    148 H148        3.8461  -21.3476  -43.2281 H         1 UNK         0.0600 
    149 H149        1.5210  -20.1836  -43.3245 H         1 UNK         0.3000 
    150 H150       -1.9769  -20.5487  -42.6232 H         1 UNK         0.0600 
    151 H151       -0.7860  -21.1162  -40.4923 H         1 UNK         0.0600 
    152 H152       -1.2941  -19.4349  -40.5270 H         1 UNK         0.0600 
    153 H153        0.3947  -19.8507  -40.8128 H         1 UNK         0.0600 
    154 H154       -0.3730  -18.2358  -42.5523 H         1 UNK         0.3000 
    155 H155       -0.7216  -17.3067  -46.0194 H         1 UNK         0.0600 
    156 H156       -2.7087  -16.5153  -44.7998 H         1 UNK         0.0600 
    157 H157       -1.4799  -15.2630  -44.7468 H         1 UNK         0.0600 
    158 H158       -1.7743  -16.2645  -43.3338 H         1 UNK         0.0600 
    159 H159        0.7452  -16.0373  -43.9723 H         1 UNK         0.3000 
    160 H160        3.8496  -17.8036  -44.3920 H         1 UNK         0.0600 
    161 H161        2.9269  -14.9412  -44.9774 H         1 UNK         0.0600 
    162 H162        3.7729  -15.9990  -46.0970 H         1 UNK         0.0600 
    163 H163        4.5821  -15.4428  -44.6419 H         1 UNK         0.0600 
    164 H164        2.9201  -15.7380  -42.6054 H         1 UNK         0.3000 
    165 H165        1.9729  -17.9178  -39.9438 H         1 UNK         0.0600 
    166 H166        3.6413  -16.5343  -38.7402 H         1 UNK         0.0600 
    167 H167        4.4571  -17.7068  -39.7620 H         1 UNK         0.0600 
    168 H168        4.3648  -16.0233  -40.2656 H         1 UNK         0.0600 
    169 H169        2.0752  -15.0694  -40.1855 H         1 UNK         0.3000 
    170 H170       -1.1381  -14.5806  -41.6142 H         1 UNK         0.0600 
    171 H171       -1.6672  -15.0252  -39.2138 H         1 UNK         0.0600 
    172 H172       -0.2192  -14.1566  -38.7191 H         1 UNK         0.0600 
    173 H173       -1.5342  -13.3025  -39.5275 H         1 UNK         0.0600 
    174 H174        0.7574  -12.7608  -40.5254 H         1 UNK         0.3000 
    175 H175        1.9769  -11.4462  -41.7610 H         1 UNK         0.0600 
    176 H176        4.2527  -11.7820  -42.6819 H         1 UNK         0.0600 
    177 H177        3.7912  -13.1438  -41.6712 H         1 UNK         0.0600 
    178 H178        3.7603  -13.2995  -43.4230 H         1 UNK         0.0600 
    179 H179        2.4140  -11.6522  -44.6411 H         1 UNK         0.3000 
    180 H180        0.0159  -10.3153  -45.9068 H         1 UNK         0.0600 
    181 H181        0.9212   -7.6946  -44.6066 H         1 UNK         0.0600 
    182 H182       -0.7303   -8.2714  -44.7719 H         1 UNK         0.0600 
    183 H183        0.1835   -7.8278  -46.2027 H         1 UNK         0.0600 
    184 H184        1.9293  -10.3951  -46.9779 H         1 UNK         0.3000 
    185 H185        4.5069   -8.8962  -47.4784 H         1 UNK         0.0600 
    186 H186        5.9929   -8.9996  -45.5138 H         1 UNK         0.0600 
    187 H187        5.6099  -10.6963  -45.2560 H         1 UNK         0.0600 
    188 H188        6.5069  -10.1973  -46.6891 H         1 UNK         0.0600 
    189 H189        4.1756  -10.7654  -48.6176 H         1 UNK         0.3000 
    190 H190       -1.2499  -21.4193  -45.9715 H         1 UNK         0.3000 
    191 H191       -3.4560  -22.2816  -47.4913 H         1 UNK         0.0600 
    192 H192       -3.6761  -21.0355  -45.3823 H         1 UNK         0.0600 
    193 H193       -4.5439  -22.5518  -45.2579 H         1 UNK         0.0600 
    194 H194       -2.9805  -22.3777  -44.4731 H         1 UNK         0.0600 
    195 H195       -0.8330  -24.2292  -46.7519 H         1 UNK         0.3000 
    196 H196       -1.8869  -26.7229  -46.0281 H         1 UNK         0.0600 
    197 H197        0.2081  -27.6011  -47.1081 H         1 UNK         0.0600 
    198 H198        0.5366  -26.2071  -46.0901 H         1 UNK         0.0600 
    199 H199        0.4863  -26.0256  -47.8429 H         1 UNK         0.0600 
    200 H200       -2.6844  -28.4672  -47.1216 H         1 UNK         0.3000 
    201 H201       -3.9694  -29.6093  -48.5177 H         1 UNK         0.0600 
    202 H202       -1.8674  -29.7776  -49.8480 H         1 UNK         0.0600 
    203 H203       -2.3092  -28.3364  -50.7589 H         1 UNK         0.0600 
    204 H204       -3.2812  -29.7955  -50.8882 H         1 UNK         0.0600 
    205 H205       -5.1012  -27.2971  -47.5534 H         1 UNK         0.3000 
    206 H206       -6.8016  -25.8791  -47.6807 H         1 UNK         0.0600 
    207 H207       -8.1053  -27.8854  -48.4117 H         1 UNK         0.0600 
    208 H208       -8.7336  -26.4115  -49.1310 H         1 UNK         0.0600 
    209 H209       -7.7603  -27.5086  -50.0988 H         1 UNK         0.0600 
    210 H210       -4.5844  -24.8222  -48.4979 H         1 UNK         0.3000 
    211 H211       -3.4582  -23.3061  -49.6638 H         1 UNK         0.0600 
    212 H212       -6.2070  -22.2480  -50.5183 H         1 UNK         0.0600 
    213 H213       -4.6920  -21.3600  -50.5703 H         1 UNK         0.0600 
    214 H214       -5.3728  -21.8340  -49.0239 H         1 UNK         0.0600 
    215 H215       -3.2860  -25.6220  -50.8168 H         1 UNK         0.3000 
    216 H216       -2.9541  -26.8761  -52.6281 H         1 UNK         0.0600 
    217 H217       -1.8464  -25.7879  -54.5577 H         1 UNK         0.0600 
    218 H218       -1.2498  -25.0926  -53.0584 H         1 UNK         0.0600 
    219 H219       -2.4143  -24.2065  -54.0408 H         1 UNK         0.0600 
    220 H220       -5.5154  -26.8408  -52.1709 H         1 UNK         0.3000 
    221 H221       -7.6150  -27.0097  -52.8438 H         1 UNK         0.0600 
    222 H222       -6.4771  -27.5075  -55.6473 H         1 UNK         0.0600 
    223 H223       -6.6593  -28.7254  -54.3856 H         1 UNK         0.0600 
    224 H224       -8.0785  -27.9575  -55.0789 H         1 UNK         0.0600 
    225 H225       -7.0052  -24.5296  -52.3789 H         1 UNK         0.3000 
    226 H226       -7.5408  -22.4271  -52.5027 H         1 UNK         0.0600 
    227 H227       -9.8582  -23.3497  -52.7068 H         1 UNK         0.0600 
    228 H228       -9.7059  -21.7754  -53.4661 H         1 UNK         0.0600 
    229 H229       -9.7526  -23.2221  -54.4628 H         1 UNK         0.0600 
    230 H230       -5.6685  -23.5365  -54.7087 H         1 UNK         0.3000 
    231 H231       -5.8814  -21.5147  -56.8231 H         1 UNK         0.0600 
    232 H232       -3.6836  -23.5703  -56.2663 H         1 UNK         0.0600 
    233 H233       -3.8955  -22.6338  -57.7386 H         1 UNK         0.0600 
    234 H234       -5.0882  -23.8475  -57.2959 H         1 UNK         0.0600 
    235 H235       -4.0487  -21.9948  -53.8035 H         1 UNK         0.3000 
    236 H236       -2.1130  -19.8592  -54.4348 H         1 UNK         0.0600 
    237 H237       -1.3755  -22.0101  -53.3801 H         1 UNK         0.0600 
    238 H238       -1.0128  -20.6026  -52.3988 H         1 UNK         0.0600 
    239 H239       -2.3556  -21.6441  -51.9610 H         1 UNK         0.0600 
    240 H240       -3.9760  -18.3443  -54.6173 H         1 UNK         0.3000 
    241 H241       -4.9831  -16.5235  -54.0393 H         1 UNK         0.0600 
    242 H242       -7.0581  -18.5063  -51.1512 H         1 UNK         0.3800 
    243 H243       -5.3932  -18.9607  -51.4907 H         1 UNK         0.3800 
    244 H244       -3.3960  -15.2589  -53.1519 H         1 UNK         0.0800 
    245 H245       -2.7116  -16.5318  -52.2348 H         1 UNK         0.0800 
    246 H246       -3.8848  -17.3180  -49.8527 H         1 UNK         0.0800 
    247 H247       -4.1197  -16.0611  -48.6724 H         1 UNK         0.0800 
@<TRIPOS>BOND
     1    1    2 1    
     2    1  127 1    
     3    1  128 1    
     4    1  129 1    
     5    2    3 2    
     6    2    4 am   BACKBONE|DICT|INTERRES
     7    4    5 1    
     8    4  130 1    
     9    5    6 1    
    10    5   65 1    
    11    5  131 1    
    12    6    7 1    
    13    6  132 1    
    14    6  133 1    
    15    7    8 1    
    16    8    9 1    
    17    8  134 1    
    18    8  135 1    
    19    9   10 ar   
    20    9   14 ar   
    21   10   11 ar   
    22   10  136 1    
    23   11   12 ar   
    24   11  126 1    
    25   12   13 ar   
    26   12  137 1    
    27   13   14 ar   
    28   13   15 1    
    29   14  138 1    
    30   15   16 1    
    31   15  139 1    
    32   15  140 1    
    33   16   17 1    
    34   17   18 1    
    35   17  141 1    
    36   17  142 1    
    37   18   19 1    
    38   18   67 1    
    39   18  143 1    
    40   19   20 am   BACKBONE|DICT|INTERRES
    41   19  144 1    
    42   20   21 2    
    43   20   22 1    
    44   22   23 1    
    45   22   24 1    
    46   22  145 1    
    47   23  146 1    
    48   23  147 1    
    49   23  148 1    
    50   24   25 am   BACKBONE|DICT|INTERRES
    51   24  149 1    
    52   25   26 2    
    53   25   27 1    
    54   27   28 1    
    55   27   29 1    
    56   27  150 1    
    57   28  151 1    
    58   28  152 1    
    59   28  153 1    
    60   29   30 am   BACKBONE|DICT|INTERRES
    61   29  154 1    
    62   30   31 2    
    63   30   32 1    
    64   32   33 1    
    65   32   34 1    
    66   32  155 1    
    67   33  156 1    
    68   33  157 1    
    69   33  158 1    
    70   34   35 am   BACKBONE|DICT|INTERRES
    71   34  159 1    
    72   35   36 2    
    73   35   37 1    
    74   37   38 1    
    75   37   39 1    
    76   37  160 1    
    77   38  161 1    
    78   38  162 1    
    79   38  163 1    
    80   39   40 am   BACKBONE|DICT|INTERRES
    81   39  164 1    
    82   40   41 2    
    83   40   42 1    
    84   42   43 1    
    85   42   44 1    
    86   42  165 1    
    87   43  166 1    
    88   43  167 1    
    89   43  168 1    
    90   44   45 am   BACKBONE|DICT|INTERRES
    91   44  169 1    
    92   45   46 2    
    93   45   47 1    
    94   47   48 1    
    95   47   49 1    
    96   47  170 1    
    97   48  171 1    
    98   48  172 1    
    99   48  173 1    
   100   49   50 am   BACKBONE|DICT|INTERRES
   101   49  174 1    
   102   50   51 2    
   103   50   52 1    
   104   52   53 1    
   105   52   54 1    
   106   52  175 1    
   107   53  176 1    
   108   53  177 1    
   109   53  178 1    
   110   54   55 am   BACKBONE|DICT|INTERRES
   111   54  179 1    
   112   55   56 2    
   113   55   57 1    
   114   57   58 1    
   115   57   59 1    
   116   57  180 1    
   117   58  181 1    
   118   58  182 1    
   119   58  183 1    
   120   59   60 am   BACKBONE|DICT|INTERRES
   121   59  184 1    
   122   60   61 2    
   123   60   62 1    
   124   62   63 1    
   125   62   64 1    
   126   62  185 1    
   127   63  186 1    
   128   63  187 1    
   129   63  188 1    
   130   64   65 am   BACKBONE|DICT|INTERRES
   131   64  189 1    
   132   65   66 2    
   133   67   68 2    
   134   67   69 am   BACKBONE|DICT|INTERRES
   135   69   70 1    
   136   69  190 1    
   137   70   71 1    
   138   70   72 1    
   139   70  191 1    
   140   71  192 1    
   141   71  193 1    
   142   71  194 1    
   143   72   73 2    
   144   72   74 am   BACKBONE|DICT|INTERRES
   145   74   75 1    
   146   74  195 1    
   147   75   76 1    
   148   75   77 1    
   149   75  196 1    
   150   76  197 1    
   151   76  198 1    
   152   76  199 1    
   153   77   78 2    
   154   77   79 am   BACKBONE|DICT|INTERRES
   155   79   80 1    
   156   79  200 1    
   157   80   81 1    
   158   80   82 1    
   159   80  201 1    
   160   81  202 1    
   161   81  203 1    
   162   81  204 1    
   163   82   83 2    
   164   82   84 am   BACKBONE|DICT|INTERRES
   165   84   85 1    
   166   84  205 1    
   167   85   86 1    
   168   85   87 1    
   169   85  206 1    
   170   86  207 1    
   171   86  208 1    
   172   86  209 1    
   173   87   88 2    
   174   87   89 am   BACKBONE|DICT|INTERRES
   175   89   90 1    
   176   89  210 1    
   177   90   91 1    
   178   90   92 1    
   179   90  211 1    
   180   91  212 1    
   181   91  213 1    
   182   91  214 1    
   183   92   93 2    
   184   92   94 am   BACKBONE|DICT|INTERRES
   185   94   95 1    
   186   94  215 1    
   187   95   96 1    
   188   95   97 1    
   189   95  216 1    
   190   96  217 1    
   191   96  218 1    
   192   96  219 1    
   193   97   98 2    
   194   97   99 am   BACKBONE|DICT|INTERRES
   195   99  100 1    
   196   99  220 1    
   197  100  101 1    
   198  100  102 1    
   199  100  221 1    
   200  101  222 1    
   201  101  223 1    
   202  101  224 1    
   203  102  103 2    
   204  102  104 am   BACKBONE|DICT|INTERRES
   205  104  105 1    
   206  104  225 1    
   207  105  106 1    
   208  105  107 1    
   209  105  226 1    
   210  106  227 1    
   211  106  228 1    
   212  106  229 1    
   213  107  108 2    
   214  107  109 am   BACKBONE|DICT|INTERRES
   215  109  110 1    
   216  109  230 1    
   217  110  111 1    
   218  110  112 1    
   219  110  231 1    
   220  111  232 1    
   221  111  233 1    
   222  111  234 1    
   223  112  113 2    
   224  112  114 am   BACKBONE|DICT|INTERRES
   225  114  115 1    
   226  114  235 1    
   227  115  116 1    
   228  115  117 1    
   229  115  236 1    
   230  116  237 1    
   231  116  238 1    
   232  116  239 1    
   233  117  118 2    
   234  117  119 am   BACKBONE|DICT|INTERRES
   235  119  120 1    
   236  119  240 1    
   237  120  121 1    
   238  120  124 1    
   239  120  241 1    
   240  121  122 am   BACKBONE|DICT|INTERRES
   241  121  123 2    
   242  122  242 1    
   243  122  243 1    
   244  124  125 1    
   245  124  244 1    
   246  124  245 1    
   247  125  126 1    
   248  126  246 1    
   249  126  247 1    
@<TRIPOS>SUBSTRUCTURE
     1 UNK         1 GROUP             0       ****    0 ROOT    
