@<TRIPOS>MOLECULE
3R540
247   249    1
SMALL
USER_CHARGES


@<TRIPOS>ATOM
      1 CA          5.6677  -14.1133  -44.2664 C.3       0 UNK        -0.1800 
      2 C           4.2019  -13.9721  -44.6463 C.2       0 UNK         0.5000 
      3 O           3.3371  -14.4677  -43.9254 O.2       0 UNK        -0.5000 
      4 N           3.9228  -13.3186  -45.7776 N.am      1 UNK        -0.5000 
      5 CA          2.5734  -13.0569  -46.2956 C.3       1 UNK         0.1400 
      6 C6          2.0950  -14.1070  -47.3294 C.3       23 UNK        -0.0398 
      7 S7          3.2506  -14.4046  -48.7121 S.3       23 UNK        -0.2404 
      8 C8          2.1423  -14.2783  -50.1507 C.3       23 UNK        -0.0205 
      9 C9          1.0850  -15.3753  -50.1663 C.ar      23 UNK        -0.0193 
     10 C10        -0.2436  -15.0753  -49.8507 C.ar      23 UNK        -0.1150 
     11 C11        -1.2230  -16.0706  -49.8850 C.ar      23 UNK        -0.0193 
     12 C12        -0.8673  -17.3739  -50.2457 C.ar      23 UNK        -0.1150 
     13 C13         0.4558  -17.6886  -50.5688 C.ar      23 UNK        -0.0193 
     14 C14         1.4286  -16.6842  -50.5211 C.ar      23 UNK        -0.1150 
     15 C15         0.8264  -19.0981  -51.0144 C.3       23 UNK        -0.0205 
     16 S16         1.1710  -20.2116  -49.6140 S.3       23 UNK        -0.2404 
     17 C17        -0.5138  -20.6107  -49.0456 C.3       23 UNK        -0.0398 
     18 CA         -0.5637  -21.8760  -48.1539 C.3       11 UNK         0.1400 
     19 N           0.0593  -21.6821  -46.8428 N.am      11 UNK        -0.5000 
     20 C           0.2887  -22.6619  -45.9558 C.2       10 UNK         0.5000 
     21 O           0.1160  -23.8569  -46.1968 O.2       10 UNK        -0.5000 
     22 CA          0.7318  -22.2356  -44.5431 C.3       10 UNK         0.1400 
     23 CB          2.2491  -22.0071  -44.4850 C.3       10 UNK        -0.1800 
     24 N           0.0235  -21.0438  -44.0681 N.am      10 UNK        -0.5000 
     25 C          -1.2982  -20.9950  -43.8411 C.2       9 UNK         0.5000 
     26 O          -2.0446  -21.9683  -43.9528 O.2       9 UNK        -0.5000 
     27 CA         -1.8953  -19.6243  -43.4696 C.3       9 UNK         0.1400 
     28 CB         -1.7282  -19.3441  -41.9690 C.3       9 UNK        -0.1800 
     29 N          -1.3130  -18.5260  -44.2400 N.am      9 UNK        -0.5000 
     30 C          -1.4281  -18.3754  -45.5677 C.2       8 UNK         0.5000 
     31 O          -2.0978  -19.1153  -46.2874 O.2       8 UNK        -0.5000 
     32 CA         -0.5929  -17.2536  -46.2086 C.3       8 UNK         0.1400 
     33 CB         -1.2812  -15.8887  -46.0593 C.3       8 UNK        -0.1800 
     34 N           0.7599  -17.2006  -45.6519 N.am      8 UNK        -0.5000 
     35 C           1.6716  -18.1719  -45.8100 C.2       7 UNK         0.5000 
     36 O           1.4725  -19.1884  -46.4698 O.2       7 UNK        -0.5000 
     37 CA          3.0027  -18.0181  -45.0563 C.3       7 UNK         0.1400 
     38 CB          4.0605  -17.3299  -45.9296 C.3       7 UNK        -0.1800 
     39 N           2.8346  -17.3005  -43.7919 N.am      7 UNK        -0.5000 
     40 C           2.2790  -17.8530  -42.7044 C.2       6 UNK         0.5000 
     41 O           1.8777  -19.0165  -42.6606 O.2       6 UNK        -0.5000 
     42 CA          2.1021  -16.9402  -41.4785 C.3       6 UNK         0.1400 
     43 CB          3.4320  -16.7745  -40.7276 C.3       6 UNK        -0.1800 
     44 N           1.5761  -15.6190  -41.8234 N.am      6 UNK        -0.5000 
     45 C           0.3669  -15.3854  -42.3507 C.2       5 UNK         0.5000 
     46 O          -0.4333  -16.2817  -42.6181 O.2       5 UNK        -0.5000 
     47 CA         -0.0077  -13.9185  -42.6372 C.3       5 UNK         0.1400 
     48 CB         -1.4888  -13.6263  -42.3369 C.3       5 UNK        -0.1800 
     49 N           0.8335  -12.9860  -41.8814 N.am      5 UNK        -0.5000 
     50 C           1.4000  -11.8873  -42.3913 C.2       4 UNK         0.5000 
     51 O           1.2471  -11.5179  -43.5582 O.2       4 UNK        -0.5000 
     52 CA          2.3120  -11.0874  -41.4392 C.3       4 UNK         0.1400 
     53 CB          3.6322  -11.8395  -41.2013 C.3       4 UNK        -0.1800 
     54 N           2.6274   -9.7769  -42.0013 N.am      4 UNK        -0.5000 
     55 C           1.8120   -8.7175  -42.0189 C.2       3 UNK         0.5000 
     56 O           0.7673   -8.6480  -41.3698 O.2       3 UNK        -0.5000 
     57 CA          2.2062   -7.5582  -42.9598 C.3       3 UNK         0.1400 
     58 CB          3.4091   -6.7618  -42.4166 C.3       3 UNK        -0.1800 
     59 N           2.4092   -7.9893  -44.3535 N.am      3 UNK        -0.5000 
     60 C           3.3634   -8.7916  -44.8455 C.2       2 UNK         0.5000 
     61 O           4.3200   -9.2160  -44.1902 O.2       2 UNK        -0.5000 
     62 CA          3.1911   -9.2662  -46.2931 C.3       2 UNK         0.1400 
     63 CB          4.2854   -8.6956  -47.2085 C.3       2 UNK        -0.1800 
     64 N           3.2972  -10.7177  -46.2429 N.am      2 UNK        -0.5000 
     65 C           2.4229  -11.5905  -46.7561 C.2       1 UNK         0.5000 
     66 O           1.5153  -11.2714  -47.5258 O.2       1 UNK        -0.5000 
     67 C          -2.0149  -22.3732  -48.0055 C.2       11 UNK         0.5000 
     68 O          -2.3667  -23.3751  -48.6273 O.2       11 UNK        -0.5000 
     69 N          -2.8194  -21.6900  -47.1750 N.am      12 UNK        -0.5000 
     70 CA         -4.2420  -21.9698  -46.9396 C.3       12 UNK         0.1400 
     71 CB         -4.8194  -20.9583  -45.9381 C.3       12 UNK        -0.1800 
     72 C          -4.5291  -23.3976  -46.4483 C.2       12 UNK         0.5000 
     73 O          -5.5350  -23.9802  -46.8523 O.2       12 UNK        -0.5000 
     74 N          -3.6212  -23.9490  -45.6315 N.am      13 UNK        -0.5000 
     75 CA         -3.6773  -25.3103  -45.0926 C.3       13 UNK         0.1400 
     76 CB         -2.4917  -25.5161  -44.1378 C.3       13 UNK        -0.1800 
     77 C          -3.7075  -26.4222  -46.1635 C.2       13 UNK         0.5000 
     78 O          -4.2483  -27.4957  -45.8948 O.2       13 UNK        -0.5000 
     79 N          -3.1489  -26.1459  -47.3496 N.am      14 UNK        -0.5000 
     80 CA         -3.1495  -27.0409  -48.5096 C.3       14 UNK         0.1400 
     81 CB         -1.6874  -27.3433  -48.8810 C.3       14 UNK        -0.1800 
     82 C          -3.8925  -26.4328  -49.7156 C.2       14 UNK         0.5000 
     83 O          -3.9068  -27.0506  -50.7811 O.2       14 UNK        -0.5000 
     84 N          -4.4316  -25.2133  -49.5623 N.am      15 UNK        -0.5000 
     85 CA         -4.9668  -24.3324  -50.6095 C.3       15 UNK         0.1400 
     86 CB         -6.3129  -24.8729  -51.1262 C.3       15 UNK        -0.1800 
     87 C          -3.9497  -24.0610  -51.7437 C.2       15 UNK         0.5000 
     88 O          -4.3335  -23.9935  -52.9128 O.2       15 UNK        -0.5000 
     89 N          -2.6672  -23.9531  -51.3622 N.am      16 UNK        -0.5000 
     90 CA         -1.4634  -23.9108  -52.2011 C.3       16 UNK         0.1400 
     91 CB         -1.3332  -22.5616  -52.9289 C.3       16 UNK        -0.1800 
     92 C          -1.3575  -25.1258  -53.1472 C.2       16 UNK         0.5000 
     93 O          -1.1411  -24.9641  -54.3485 O.2       16 UNK        -0.5000 
     94 N          -1.5271  -26.3219  -52.5656 N.am      17 UNK        -0.5000 
     95 CA         -1.5505  -27.6367  -53.2143 C.3       17 UNK         0.1400 
     96 CB         -0.1976  -27.9615  -53.8830 C.3       17 UNK        -0.1800 
     97 C          -2.7602  -27.7881  -54.1575 C.2       17 UNK         0.5000 
     98 O          -2.6001  -28.1246  -55.3324 O.2       17 UNK        -0.5000 
     99 N          -3.9532  -27.5321  -53.6005 N.am      18 UNK        -0.5000 
    100 CA        -5.2725  -27.6331  -54.2350 C.3       18 UNK         0.1400 
    101 CB        -5.6002  -29.1008  -54.5814 C.3       18 UNK        -0.1800 
    102 C         -5.4666  -26.6736  -55.4297 C.2       18 UNK         0.5000 
    103 O         -6.1811  -27.0035  -56.3781 O.2       18 UNK        -0.5000 
    104 N         -4.8472  -25.4892  -55.3535 N.am      19 UNK        -0.5000 
    105 CA        -4.9602  -24.4183  -56.3456 C.3       19 UNK         0.1400 
    106 CB        -3.6365  -23.6392  -56.3760 C.3       19 UNK        -0.1800 
    107 C         -6.1382  -23.4655  -56.0569 C.2       19 UNK         0.5000 
    108 O         -6.4137  -22.5911  -56.8793 O.2       19 UNK        -0.5000 
    109 N         -6.7923  -23.6363  -54.8963 N.am      20 UNK        -0.5000 
    110 CA        -7.8639  -22.7993  -54.3407 C.3       20 UNK         0.1400 
    111 CB        -9.1090  -22.7940  -55.2532 C.3       20 UNK        -0.1800 
    112 C         -7.3706  -21.3844  -53.9677 C.2       20 UNK         0.5000 
    113 O         -8.1184  -20.4122  -54.0915 O.2       20 UNK        -0.5000 
    114 N         -6.1085  -21.2975  -53.5264 N.am      21 UNK        -0.5000 
    115 CA        -5.4506  -20.0599  -53.1126 C.3       21 UNK         0.1400 
    116 CB        -3.9344  -20.2963  -53.1079 C.3       21 UNK        -0.1800 
    117 C         -5.9160  -19.5630  -51.7305 C.2       21 UNK         0.5000 
    118 O         -6.5677  -20.2945  -50.9814 O.2       21 UNK        -0.5000 
    119 N         -5.5200  -18.3254  -51.4160 N.am      22 UNK        -0.5000 
    120 CA        -5.7511  -17.6232  -50.1431 C.3       22 UNK         0.1400 
    121 C         -5.0888  -18.2531  -48.8827 C.2       22 UNK         0.5000 
    122 N         -4.1148  -19.1455  -49.0127 N.am      22 UNK        -0.7600 
    123 O         -5.4558  -17.9021  -47.7656 O.2       22 UNK        -0.5000 
    124 C124       -5.3829  -16.1162  -50.2615 C.3       23 UNK        -0.0398 
    125 S125       -3.7352  -15.8099  -51.0009 S.3       23 UNK        -0.2404 
    126 C126       -2.6650  -15.7471  -49.5293 C.3       23 UNK        -0.0205 
    127 H127        5.8541  -13.6271  -43.3091 H         1 UNK         0.0600 
    128 H128        6.3254  -13.6650  -45.0113 H         1 UNK         0.0600 
    129 H129        5.9294  -15.1669  -44.1705 H         1 UNK         0.0600 
    130 H130        4.6767  -12.9761  -46.3574 H         1 UNK         0.3000 
    131 H131        1.8721  -13.1287  -45.4638 H         1 UNK         0.0600 
    132 H132        1.9445  -15.0596  -46.8269 H         1 UNK         0.0800 
    133 H133        1.1116  -13.8349  -47.7122 H         1 UNK         0.0800 
    134 H134        1.6782  -13.2905  -50.1607 H         1 UNK         0.0800 
    135 H135        2.7392  -14.3427  -51.0615 H         1 UNK         0.0800 
    136 H136       -0.5168  -14.0646  -49.5814 H         1 UNK         0.1150 
    137 H137       -1.6283  -18.1394  -50.2877 H         1 UNK         0.1150 
    138 H138        2.4541  -16.9167  -50.7717 H         1 UNK         0.1150 
    139 H139        0.0350  -19.5159  -51.6385 H         1 UNK         0.0800 
    140 H140        1.7138  -19.0599  -51.6479 H         1 UNK         0.0800 
    141 H141       -1.1382  -20.7461  -49.9304 H         1 UNK         0.0800 
    142 H142       -0.9126  -19.7461  -48.5157 H         1 UNK         0.0800 
    143 H143       -0.0106  -22.6674  -48.6647 H         1 UNK         0.0600 
    144 H144        0.3225  -20.7302  -46.6024 H         1 UNK         0.3000 
    145 H145        0.4902  -23.0532  -43.8605 H         1 UNK         0.0600 
    146 H146        2.5669  -21.7018  -43.4879 H         1 UNK         0.0600 
    147 H147        2.7872  -22.9227  -44.7326 H         1 UNK         0.0600 
    148 H148        2.5708  -21.2423  -45.1904 H         1 UNK         0.0600 
    149 H149        0.5793  -20.2128  -43.9048 H         1 UNK         0.3000 
    150 H150       -2.9636  -19.6537  -43.6901 H         1 UNK         0.0600 
    151 H151       -2.1733  -20.1401  -41.3708 H         1 UNK         0.0600 
    152 H152       -2.2172  -18.4116  -41.6865 H         1 UNK         0.0600 
    153 H153       -0.6778  -19.2677  -41.6869 H         1 UNK         0.0600 
    154 H154       -0.7890  -17.8337  -43.7123 H         1 UNK         0.3000 
    155 H155       -0.5078  -17.4732  -47.2749 H         1 UNK         0.0600 
    156 H156       -1.3604  -15.5832  -45.0170 H         1 UNK         0.0600 
    157 H157       -2.2934  -15.9192  -46.4637 H         1 UNK         0.0600 
    158 H158       -0.7407  -15.1120  -46.5992 H         1 UNK         0.0600 
    159 H159        0.9811  -16.4288  -45.0425 H         1 UNK         0.3000 
    160 H160        3.3724  -19.0204  -44.8317 H         1 UNK         0.0600 
    161 H161        5.0144  -17.2532  -45.4081 H         1 UNK         0.0600 
    162 H162        3.7568  -16.3287  -46.2258 H         1 UNK         0.0600 
    163 H163        4.2347  -17.8975  -46.8447 H         1 UNK         0.0600 
    164 H164        3.0958  -16.3173  -43.7685 H         1 UNK         0.3000 
    165 H165        1.3874  -17.4215  -40.8076 H         1 UNK         0.0600 
    166 H166        3.2970  -16.2038  -39.8087 H         1 UNK         0.0600 
    167 H167        3.8471  -17.7442  -40.4495 H         1 UNK         0.0600 
    168 H168        4.1770  -16.2595  -41.3359 H         1 UNK         0.0600 
    169 H169        2.2197  -14.8443  -41.7522 H         1 UNK         0.3000 
    170 H170        0.1541  -13.7830  -43.7083 H         1 UNK         0.0600 
    171 H171       -2.1471  -14.2705  -42.9210 H         1 UNK         0.0600 
    172 H172       -1.7219  -13.7847  -41.2834 H         1 UNK         0.0600 
    173 H173       -1.7439  -12.5961  -42.5857 H         1 UNK         0.0600 
    174 H174        0.9919  -13.2207  -40.9110 H         1 UNK         0.3000 
    175 H175        1.7965  -10.9562  -40.4856 H         1 UNK         0.0600 
    176 H176        4.1748  -11.9995  -42.1338 H         1 UNK         0.0600 
    177 H177        4.2847  -11.2846  -40.5270 H         1 UNK         0.0600 
    178 H178        3.4590  -12.8172  -40.7504 H         1 UNK         0.0600 
    179 H179        3.4234   -9.7398  -42.6320 H         1 UNK         0.3000 
    180 H180        1.3556   -6.8751  -42.9860 H         1 UNK         0.0600 
    181 H181        4.3037   -7.3769  -42.3187 H         1 UNK         0.0600 
    182 H182        3.1879   -6.3557  -41.4290 H         1 UNK         0.0600 
    183 H183        3.6501   -5.9212  -43.0671 H         1 UNK         0.0600 
    184 H184        1.6581   -7.7294  -44.9781 H         1 UNK         0.3000 
    185 H185        2.2111   -8.9586  -46.6643 H         1 UNK         0.0600 
    186 H186        4.2322   -7.6069  -47.2462 H         1 UNK         0.0600 
    187 H187        5.2841   -8.9655  -46.8626 H         1 UNK         0.0600 
    188 H188        4.1742   -9.0640  -48.2284 H         1 UNK         0.0600 
    189 H189        3.9614  -11.0566  -45.5593 H         1 UNK         0.3000 
    190 H190       -2.4407  -20.8769  -46.6938 H         1 UNK         0.3000 
    191 H191       -4.7577  -21.8386  -47.8931 H         1 UNK         0.0600 
    192 H192       -4.3936  -21.0887  -44.9441 H         1 UNK         0.0600 
    193 H193       -5.8996  -21.0778  -45.8464 H         1 UNK         0.0600 
    194 H194       -4.6360  -19.9309  -46.2456 H         1 UNK         0.0600 
    195 H195       -2.8534  -23.3672  -45.3128 H         1 UNK         0.3000 
    196 H196       -4.5995  -25.3926  -44.5141 H         1 UNK         0.0600 
    197 H197       -2.5239  -26.5057  -43.6803 H         1 UNK         0.0600 
    198 H198       -2.5031  -24.7840  -43.3299 H         1 UNK         0.0600 
    199 H199       -1.5379  -25.4253  -44.6583 H         1 UNK         0.0600 
    200 H200       -2.7181  -25.2382  -47.4832 H         1 UNK         0.3000 
    201 H201       -3.6482  -27.9835  -48.2766 H         1 UNK         0.0600 
    202 H202       -1.1580  -27.8003  -48.0448 H         1 UNK         0.0600 
    203 H203       -1.1479  -26.4374  -49.1611 H         1 UNK         0.0600 
    204 H204       -1.6261  -28.0397  -49.7183 H         1 UNK         0.0600 
    205 H205       -4.3917  -24.8030  -48.6389 H         1 UNK         0.3000 
    206 H206       -5.1555  -23.3682  -50.1351 H         1 UNK         0.0600 
    207 H207       -7.0088  -25.0419  -50.3045 H         1 UNK         0.0600 
    208 H208       -6.7814  -24.1606  -51.8025 H         1 UNK         0.0600 
    209 H209       -6.1938  -25.8137  -51.6621 H         1 UNK         0.0600 
    210 H210       -2.4966  -23.9536  -50.3586 H         1 UNK         0.3000 
    211 H211       -0.6173  -23.9877  -51.5165 H         1 UNK         0.0600 
    212 H212       -2.1206  -22.4310  -53.6680 H         1 UNK         0.0600 
    213 H213       -0.3804  -22.4932  -53.4549 H         1 UNK         0.0600 
    214 H214       -1.3740  -21.7283  -52.2287 H         1 UNK         0.0600 
    215 H215       -1.7714  -26.3295  -51.5861 H         1 UNK         0.3000 
    216 H216       -1.6971  -28.3657  -52.4159 H         1 UNK         0.0600 
    217 H217       -0.1843  -28.9883  -54.2499 H         1 UNK         0.0600 
    218 H218        0.6258  -27.8588  -53.1764 H         1 UNK         0.0600 
    219 H219        0.0069  -27.3113  -54.7339 H         1 UNK         0.0600 
    220 H220       -3.9633  -27.2752  -52.6146 H         1 UNK         0.3000 
    221 H221       -5.9920  -27.3146  -53.4807 H         1 UNK         0.0600 
    222 H222       -4.9635  -29.4809  -55.3808 H         1 UNK         0.0600 
    223 H223       -5.4725  -29.7482  -53.7138 H         1 UNK         0.0600 
    224 H224       -6.6347  -29.2044  -54.9109 H         1 UNK         0.0600 
    225 H225       -4.3148  -25.2636  -54.5196 H         1 UNK         0.3000 
    226 H226       -5.1208  -24.8510  -57.3351 H         1 UNK         0.0600 
    227 H227       -2.7951  -24.2984  -56.5903 H         1 UNK         0.0600 
    228 H228       -3.6506  -22.8680  -57.1470 H         1 UNK         0.0600 
    229 H229       -3.4424  -23.1474  -55.4235 H         1 UNK         0.0600 
    230 H230       -6.4410  -24.3610  -54.2868 H         1 UNK         0.3000 
    231 H231       -8.1637  -23.2675  -53.4035 H         1 UNK         0.0600 
    232 H232       -9.4166  -23.8085  -55.5066 H         1 UNK         0.0600 
    233 H233       -8.9329  -22.2536  -56.1833 H         1 UNK         0.0600 
    234 H234       -9.9531  -22.3150  -54.7557 H         1 UNK         0.0600 
    235 H235       -5.5665  -22.1479  -53.4430 H         1 UNK         0.3000 
    236 H236       -5.6792  -19.2858  -53.8483 H         1 UNK         0.0600 
    237 H237       -3.3843  -19.3807  -52.8873 H         1 UNK         0.0600 
    238 H238       -3.6577  -21.0354  -52.3566 H         1 UNK         0.0600 
    239 H239       -3.5913  -20.6491  -54.0805 H         1 UNK         0.0600 
    240 H240       -4.9640  -17.8084  -52.0823 H         1 UNK         0.3000 
    241 H241       -6.8250  -17.6780  -49.9553 H         1 UNK         0.0600 
    242 H242       -3.8213  -19.4502  -49.9240 H         1 UNK         0.3800 
    243 H243       -3.6751  -19.4978  -48.1773 H         1 UNK         0.3800 
    244 H244       -6.1156  -15.6261  -50.9038 H         1 UNK         0.0800 
    245 H245       -5.4593  -15.6044  -49.3001 H         1 UNK         0.0800 
    246 H246       -2.7445  -14.7600  -49.0715 H         1 UNK         0.0800 
    247 H247       -2.9994  -16.4592  -48.7769 H         1 UNK         0.0800 
@<TRIPOS>BOND
     1    1    2 1    
     2    1  127 1    
     3    1  128 1    
     4    1  129 1    
     5    2    3 2    
     6    2    4 am   BACKBONE|DICT|INTERRES
     7    4    5 1    
     8    4  130 1    
     9    5    6 1    
    10    5   65 1    
    11    5  131 1    
    12    6    7 1    
    13    6  132 1    
    14    6  133 1    
    15    7    8 1    
    16    8    9 1    
    17    8  134 1    
    18    8  135 1    
    19    9   10 ar   
    20    9   14 ar   
    21   10   11 ar   
    22   10  136 1    
    23   11   12 ar   
    24   11  126 1    
    25   12   13 ar   
    26   12  137 1    
    27   13   14 ar   
    28   13   15 1    
    29   14  138 1    
    30   15   16 1    
    31   15  139 1    
    32   15  140 1    
    33   16   17 1    
    34   17   18 1    
    35   17  141 1    
    36   17  142 1    
    37   18   19 1    
    38   18   67 1    
    39   18  143 1    
    40   19   20 am   BACKBONE|DICT|INTERRES
    41   19  144 1    
    42   20   21 2    
    43   20   22 1    
    44   22   23 1    
    45   22   24 1    
    46   22  145 1    
    47   23  146 1    
    48   23  147 1    
    49   23  148 1    
    50   24   25 am   BACKBONE|DICT|INTERRES
    51   24  149 1    
    52   25   26 2    
    53   25   27 1    
    54   27   28 1    
    55   27   29 1    
    56   27  150 1    
    57   28  151 1    
    58   28  152 1    
    59   28  153 1    
    60   29   30 am   BACKBONE|DICT|INTERRES
    61   29  154 1    
    62   30   31 2    
    63   30   32 1    
    64   32   33 1    
    65   32   34 1    
    66   32  155 1    
    67   33  156 1    
    68   33  157 1    
    69   33  158 1    
    70   34   35 am   BACKBONE|DICT|INTERRES
    71   34  159 1    
    72   35   36 2    
    73   35   37 1    
    74   37   38 1    
    75   37   39 1    
    76   37  160 1    
    77   38  161 1    
    78   38  162 1    
    79   38  163 1    
    80   39   40 am   BACKBONE|DICT|INTERRES
    81   39  164 1    
    82   40   41 2    
    83   40   42 1    
    84   42   43 1    
    85   42   44 1    
    86   42  165 1    
    87   43  166 1    
    88   43  167 1    
    89   43  168 1    
    90   44   45 am   BACKBONE|DICT|INTERRES
    91   44  169 1    
    92   45   46 2    
    93   45   47 1    
    94   47   48 1    
    95   47   49 1    
    96   47  170 1    
    97   48  171 1    
    98   48  172 1    
    99   48  173 1    
   100   49   50 am   BACKBONE|DICT|INTERRES
   101   49  174 1    
   102   50   51 2    
   103   50   52 1    
   104   52   53 1    
   105   52   54 1    
   106   52  175 1    
   107   53  176 1    
   108   53  177 1    
   109   53  178 1    
   110   54   55 am   BACKBONE|DICT|INTERRES
   111   54  179 1    
   112   55   56 2    
   113   55   57 1    
   114   57   58 1    
   115   57   59 1    
   116   57  180 1    
   117   58  181 1    
   118   58  182 1    
   119   58  183 1    
   120   59   60 am   BACKBONE|DICT|INTERRES
   121   59  184 1    
   122   60   61 2    
   123   60   62 1    
   124   62   63 1    
   125   62   64 1    
   126   62  185 1    
   127   63  186 1    
   128   63  187 1    
   129   63  188 1    
   130   64   65 am   BACKBONE|DICT|INTERRES
   131   64  189 1    
   132   65   66 2    
   133   67   68 2    
   134   67   69 am   BACKBONE|DICT|INTERRES
   135   69   70 1    
   136   69  190 1    
   137   70   71 1    
   138   70   72 1    
   139   70  191 1    
   140   71  192 1    
   141   71  193 1    
   142   71  194 1    
   143   72   73 2    
   144   72   74 am   BACKBONE|DICT|INTERRES
   145   74   75 1    
   146   74  195 1    
   147   75   76 1    
   148   75   77 1    
   149   75  196 1    
   150   76  197 1    
   151   76  198 1    
   152   76  199 1    
   153   77   78 2    
   154   77   79 am   BACKBONE|DICT|INTERRES
   155   79   80 1    
   156   79  200 1    
   157   80   81 1    
   158   80   82 1    
   159   80  201 1    
   160   81  202 1    
   161   81  203 1    
   162   81  204 1    
   163   82   83 2    
   164   82   84 am   BACKBONE|DICT|INTERRES
   165   84   85 1    
   166   84  205 1    
   167   85   86 1    
   168   85   87 1    
   169   85  206 1    
   170   86  207 1    
   171   86  208 1    
   172   86  209 1    
   173   87   88 2    
   174   87   89 am   BACKBONE|DICT|INTERRES
   175   89   90 1    
   176   89  210 1    
   177   90   91 1    
   178   90   92 1    
   179   90  211 1    
   180   91  212 1    
   181   91  213 1    
   182   91  214 1    
   183   92   93 2    
   184   92   94 am   BACKBONE|DICT|INTERRES
   185   94   95 1    
   186   94  215 1    
   187   95   96 1    
   188   95   97 1    
   189   95  216 1    
   190   96  217 1    
   191   96  218 1    
   192   96  219 1    
   193   97   98 2    
   194   97   99 am   BACKBONE|DICT|INTERRES
   195   99  100 1    
   196   99  220 1    
   197  100  101 1    
   198  100  102 1    
   199  100  221 1    
   200  101  222 1    
   201  101  223 1    
   202  101  224 1    
   203  102  103 2    
   204  102  104 am   BACKBONE|DICT|INTERRES
   205  104  105 1    
   206  104  225 1    
   207  105  106 1    
   208  105  107 1    
   209  105  226 1    
   210  106  227 1    
   211  106  228 1    
   212  106  229 1    
   213  107  108 2    
   214  107  109 am   BACKBONE|DICT|INTERRES
   215  109  110 1    
   216  109  230 1    
   217  110  111 1    
   218  110  112 1    
   219  110  231 1    
   220  111  232 1    
   221  111  233 1    
   222  111  234 1    
   223  112  113 2    
   224  112  114 am   BACKBONE|DICT|INTERRES
   225  114  115 1    
   226  114  235 1    
   227  115  116 1    
   228  115  117 1    
   229  115  236 1    
   230  116  237 1    
   231  116  238 1    
   232  116  239 1    
   233  117  118 2    
   234  117  119 am   BACKBONE|DICT|INTERRES
   235  119  120 1    
   236  119  240 1    
   237  120  121 1    
   238  120  124 1    
   239  120  241 1    
   240  121  122 am   BACKBONE|DICT|INTERRES
   241  121  123 2    
   242  122  242 1    
   243  122  243 1    
   244  124  125 1    
   245  124  244 1    
   246  124  245 1    
   247  125  126 1    
   248  126  246 1    
   249  126  247 1    
@<TRIPOS>SUBSTRUCTURE
     1 UNK         1 GROUP             0       ****    0 ROOT    
