@<TRIPOS>MOLECULE
3R540
247   249    1
SMALL
USER_CHARGES


@<TRIPOS>ATOM
      1 CA         -1.8632  -16.2152  -46.2544 C.3       0 UNK        -0.1800 
      2 C          -1.0967  -15.5194  -47.3687 C.2       0 UNK         0.5000 
      3 O          -1.5697  -14.5139  -47.8990 O.2       0 UNK        -0.5000 
      4 N           0.0729  -16.0616  -47.7333 N.am      1 UNK        -0.5000 
      5 CA          0.9196  -15.6210  -48.8508 C.3       1 UNK         0.1400 
      6 C6          1.9341  -16.7075  -49.3202 C.3       23 UNK        -0.0398 
      7 S7          1.3352  -18.4350  -49.2883 S.3       23 UNK        -0.2404 
      8 C8          0.2988  -18.5423  -50.7807 C.3       23 UNK        -0.0205 
      9 C9         -1.0798  -17.9481  -50.5427 C.ar      23 UNK        -0.0193 
     10 C10        -1.4709  -16.7759  -51.1911 C.ar      23 UNK        -0.1150 
     11 C11        -2.7175  -16.1973  -50.9275 C.ar      23 UNK        -0.0193 
     12 C12        -3.5676  -16.8129  -50.0022 C.ar      23 UNK        -0.1150 
     13 C13        -3.1976  -17.9930  -49.3482 C.ar      23 UNK        -0.0193 
     14 C14        -1.9520  -18.5599  -49.6405 C.ar      23 UNK        -0.1150 
     15 C15        -4.1475  -18.5826  -48.3017 C.3       23 UNK        -0.0205 
     16 S16        -3.9867  -20.3781  -48.0068 S.3       23 UNK        -0.2404 
     17 C17        -2.6213  -20.4305  -46.7902 C.3       23 UNK        -0.0398 
     18 CA         -1.6581  -21.6144  -47.0466 C.3       11 UNK         0.1400 
     19 N          -0.3061  -21.3606  -46.5375 N.am      11 UNK        -0.5000 
     20 C           0.7557  -22.1369  -46.8036 C.2       10 UNK         0.5000 
     21 O           0.7229  -23.0944  -47.5754 O.2       10 UNK        -0.5000 
     22 CA          2.0495  -21.8449  -46.0225 C.3       10 UNK         0.1400 
     23 CB          2.8950  -20.7654  -46.7140 C.3       10 UNK        -0.1800 
     24 N           1.7728  -21.4596  -44.6377 N.am      10 UNK        -0.5000 
     25 C           1.3177  -22.3064  -43.7022 C.2       9 UNK         0.5000 
     26 O           1.1484  -23.5083  -43.9006 O.2       9 UNK        -0.5000 
     27 CA          0.9449  -21.7090  -42.3326 C.3       9 UNK         0.1400 
     28 CB          2.1630  -21.7035  -41.3982 C.3       9 UNK        -0.1800 
     29 N           0.4002  -20.3548  -42.4389 N.am      9 UNK        -0.5000 
     30 C          -0.7772  -20.0563  -43.0125 C.2       8 UNK         0.5000 
     31 O          -1.5478  -20.9040  -43.4626 O.2       8 UNK        -0.5000 
     32 CA         -1.1183  -18.5611  -43.1805 C.3       8 UNK         0.1400 
     33 CB         -1.9031  -18.0441  -41.9677 C.3       8 UNK        -0.1800 
     34 N           0.0771  -17.7389  -43.3835 N.am      8 UNK        -0.5000 
     35 C           0.9086  -17.8827  -44.4243 C.2       7 UNK         0.5000 
     36 O           0.6250  -18.5577  -45.4145 O.2       7 UNK        -0.5000 
     37 CA          2.3023  -17.2313  -44.3375 C.3       7 UNK         0.1400 
     38 CB          2.5284  -16.2497  -45.4916 C.3       7 UNK        -0.1800 
     39 N           2.5992  -16.5628  -43.0687 N.am      7 UNK        -0.5000 
     40 C           2.8346  -17.1821  -41.9031 C.2       6 UNK         0.5000 
     41 O           2.6799  -18.3926  -41.7398 O.2       6 UNK        -0.5000 
     42 CA          3.2934  -16.3063  -40.7260 C.3       6 UNK         0.1400 
     43 CB          4.7950  -16.0007  -40.8393 C.3       6 UNK        -0.1800 
     44 N           2.5489  -15.0484  -40.6890 N.am      6 UNK        -0.5000 
     45 C           1.7714  -14.6418  -39.6759 C.2       5 UNK         0.5000 
     46 O           1.6647  -15.2436  -38.6065 O.2       5 UNK        -0.5000 
     47 CA          0.9519  -13.3513  -39.8977 C.3       5 UNK         0.1400 
     48 CB          1.7067  -12.1337  -39.3433 C.3       5 UNK        -0.1800 
     49 N           0.6197  -13.1055  -41.3036 N.am      5 UNK        -0.5000 
     50 C          -0.1140  -13.9226  -42.0710 C.2       4 UNK         0.5000 
     51 O          -0.6878  -14.9228  -41.6427 O.2       4 UNK        -0.5000 
     52 CA         -0.1810  -13.6169  -43.5788 C.3       4 UNK         0.1400 
     53 CB         -1.5539  -13.0457  -43.9613 C.3       4 UNK        -0.1800 
     54 N           0.8642  -12.7375  -44.1124 N.am      4 UNK        -0.5000 
     55 C           2.1882  -12.9363  -44.0618 C.2       3 UNK         0.5000 
     56 O           2.7185  -13.8025  -43.3629 O.2       3 UNK        -0.5000 
     57 CA          3.0436  -12.0521  -44.9917 C.3       3 UNK         0.1400 
     58 CB          4.5341  -12.4336  -44.9596 C.3       3 UNK        -0.1800 
     59 N           2.5676  -12.1389  -46.3747 N.am      3 UNK        -0.5000 
     60 C           1.5376  -11.4610  -46.8937 C.2       2 UNK         0.5000 
     61 O           0.8713  -10.6501  -46.2491 O.2       2 UNK        -0.5000 
     62 CA          1.1502  -11.7733  -48.3503 C.3       2 UNK         0.1400 
     63 CB          2.2095  -11.2635  -49.3469 C.3       2 UNK        -0.1800 
     64 N           0.8146  -13.1844  -48.5778 N.am      2 UNK        -0.5000 
     65 C           1.6081  -14.2634  -48.5646 C.2       1 UNK         0.5000 
     66 O           2.8150  -14.2163  -48.3186 O.2       1 UNK        -0.5000 
     67 C          -2.2325  -22.9384  -46.4980 C.2       11 UNK         0.5000 
     68 O          -2.7951  -23.7201  -47.2647 O.2       11 UNK        -0.5000 
     69 N          -2.0422  -23.1914  -45.1945 N.am      12 UNK        -0.5000 
     70 CA         -2.4322  -24.4346  -44.5266 C.3       12 UNK         0.1400 
     71 CB         -2.2393  -24.2961  -43.0097 C.3       12 UNK        -0.1800 
     72 C          -1.6803  -25.6636  -45.0713 C.2       12 UNK         0.5000 
     73 O          -2.3080  -26.6939  -45.3140 O.2       12 UNK        -0.5000 
     74 N          -0.3690  -25.5212  -45.3146 N.am      13 UNK        -0.5000 
     75 CA          0.4792  -26.5354  -45.9500 C.3       13 UNK         0.1400 
     76 CB          1.9485  -26.0939  -45.8814 C.3       13 UNK        -0.1800 
     77 C           0.0702  -26.8426  -47.4049 C.2       13 UNK         0.5000 
     78 O           0.1851  -27.9888  -47.8392 O.2       13 UNK        -0.5000 
     79 N          -0.4462  -25.8284  -48.1121 N.am      14 UNK        -0.5000 
     80 CA         -1.0443  -25.9380  -49.4445 C.3       14 UNK         0.1400 
     81 CB         -0.9709  -24.5658  -50.1372 C.3       14 UNK        -0.1800 
     82 C          -2.4939  -26.4756  -49.4264 C.2       14 UNK         0.5000 
     83 O          -3.1062  -26.5668  -50.4901 O.2       14 UNK        -0.5000 
     84 N          -3.0211  -26.8145  -48.2393 N.am      15 UNK        -0.5000 
     85 CA         -4.3653  -27.3336  -47.9692 C.3       15 UNK         0.1400 
     86 CB         -4.5839  -28.7010  -48.6513 C.3       15 UNK        -0.1800 
     87 C          -5.4780  -26.3100  -48.2734 C.2       15 UNK         0.5000 
     88 O          -6.5387  -26.6841  -48.7771 O.2       15 UNK        -0.5000 
     89 N          -5.2119  -25.0364  -47.9440 N.am      16 UNK        -0.5000 
     90 CA         -6.0819  -23.8701  -48.1221 C.3       16 UNK         0.1400 
     91 CB         -7.3463  -23.9776  -47.2442 C.3       16 UNK        -0.1800 
     92 C          -6.3840  -23.5909  -49.6074 C.2       16 UNK         0.5000 
     93 O          -7.5362  -23.3624  -49.9801 O.2       16 UNK        -0.5000 
     94 N          -5.3252  -23.6277  -50.4293 N.am      17 UNK        -0.5000 
     95 CA         -5.3621  -23.4051  -51.8773 C.3       17 UNK         0.1400 
     96 CB         -3.9633  -23.6671  -52.4533 C.3       17 UNK        -0.1800 
     97 C          -5.8484  -22.0013  -52.2836 C.2       17 UNK         0.5000 
     98 O          -6.4713  -21.8611  -53.3377 O.2       17 UNK        -0.5000 
     99 N          -5.5594  -20.9986  -51.4395 N.am      18 UNK        -0.5000 
    100 CA        -5.9420  -19.5928  -51.5817 C.3       18 UNK         0.1400 
    101 CB        -7.4464  -19.4184  -51.2803 C.3       18 UNK        -0.1800 
    102 C         -5.4898  -19.0139  -52.9356 C.2       18 UNK         0.5000 
    103 O         -4.2902  -19.0158  -53.2127 O.2       18 UNK        -0.5000 
    104 N         -6.4409  -18.5748  -53.7710 N.am      19 UNK        -0.5000 
    105 CA        -6.2217  -18.0052  -55.1029 C.3       19 UNK         0.1400 
    106 CB        -7.5795  -17.6390  -55.7195 C.3       19 UNK        -0.1800 
    107 C         -5.4203  -18.9039  -56.0660 C.2       19 UNK         0.5000 
    108 O         -4.7017  -18.3754  -56.9151 O.2       19 UNK        -0.5000 
    109 N         -5.5156  -20.2319  -55.8993 N.am      20 UNK        -0.5000 
    110 CA        -4.7538  -21.2093  -56.6801 C.3       20 UNK         0.1400 
    111 CB        -5.3476  -22.6106  -56.4730 C.3       20 UNK        -0.1800 
    112 C         -3.2452  -21.1998  -56.3605 C.2       20 UNK         0.5000 
    113 O         -2.4487  -21.5498  -57.2322 O.2       20 UNK        -0.5000 
    114 N         -2.8781  -20.7867  -55.1391 N.am      21 UNK        -0.5000 
    115 CA        -1.4921  -20.5615  -54.7305 C.3       21 UNK         0.1400 
    116 CB        -1.3121  -20.9850  -53.2659 C.3       21 UNK        -0.1800 
    117 C         -1.0851  -19.0911  -54.9298 C.2       21 UNK         0.5000 
    118 O          0.0583  -18.8291  -55.3049 O.2       21 UNK        -0.5000 
    119 N         -2.0210  -18.1646  -54.6808 N.am      22 UNK        -0.5000 
    120 CA        -1.8413  -16.7147  -54.8490 C.3       22 UNK         0.1400 
    121 C         -1.5987  -16.2669  -56.3189 C.2       22 UNK         0.5000 
    122 N         -2.2700  -16.8597  -57.2991 N.am      22 UNK        -0.7600 
    123 O         -0.7906  -15.3782  -56.5733 O.2       22 UNK        -0.5000 
    124 C124       -3.0082  -15.9123  -54.2055 C.3       23 UNK        -0.0398 
    125 S125       -2.4198  -14.5073  -53.2029 S.3       23 UNK        -0.2404 
    126 C126       -3.1586  -14.8817  -51.5718 C.3       23 UNK        -0.0205 
    127 H127       -1.6031  -15.7957  -45.2849 H         1 UNK         0.0600 
    128 H128       -1.6465  -17.2817  -46.2386 H         1 UNK         0.0600 
    129 H129       -2.9360  -16.0919  -46.4004 H         1 UNK         0.0600 
    130 H130        0.3815  -16.9098  -47.2767 H         1 UNK         0.3000 
    131 H131        0.2548  -15.4364  -49.6937 H         1 UNK         0.0600 
    132 H132        2.8301  -16.7016  -48.6989 H         1 UNK         0.0800 
    133 H133        2.2826  -16.4767  -50.3280 H         1 UNK         0.0800 
    134 H134        0.8009  -18.0669  -51.6246 H         1 UNK         0.0800 
    135 H135        0.1859  -19.5946  -51.0390 H         1 UNK         0.0800 
    136 H136       -0.7848  -16.3004  -51.8757 H         1 UNK         0.1150 
    137 H137       -4.5200  -16.3558  -49.7728 H         1 UNK         0.1150 
    138 H138       -1.6255  -19.4615  -49.1474 H         1 UNK         0.1150 
    139 H139       -4.0125  -18.0514  -47.3596 H         1 UNK         0.0800 
    140 H140       -5.1788  -18.3924  -48.6009 H         1 UNK         0.0800 
    141 H141       -3.0372  -20.4557  -45.7813 H         1 UNK         0.0800 
    142 H142       -2.0679  -19.4940  -46.8536 H         1 UNK         0.0800 
    143 H143       -1.5529  -21.7350  -48.1272 H         1 UNK         0.0600 
    144 H144       -0.1817  -20.5683  -45.9198 H         1 UNK         0.3000 
    145 H145        2.6389  -22.7639  -46.0057 H         1 UNK         0.0600 
    146 H146        3.1469  -21.0647  -47.7321 H         1 UNK         0.0600 
    147 H147        2.3717  -19.8131  -46.7791 H         1 UNK         0.0600 
    148 H148        3.8320  -20.5973  -46.1832 H         1 UNK         0.0600 
    149 H149        1.8492  -20.4797  -44.4123 H         1 UNK         0.3000 
    150 H150        0.1787  -22.3456  -41.8862 H         1 UNK         0.0600 
    151 H151        2.5450  -22.7145  -41.2511 H         1 UNK         0.0600 
    152 H152        1.9063  -21.3062  -40.4160 H         1 UNK         0.0600 
    153 H153        2.9780  -21.1012  -41.8011 H         1 UNK         0.0600 
    154 H154        0.9994  -19.6032  -42.1148 H         1 UNK         0.3000 
    155 H155       -1.7539  -18.4668  -44.0629 H         1 UNK         0.0600 
    156 H156       -1.2899  -18.0294  -41.0658 H         1 UNK         0.0600 
    157 H157       -2.2705  -17.0330  -42.1418 H         1 UNK         0.0600 
    158 H158       -2.7724  -18.6716  -41.7664 H         1 UNK         0.0600 
    159 H159        0.3607  -17.1502  -42.6131 H         1 UNK         0.3000 
    160 H160        3.0266  -18.0403  -44.4528 H         1 UNK         0.0600 
    161 H161        1.7714  -15.4666  -45.5143 H         1 UNK         0.0600 
    162 H162        2.4938  -16.7751  -46.4438 H         1 UNK         0.0600 
    163 H163        3.5064  -15.7729  -45.4267 H         1 UNK         0.0600 
    164 H164        2.7334  -15.5556  -43.1281 H         1 UNK         0.3000 
    165 H165        3.1301  -16.8810  -39.8121 H         1 UNK         0.0600 
    166 H166        5.1453  -15.4343  -39.9763 H         1 UNK         0.0600 
    167 H167        5.3796  -16.9205  -40.8844 H         1 UNK         0.0600 
    168 H168        5.0226  -15.4200  -41.7344 H         1 UNK         0.0600 
    169 H169        2.5715  -14.4853  -41.5333 H         1 UNK         0.3000 
    170 H170        0.0153  -13.4571  -39.3464 H         1 UNK         0.0600 
    171 H171        1.9486  -12.2711  -38.2885 H         1 UNK         0.0600 
    172 H172        2.6436  -11.9650  -39.8759 H         1 UNK         0.0600 
    173 H173        1.1063  -11.2271  -39.4222 H         1 UNK         0.0600 
    174 H174        1.0623  -12.3124  -41.7437 H         1 UNK         0.3000 
    175 H175       -0.0619  -14.5761  -44.0836 H         1 UNK         0.0600 
    176 H176       -1.7120  -12.0584  -43.5257 H         1 UNK         0.0600 
    177 H177       -1.6563  -12.9568  -45.0434 H         1 UNK         0.0600 
    178 H178       -2.3605  -13.6927  -43.6136 H         1 UNK         0.0600 
    179 H179        0.5450  -11.9804  -44.7073 H         1 UNK         0.3000 
    180 H180        2.9518  -11.0223  -44.6406 H         1 UNK         0.0600 
    181 H181        4.6948  -13.4574  -45.2998 H         1 UNK         0.0600 
    182 H182        4.9383  -12.3542  -43.9496 H         1 UNK         0.0600 
    183 H183        5.1228  -11.7734  -45.5967 H         1 UNK         0.0600 
    184 H184        2.9936  -12.8502  -46.9627 H         1 UNK         0.3000 
    185 H185        0.2304  -11.2218  -48.5518 H         1 UNK         0.0600 
    186 H186        2.3672  -10.1909  -49.2281 H         1 UNK         0.0600 
    187 H187        3.1758  -11.7490  -49.2092 H         1 UNK         0.0600 
    188 H188        1.8938  -11.4328  -50.3764 H         1 UNK         0.0600 
    189 H189       -0.1812  -13.3777  -48.6503 H         1 UNK         0.3000 
    190 H190       -1.6286  -22.4703  -44.6107 H         1 UNK         0.3000 
    191 H191       -3.4967  -24.5880  -44.7167 H         1 UNK         0.0600 
    192 H192       -1.1906  -24.1665  -42.7451 H         1 UNK         0.0600 
    193 H193       -2.5992  -25.1847  -42.4899 H         1 UNK         0.0600 
    194 H194       -2.7922  -23.4424  -42.6171 H         1 UNK         0.0600 
    195 H195        0.0921  -24.6644  -45.0213 H         1 UNK         0.3000 
    196 H196        0.3757  -27.4592  -45.3773 H         1 UNK         0.0600 
    197 H197        2.6043  -26.8515  -46.3122 H         1 UNK         0.0600 
    198 H198        2.2660  -25.9372  -44.8504 H         1 UNK         0.0600 
    199 H199        2.1155  -25.1663  -46.4285 H         1 UNK         0.0600 
    200 H200       -0.4499  -24.9041  -47.6963 H         1 UNK         0.3000 
    201 H201       -0.4510  -26.6406  -50.0330 H         1 UNK         0.0600 
    202 H202        0.0508  -24.1859  -50.1533 H         1 UNK         0.0600 
    203 H203       -1.5941  -23.8248  -49.6374 H         1 UNK         0.0600 
    204 H204       -1.3052  -24.6314  -51.1729 H         1 UNK         0.0600 
    205 H205       -2.4494  -26.6799  -47.4139 H         1 UNK         0.3000 
    206 H206       -4.4087  -27.5031  -46.8927 H         1 UNK         0.0600 
    207 H207       -5.5183  -29.1561  -48.3211 H         1 UNK         0.0600 
    208 H208       -4.6317  -28.6125  -49.7369 H         1 UNK         0.0600 
    209 H209       -3.7813  -29.3964  -48.4056 H         1 UNK         0.0600 
    210 H210       -4.2823  -24.8159  -47.5931 H         1 UNK         0.3000 
    211 H211       -5.5135  -23.0119  -47.7624 H         1 UNK         0.0600 
    212 H212       -8.0024  -24.7852  -47.5696 H         1 UNK         0.0600 
    213 H213       -7.9243  -23.0535  -47.2814 H         1 UNK         0.0600 
    214 H214       -7.0866  -24.1552  -46.2007 H         1 UNK         0.0600 
    215 H215       -4.4272  -23.8647  -50.0337 H         1 UNK         0.3000 
    216 H216       -6.0554  -24.1286  -52.3109 H         1 UNK         0.0600 
    217 H217       -3.2091  -23.0683  -51.9432 H         1 UNK         0.0600 
    218 H218       -3.9141  -23.4250  -53.5153 H         1 UNK         0.0600 
    219 H219       -3.6857  -24.7155  -52.3497 H         1 UNK         0.0600 
    220 H220       -5.0136  -21.2196  -50.6192 H         1 UNK         0.3000 
    221 H221       -5.3865  -19.0413  -50.8271 H         1 UNK         0.0600 
    222 H222       -8.0745  -19.9651  -51.9847 H         1 UNK         0.0600 
    223 H223       -7.6832  -19.7848  -50.2812 H         1 UNK         0.0600 
    224 H224       -7.7381  -18.3678  -51.3112 H         1 UNK         0.0600 
    225 H225       -7.4023  -18.6501  -53.4726 H         1 UNK         0.3000 
    226 H226       -5.6522  -17.0844  -54.9713 H         1 UNK         0.0600 
    227 H227       -8.1140  -16.9189  -55.0997 H         1 UNK         0.0600 
    228 H228       -7.4530  -17.1864  -56.7041 H         1 UNK         0.0600 
    229 H229       -8.2154  -18.5169  -55.8408 H         1 UNK         0.0600 
    230 H230       -6.0919  -20.5960  -55.1493 H         1 UNK         0.3000 
    231 H231       -4.8642  -20.9532  -57.7360 H         1 UNK         0.0600 
    232 H232       -4.8410  -23.3445  -57.1009 H         1 UNK         0.0600 
    233 H233       -6.4056  -22.6343  -56.7345 H         1 UNK         0.0600 
    234 H234       -5.2500  -22.9431  -55.4405 H         1 UNK         0.0600 
    235 H235       -3.5921  -20.4660  -54.4956 H         1 UNK         0.3000 
    236 H236       -0.8204  -21.1756  -55.3341 H         1 UNK         0.0600 
    237 H237       -1.5185  -22.0467  -53.1411 H         1 UNK         0.0600 
    238 H238       -0.2834  -20.8229  -52.9446 H         1 UNK         0.0600 
    239 H239       -1.9655  -20.4273  -52.5933 H         1 UNK         0.0600 
    240 H240       -2.9093  -18.4685  -54.2923 H         1 UNK         0.3000 
    241 H241       -0.9225  -16.4798  -54.3083 H         1 UNK         0.0600 
    242 H242       -2.9973  -17.5420  -57.1027 H         1 UNK         0.3800 
    243 H243       -2.1066  -16.5736  -58.2510 H         1 UNK         0.3800 
    244 H244       -3.7106  -15.5375  -54.9523 H         1 UNK         0.0800 
    245 H245       -3.6050  -16.5539  -53.5593 H         1 UNK         0.0800 
    246 H246       -4.2442  -14.8694  -51.6807 H         1 UNK         0.0800 
    247 H247       -2.9087  -14.0705  -50.8868 H         1 UNK         0.0800 
@<TRIPOS>BOND
     1    1    2 1    
     2    1  127 1    
     3    1  128 1    
     4    1  129 1    
     5    2    3 2    
     6    2    4 am   BACKBONE|DICT|INTERRES
     7    4    5 1    
     8    4  130 1    
     9    5    6 1    
    10    5   65 1    
    11    5  131 1    
    12    6    7 1    
    13    6  132 1    
    14    6  133 1    
    15    7    8 1    
    16    8    9 1    
    17    8  134 1    
    18    8  135 1    
    19    9   10 ar   
    20    9   14 ar   
    21   10   11 ar   
    22   10  136 1    
    23   11   12 ar   
    24   11  126 1    
    25   12   13 ar   
    26   12  137 1    
    27   13   14 ar   
    28   13   15 1    
    29   14  138 1    
    30   15   16 1    
    31   15  139 1    
    32   15  140 1    
    33   16   17 1    
    34   17   18 1    
    35   17  141 1    
    36   17  142 1    
    37   18   19 1    
    38   18   67 1    
    39   18  143 1    
    40   19   20 am   BACKBONE|DICT|INTERRES
    41   19  144 1    
    42   20   21 2    
    43   20   22 1    
    44   22   23 1    
    45   22   24 1    
    46   22  145 1    
    47   23  146 1    
    48   23  147 1    
    49   23  148 1    
    50   24   25 am   BACKBONE|DICT|INTERRES
    51   24  149 1    
    52   25   26 2    
    53   25   27 1    
    54   27   28 1    
    55   27   29 1    
    56   27  150 1    
    57   28  151 1    
    58   28  152 1    
    59   28  153 1    
    60   29   30 am   BACKBONE|DICT|INTERRES
    61   29  154 1    
    62   30   31 2    
    63   30   32 1    
    64   32   33 1    
    65   32   34 1    
    66   32  155 1    
    67   33  156 1    
    68   33  157 1    
    69   33  158 1    
    70   34   35 am   BACKBONE|DICT|INTERRES
    71   34  159 1    
    72   35   36 2    
    73   35   37 1    
    74   37   38 1    
    75   37   39 1    
    76   37  160 1    
    77   38  161 1    
    78   38  162 1    
    79   38  163 1    
    80   39   40 am   BACKBONE|DICT|INTERRES
    81   39  164 1    
    82   40   41 2    
    83   40   42 1    
    84   42   43 1    
    85   42   44 1    
    86   42  165 1    
    87   43  166 1    
    88   43  167 1    
    89   43  168 1    
    90   44   45 am   BACKBONE|DICT|INTERRES
    91   44  169 1    
    92   45   46 2    
    93   45   47 1    
    94   47   48 1    
    95   47   49 1    
    96   47  170 1    
    97   48  171 1    
    98   48  172 1    
    99   48  173 1    
   100   49   50 am   BACKBONE|DICT|INTERRES
   101   49  174 1    
   102   50   51 2    
   103   50   52 1    
   104   52   53 1    
   105   52   54 1    
   106   52  175 1    
   107   53  176 1    
   108   53  177 1    
   109   53  178 1    
   110   54   55 am   BACKBONE|DICT|INTERRES
   111   54  179 1    
   112   55   56 2    
   113   55   57 1    
   114   57   58 1    
   115   57   59 1    
   116   57  180 1    
   117   58  181 1    
   118   58  182 1    
   119   58  183 1    
   120   59   60 am   BACKBONE|DICT|INTERRES
   121   59  184 1    
   122   60   61 2    
   123   60   62 1    
   124   62   63 1    
   125   62   64 1    
   126   62  185 1    
   127   63  186 1    
   128   63  187 1    
   129   63  188 1    
   130   64   65 am   BACKBONE|DICT|INTERRES
   131   64  189 1    
   132   65   66 2    
   133   67   68 2    
   134   67   69 am   BACKBONE|DICT|INTERRES
   135   69   70 1    
   136   69  190 1    
   137   70   71 1    
   138   70   72 1    
   139   70  191 1    
   140   71  192 1    
   141   71  193 1    
   142   71  194 1    
   143   72   73 2    
   144   72   74 am   BACKBONE|DICT|INTERRES
   145   74   75 1    
   146   74  195 1    
   147   75   76 1    
   148   75   77 1    
   149   75  196 1    
   150   76  197 1    
   151   76  198 1    
   152   76  199 1    
   153   77   78 2    
   154   77   79 am   BACKBONE|DICT|INTERRES
   155   79   80 1    
   156   79  200 1    
   157   80   81 1    
   158   80   82 1    
   159   80  201 1    
   160   81  202 1    
   161   81  203 1    
   162   81  204 1    
   163   82   83 2    
   164   82   84 am   BACKBONE|DICT|INTERRES
   165   84   85 1    
   166   84  205 1    
   167   85   86 1    
   168   85   87 1    
   169   85  206 1    
   170   86  207 1    
   171   86  208 1    
   172   86  209 1    
   173   87   88 2    
   174   87   89 am   BACKBONE|DICT|INTERRES
   175   89   90 1    
   176   89  210 1    
   177   90   91 1    
   178   90   92 1    
   179   90  211 1    
   180   91  212 1    
   181   91  213 1    
   182   91  214 1    
   183   92   93 2    
   184   92   94 am   BACKBONE|DICT|INTERRES
   185   94   95 1    
   186   94  215 1    
   187   95   96 1    
   188   95   97 1    
   189   95  216 1    
   190   96  217 1    
   191   96  218 1    
   192   96  219 1    
   193   97   98 2    
   194   97   99 am   BACKBONE|DICT|INTERRES
   195   99  100 1    
   196   99  220 1    
   197  100  101 1    
   198  100  102 1    
   199  100  221 1    
   200  101  222 1    
   201  101  223 1    
   202  101  224 1    
   203  102  103 2    
   204  102  104 am   BACKBONE|DICT|INTERRES
   205  104  105 1    
   206  104  225 1    
   207  105  106 1    
   208  105  107 1    
   209  105  226 1    
   210  106  227 1    
   211  106  228 1    
   212  106  229 1    
   213  107  108 2    
   214  107  109 am   BACKBONE|DICT|INTERRES
   215  109  110 1    
   216  109  230 1    
   217  110  111 1    
   218  110  112 1    
   219  110  231 1    
   220  111  232 1    
   221  111  233 1    
   222  111  234 1    
   223  112  113 2    
   224  112  114 am   BACKBONE|DICT|INTERRES
   225  114  115 1    
   226  114  235 1    
   227  115  116 1    
   228  115  117 1    
   229  115  236 1    
   230  116  237 1    
   231  116  238 1    
   232  116  239 1    
   233  117  118 2    
   234  117  119 am   BACKBONE|DICT|INTERRES
   235  119  120 1    
   236  119  240 1    
   237  120  121 1    
   238  120  124 1    
   239  120  241 1    
   240  121  122 am   BACKBONE|DICT|INTERRES
   241  121  123 2    
   242  122  242 1    
   243  122  243 1    
   244  124  125 1    
   245  124  244 1    
   246  124  245 1    
   247  125  126 1    
   248  126  246 1    
   249  126  247 1    
@<TRIPOS>SUBSTRUCTURE
     1 UNK         1 GROUP             0       ****    0 ROOT    
