@<TRIPOS>MOLECULE
3R540
247   249    1
SMALL
USER_CHARGES


@<TRIPOS>ATOM
      1 CA         -0.5049  -14.8807  -50.6352 C.3       0 UNK        -0.1800 
      2 C          -0.4636  -14.5211  -49.1570 C.2       0 UNK         0.5000 
      3 O           0.6189  -14.4631  -48.5700 O.2       0 UNK        -0.5000 
      4 N          -1.6334  -14.2515  -48.5610 N.am      1 UNK        -0.5000 
      5 CA         -1.8585  -13.9424  -47.1394 C.3       1 UNK         0.1400 
      6 C6         -3.3413  -14.1575  -46.7385 C.3       23 UNK        -0.0398 
      7 S7         -3.8154  -15.9108  -46.8584 S.3       23 UNK        -0.2404 
      8 C8         -5.1815  -15.8948  -48.0657 C.3       23 UNK        -0.0205 
      9 C9         -5.7099  -17.2912  -48.3987 C.ar      23 UNK        -0.0193 
     10 C10        -6.1234  -17.5809  -49.7028 C.ar      23 UNK        -0.1150 
     11 C11        -6.6362  -18.8432  -50.0386 C.ar      23 UNK        -0.0193 
     12 C12        -6.7077  -19.8254  -49.0452 C.ar      23 UNK        -0.1150 
     13 C13        -6.2750  -19.5636  -47.7417 C.ar      23 UNK        -0.0193 
     14 C14        -5.8036  -18.2891  -47.4217 C.ar      23 UNK        -0.1150 
     15 C15        -6.2987  -20.6544  -46.6788 C.3       23 UNK        -0.0205 
     16 S16        -5.2005  -22.0366  -47.1290 S.3       23 UNK        -0.2404 
     17 C17        -4.6655  -22.6933  -45.5124 C.3       23 UNK        -0.0398 
     18 CA         -3.1200  -22.6742  -45.3605 C.3       11 UNK         0.1400 
     19 N          -2.6545  -22.7189  -43.9706 N.am      11 UNK        -0.5000 
     20 C          -2.9464  -23.6206  -43.0227 C.2       10 UNK         0.5000 
     21 O          -3.7310  -24.5542  -43.1925 O.2       10 UNK        -0.5000 
     22 CA         -2.2089  -23.4890  -41.6789 C.3       10 UNK         0.1400 
     23 CB         -0.9149  -24.3158  -41.7138 C.3       10 UNK        -0.1800 
     24 N          -1.8666  -22.0982  -41.3777 N.am      10 UNK        -0.5000 
     25 C          -2.4497  -21.3501  -40.4308 C.2       9 UNK         0.5000 
     26 O          -3.3199  -21.7677  -39.6657 O.2       9 UNK        -0.5000 
     27 CA         -1.9925  -19.8798  -40.3186 C.3       9 UNK         0.1400 
     28 CB         -0.8625  -19.7449  -39.2869 C.3       9 UNK        -0.1800 
     29 N          -1.5403  -19.3134  -41.5897 N.am      9 UNK        -0.5000 
     30 C          -2.3171  -19.1248  -42.6652 C.2       8 UNK         0.5000 
     31 O          -3.5316  -19.3252  -42.6739 O.2       8 UNK        -0.5000 
     32 CA         -1.6215  -18.6728  -43.9632 C.3       8 UNK         0.1400 
     33 CB         -1.8042  -17.1619  -44.1609 C.3       8 UNK        -0.1800 
     34 N          -0.1940  -18.9998  -44.0510 N.am      8 UNK        -0.5000 
     35 C           0.3438  -20.2253  -43.9637 C.2       7 UNK         0.5000 
     36 O          -0.3130  -21.2480  -43.7721 O.2       7 UNK        -0.5000 
     37 CA          1.8734  -20.3214  -44.0641 C.3       7 UNK         0.1400 
     38 CB          2.3024  -20.5033  -45.5285 C.3       7 UNK        -0.1800 
     39 N           2.5257  -19.1437  -43.4883 N.am      7 UNK        -0.5000 
     40 C           2.6913  -18.9451  -42.1713 C.2       6 UNK         0.5000 
     41 O           2.3561  -19.7617  -41.3132 O.2       6 UNK        -0.5000 
     42 CA          3.3155  -17.6046  -41.7342 C.3       6 UNK         0.1400 
     43 CB          4.8482  -17.7043  -41.7180 C.3       6 UNK        -0.1800 
     44 N           2.9155  -16.4871  -42.5902 N.am      6 UNK        -0.5000 
     45 C           1.6826  -15.9615  -42.6276 C.2       5 UNK         0.5000 
     46 O           0.7761  -16.3038  -41.8690 O.2       5 UNK        -0.5000 
     47 CA          1.4020  -14.9065  -43.7206 C.3       5 UNK         0.1400 
     48 CB          1.5307  -13.4862  -43.1522 C.3       5 UNK        -0.1800 
     49 N           2.2584  -15.0279  -44.9058 N.am      5 UNK        -0.5000 
     50 C           2.3254  -16.1051  -45.7016 C.2       4 UNK         0.5000 
     51 O           1.6607  -17.1243  -45.5084 O.2       4 UNK        -0.5000 
     52 CA          3.3209  -16.0309  -46.8721 C.3       4 UNK         0.1400 
     53 CB          3.0717  -17.1171  -47.9304 C.3       4 UNK        -0.1800 
     54 N           3.2406  -14.7200  -47.5096 N.am      4 UNK        -0.5000 
     55 C           4.2398  -13.8362  -47.6168 C.2       3 UNK         0.5000 
     56 O           5.3747  -14.0230  -47.1771 O.2       3 UNK        -0.5000 
     57 CA          3.9065  -12.5077  -48.3198 C.3       3 UNK         0.1400 
     58 CB          4.0196  -12.6640  -49.8442 C.3       3 UNK        -0.1800 
     59 N           2.5677  -12.0183  -47.9877 N.am      3 UNK        -0.5000 
     60 C           2.2179  -11.4892  -46.8059 C.2       2 UNK         0.5000 
     61 O           2.9959  -11.3298  -45.8657 O.2       2 UNK        -0.5000 
     62 CA          0.7354  -11.1334  -46.6380 C.3       2 UNK         0.1400 
     63 CB          0.3477   -9.9063  -47.4840 C.3       2 UNK        -0.1800 
     64 N          -0.0541  -12.3014  -47.0063 N.am      2 UNK        -0.5000 
     65 C          -1.3351  -12.5434  -46.7283 C.2       1 UNK         0.5000 
     66 O          -2.0745  -11.7323  -46.1683 O.2       1 UNK        -0.5000 
     67 C          -2.4200  -23.7467  -46.2238 C.2       11 UNK         0.5000 
     68 O          -1.7737  -23.4068  -47.2165 O.2       11 UNK        -0.5000 
     69 N          -2.5140  -25.0125  -45.7963 N.am      12 UNK        -0.5000 
     70 CA         -1.9500  -26.1987  -46.4471 C.3       12 UNK         0.1400 
     71 CB         -2.5904  -27.4454  -45.8165 C.3       12 UNK        -0.1800 
     72 C          -0.4100  -26.2920  -46.3933 C.2       12 UNK         0.5000 
     73 O           0.1636  -27.1696  -47.0391 O.2       12 UNK        -0.5000 
     74 N           0.2376  -25.3914  -45.6405 N.am      13 UNK        -0.5000 
     75 CA          1.6935  -25.2342  -45.5713 C.3       13 UNK         0.1400 
     76 CB          2.0346  -24.3426  -44.3674 C.3       13 UNK        -0.1800 
     77 C           2.3186  -24.6676  -46.8654 C.2       13 UNK         0.5000 
     78 O           3.5372  -24.7392  -47.0286 O.2       13 UNK        -0.5000 
     79 N           1.4839  -24.1239  -47.7570 N.am      14 UNK        -0.5000 
     80 CA          1.8373  -23.6377  -49.0846 C.3       14 UNK         0.1400 
     81 CB          2.1383  -22.1304  -48.9988 C.3       14 UNK        -0.1800 
     82 C           0.6850  -23.9713  -50.0508 C.2       14 UNK         0.5000 
     83 O          -0.2449  -24.6893  -49.6719 O.2       14 UNK        -0.5000 
     84 N           0.7456  -23.4471  -51.2833 N.am      15 UNK        -0.5000 
     85 CA         -0.2674  -23.6135  -52.3347 C.3       15 UNK         0.1400 
     86 CB          0.3626  -23.2425  -53.6897 C.3       15 UNK        -0.1800 
     87 C          -1.5471  -22.7990  -52.0425 C.2       15 UNK         0.5000 
     88 O          -1.8567  -21.8514  -52.7687 O.2       15 UNK        -0.5000 
     89 N          -2.2254  -23.1589  -50.9443 N.am      16 UNK        -0.5000 
     90 CA         -3.3253  -22.4509  -50.2857 C.3       16 UNK         0.1400 
     91 CB         -4.5758  -22.3902  -51.1801 C.3       16 UNK        -0.1800 
     92 C          -2.8498  -21.0623  -49.8322 C.2       16 UNK         0.5000 
     93 O          -3.1951  -20.0549  -50.4481 O.2       16 UNK        -0.5000 
     94 N          -1.9642  -21.0570  -48.8251 N.am      17 UNK        -0.5000 
     95 CA         -1.3014  -19.8756  -48.2576 C.3       17 UNK         0.1400 
     96 CB         -2.3369  -18.9766  -47.5635 C.3       17 UNK        -0.1800 
     97 C          -0.4594  -19.0897  -49.2879 C.2       17 UNK         0.5000 
     98 O          -0.2816  -17.8827  -49.1432 O.2       17 UNK        -0.5000 
     99 N           0.0181  -19.7978  -50.3227 N.am      18 UNK        -0.5000 
    100 CA         0.7459  -19.2984  -51.4931 C.3       18 UNK         0.1400 
    101 CB         2.0779  -18.6345  -51.0872 C.3       18 UNK        -0.1800 
    102 C         -0.1024  -18.4009  -52.4210 C.2       18 UNK         0.5000 
    103 O          0.4639  -17.6820  -53.2454 O.2       18 UNK        -0.5000 
    104 N         -1.4379  -18.4794  -52.3165 N.am      19 UNK        -0.5000 
    105 CA        -2.3795  -17.7663  -53.1836 C.3       19 UNK         0.1400 
    106 CB        -3.7071  -17.5757  -52.4345 C.3       19 UNK        -0.1800 
    107 C         -2.6094  -18.4741  -54.5360 C.2       19 UNK         0.5000 
    108 O         -3.3822  -17.9670  -55.3491 O.2       19 UNK        -0.5000 
    109 N         -1.9653  -19.6339  -54.7439 N.am      20 UNK        -0.5000 
    110 CA        -2.0436  -20.5133  -55.9142 C.3       20 UNK         0.1400 
    111 CB        -1.5170  -19.8099  -57.1824 C.3       20 UNK        -0.1800 
    112 C         -3.4611  -21.0882  -56.0722 C.2       20 UNK         0.5000 
    113 O         -4.1025  -20.9105  -57.1106 O.2       20 UNK        -0.5000 
    114 N         -3.9476  -21.7058  -54.9844 N.am      21 UNK        -0.5000 
    115 CA        -5.2957  -22.2699  -54.8170 C.3       21 UNK         0.1400 
    116 CB        -5.5242  -23.4379  -55.7993 C.3       21 UNK        -0.1800 
    117 C         -6.4274  -21.2184  -54.8856 C.2       21 UNK         0.5000 
    118 O         -7.5910  -21.5945  -55.0331 O.2       21 UNK        -0.5000 
    119 N         -6.0694  -19.9274  -54.7999 N.am      22 UNK        -0.5000 
    120 CA        -6.9266  -18.7674  -55.0974 C.3       22 UNK         0.1400 
    121 C         -7.3969  -18.7058  -56.5873 C.2       22 UNK         0.5000 
    122 N         -6.6979  -19.3354  -57.5270 N.am      22 UNK        -0.7600 
    123 O         -8.3867  -18.0551  -56.9119 O.2       22 UNK        -0.5000 
    124 C124       -8.0723  -18.5765  -54.0577 C.3       23 UNK        -0.0398 
    125 S125       -7.4874  -17.7774  -52.5258 S.3       23 UNK        -0.2404 
    126 C126       -7.0894  -19.2040  -51.4573 C.3       23 UNK        -0.0205 
    127 H127        0.1682  -15.7141  -50.8352 H         1 UNK         0.0600 
    128 H128       -1.5060  -15.1757  -50.9506 H         1 UNK         0.0600 
    129 H129       -0.1853  -14.0316  -51.2388 H         1 UNK         0.0600 
    130 H130       -2.4734  -14.3008  -49.1177 H         1 UNK         0.3000 
    131 H131       -1.2631  -14.6526  -46.5605 H         1 UNK         0.0600 
    132 H132       -4.0041  -13.5404  -47.3472 H         1 UNK         0.0800 
    133 H133       -3.5109  -13.8605  -45.7020 H         1 UNK         0.0800 
    134 H134       -4.8336  -15.4004  -48.9739 H         1 UNK         0.0800 
    135 H135       -6.0019  -15.2943  -47.6713 H         1 UNK         0.0800 
    136 H136       -6.0386  -16.8114  -50.4554 H         1 UNK         0.1150 
    137 H137       -7.0809  -20.8097  -49.2899 H         1 UNK         0.1150 
    138 H138       -5.4862  -18.0819  -46.4100 H         1 UNK         0.1150 
    139 H139       -5.9979  -20.2419  -45.7147 H         1 UNK         0.0800 
    140 H140       -7.3170  -21.0254  -46.5558 H         1 UNK         0.0800 
    141 H141       -5.0669  -23.7008  -45.3928 H         1 UNK         0.0800 
    142 H142       -5.1182  -22.0998  -44.7176 H         1 UNK         0.0800 
    143 H143       -2.7674  -21.7083  -45.7257 H         1 UNK         0.0600 
    144 H144       -1.9086  -22.0580  -43.7669 H         1 UNK         0.3000 
    145 H145       -2.8583  -23.9050  -40.9060 H         1 UNK         0.0600 
    146 H146       -0.4162  -24.3053  -40.7445 H         1 UNK         0.0600 
    147 H147       -1.1176  -25.3580  -41.9647 H         1 UNK         0.0600 
    148 H148       -0.2150  -23.9269  -42.4530 H         1 UNK         0.0600 
    149 H149       -1.1739  -21.6656  -41.9778 H         1 UNK         0.3000 
    150 H150       -2.8460  -19.2930  -39.9730 H         1 UNK         0.0600 
    151 H151       -1.1722  -20.1303  -38.3146 H         1 UNK         0.0600 
    152 H152       -0.5777  -18.7018  -39.1473 H         1 UNK         0.0600 
    153 H153        0.0277  -20.2972  -39.5915 H         1 UNK         0.0600 
    154 H154       -0.5557  -19.1024  -41.6693 H         1 UNK         0.3000 
    155 H155       -2.1199  -19.1943  -44.7791 H         1 UNK         0.0600 
    156 H156       -1.3880  -16.5954  -43.3292 H         1 UNK         0.0600 
    157 H157       -2.8624  -16.9070  -44.2233 H         1 UNK         0.0600 
    158 H158       -1.3274  -16.8158  -45.0780 H         1 UNK         0.0600 
    159 H159        0.4292  -18.2311  -44.2725 H         1 UNK         0.3000 
    160 H160        2.1922  -21.2046  -43.5068 H         1 UNK         0.0600 
    161 H161        3.3866  -20.5686  -45.6194 H         1 UNK         0.0600 
    162 H162        1.9593  -19.6824  -46.1580 H         1 UNK         0.0600 
    163 H163        1.8862  -21.4223  -45.9430 H         1 UNK         0.0600 
    164 H164        2.7517  -18.3970  -44.1316 H         1 UNK         0.3000 
    165 H165        2.9769  -17.3960  -40.7170 H         1 UNK         0.0600 
    166 H166        5.2992  -16.7857  -41.3420 H         1 UNK         0.0600 
    167 H167        5.1793  -18.5165  -41.0693 H         1 UNK         0.0600 
    168 H168        5.2514  -17.8941  -42.7135 H         1 UNK         0.0600 
    169 H169        3.6074  -16.1338  -43.2341 H         1 UNK         0.3000 
    170 H170        0.3707  -15.0457  -44.0492 H         1 UNK         0.0600 
    171 H171        0.8944  -13.3558  -42.2758 H         1 UNK         0.0600 
    172 H172        2.5553  -13.2644  -42.8514 H         1 UNK         0.0600 
    173 H173        1.2268  -12.7394  -43.8855 H         1 UNK         0.0600 
    174 H174        2.8403  -14.2327  -45.1280 H         1 UNK         0.3000 
    175 H175        4.3136  -16.1942  -46.4487 H         1 UNK         0.0600 
    176 H176        2.0617  -17.0457  -48.3326 H         1 UNK         0.0600 
    177 H177        3.7708  -17.0276  -48.7617 H         1 UNK         0.0600 
    178 H178        3.1925  -18.1159  -47.5111 H         1 UNK         0.0600 
    179 H179        2.3319  -14.4938  -47.9096 H         1 UNK         0.3000 
    180 H180        4.6376  -11.7633  -47.9968 H         1 UNK         0.0600 
    181 H181        3.2950  -13.3823  -50.2307 H         1 UNK         0.0600 
    182 H182        5.0129  -13.0143  -50.1280 H         1 UNK         0.0600 
    183 H183        3.8539  -11.7134  -50.3515 H         1 UNK         0.0600 
    184 H184        1.8660  -12.1143  -48.7073 H         1 UNK         0.3000 
    185 H185        0.5580  -10.9085  -45.5843 H         1 UNK         0.0600 
    186 H186        0.9860   -9.0538  -47.2486 H         1 UNK         0.0600 
    187 H187        0.4420  -10.1042  -48.5522 H         1 UNK         0.0600 
    188 H188       -0.6808   -9.6010  -47.2920 H         1 UNK         0.0600 
    189 H189        0.4483  -13.0488  -47.4812 H         1 UNK         0.3000 
    190 H190       -3.0339  -25.1731  -44.9387 H         1 UNK         0.3000 
    191 H191       -2.2284  -26.1650  -47.5026 H         1 UNK         0.0600 
    192 H192       -2.3573  -27.5211  -44.7536 H         1 UNK         0.0600 
    193 H193       -2.2349  -28.3577  -46.2974 H         1 UNK         0.0600 
    194 H194       -3.6754  -27.4276  -45.9218 H         1 UNK         0.0600 
    195 H195       -0.3152  -24.7084  -45.1457 H         1 UNK         0.3000 
    196 H196        2.1384  -26.2174  -45.4051 H         1 UNK         0.0600 
    197 H197        1.5102  -23.3885  -44.4150 H         1 UNK         0.0600 
    198 H198        3.1035  -24.1302  -44.3198 H         1 UNK         0.0600 
    199 H199        1.7640  -24.8308  -43.4315 H         1 UNK         0.0600 
    200 H200        0.4866  -24.1730  -47.5833 H         1 UNK         0.3000 
    201 H201        2.7218  -24.1630  -49.4506 H         1 UNK         0.0600 
    202 H202        2.3933  -21.7096  -49.9712 H         1 UNK         0.0600 
    203 H203        2.9863  -21.9408  -48.3404 H         1 UNK         0.0600 
    204 H204        1.2878  -21.5782  -48.6017 H         1 UNK         0.0600 
    205 H205        1.5486  -22.8881  -51.5312 H         1 UNK         0.3000 
    206 H206       -0.5550  -24.6661  -52.3790 H         1 UNK         0.0600 
    207 H207        1.2297  -23.8670  -53.9052 H         1 UNK         0.0600 
    208 H208       -0.3490  -23.3887  -54.5033 H         1 UNK         0.0600 
    209 H209        0.6846  -22.2009  -53.7171 H         1 UNK         0.0600 
    210 H210       -1.8115  -23.9107  -50.3976 H         1 UNK         0.3000 
    211 H211       -3.5774  -23.0279  -49.3957 H         1 UNK         0.0600 
    212 H212       -4.4323  -21.7158  -52.0231 H         1 UNK         0.0600 
    213 H213       -5.4313  -22.0209  -50.6155 H         1 UNK         0.0600 
    214 H214       -4.8371  -23.3765  -51.5627 H         1 UNK         0.0600 
    215 H215       -1.7528  -21.9437  -48.3716 H         1 UNK         0.3000 
    216 H216       -0.6096  -20.2402  -47.4970 H         1 UNK         0.0600 
    217 H217       -1.8432  -18.2024  -46.9775 H         1 UNK         0.0600 
    218 H218       -2.9840  -19.5448  -46.8969 H         1 UNK         0.0600 
    219 H219       -2.9749  -18.4731  -48.2902 H         1 UNK         0.0600 
    220 H220       -0.2408  -20.7719  -50.3556 H         1 UNK         0.3000 
    221 H221        0.9915  -20.1829  -52.0820 H         1 UNK         0.0600 
    222 H222        1.9172  -17.6518  -50.6441 H         1 UNK         0.0600 
    223 H223        2.6278  -19.2422  -50.3690 H         1 UNK         0.0600 
    224 H224        2.7229  -18.4936  -51.9550 H         1 UNK         0.0600 
    225 H225       -1.8542  -19.0892  -51.6180 H         1 UNK         0.3000 
    226 H226       -1.9757  -16.7751  -53.3998 H         1 UNK         0.0600 
    227 H227       -4.2256  -18.5236  -52.2923 H         1 UNK         0.0600 
    228 H228       -3.5498  -17.1298  -51.4520 H         1 UNK         0.0600 
    229 H229       -4.3794  -16.9187  -52.9872 H         1 UNK         0.0600 
    230 H230       -1.4504  -20.0134  -53.9596 H         1 UNK         0.3000 
    231 H231       -1.3856  -21.3594  -55.7114 H         1 UNK         0.0600 
    232 H232       -0.5073  -19.4290  -57.0299 H         1 UNK         0.0600 
    233 H233       -2.1493  -18.9734  -57.4809 H         1 UNK         0.0600 
    234 H234       -1.4797  -20.5041  -58.0226 H         1 UNK         0.0600 
    235 H235       -3.3411  -21.7611  -54.1706 H         1 UNK         0.3000 
    236 H236       -5.3393  -22.6949  -53.8172 H         1 UNK         0.0600 
    237 H237       -6.4483  -23.9686  -55.5679 H         1 UNK         0.0600 
    238 H238       -5.5981  -23.0947  -56.8315 H         1 UNK         0.0600 
    239 H239       -4.7136  -24.1645  -55.7436 H         1 UNK         0.0600 
    240 H240       -5.0861  -19.7184  -54.7085 H         1 UNK         0.3000 
    241 H241       -6.2696  -17.9006  -55.0163 H         1 UNK         0.0600 
    242 H242       -5.8574  -19.8558  -57.2982 H         1 UNK         0.3800 
    243 H243       -7.0012  -19.2805  -58.4862 H         1 UNK         0.3800 
    244 H244       -8.8514  -17.9196  -54.4459 H         1 UNK         0.0800 
    245 H245       -8.5752  -19.5152  -53.8262 H         1 UNK         0.0800 
    246 H246       -7.9694  -19.8464  -51.4018 H         1 UNK         0.0800 
    247 H247       -6.3018  -19.7916  -51.9295 H         1 UNK         0.0800 
@<TRIPOS>BOND
     1    1    2 1    
     2    1  127 1    
     3    1  128 1    
     4    1  129 1    
     5    2    3 2    
     6    2    4 am   BACKBONE|DICT|INTERRES
     7    4    5 1    
     8    4  130 1    
     9    5    6 1    
    10    5   65 1    
    11    5  131 1    
    12    6    7 1    
    13    6  132 1    
    14    6  133 1    
    15    7    8 1    
    16    8    9 1    
    17    8  134 1    
    18    8  135 1    
    19    9   10 ar   
    20    9   14 ar   
    21   10   11 ar   
    22   10  136 1    
    23   11   12 ar   
    24   11  126 1    
    25   12   13 ar   
    26   12  137 1    
    27   13   14 ar   
    28   13   15 1    
    29   14  138 1    
    30   15   16 1    
    31   15  139 1    
    32   15  140 1    
    33   16   17 1    
    34   17   18 1    
    35   17  141 1    
    36   17  142 1    
    37   18   19 1    
    38   18   67 1    
    39   18  143 1    
    40   19   20 am   BACKBONE|DICT|INTERRES
    41   19  144 1    
    42   20   21 2    
    43   20   22 1    
    44   22   23 1    
    45   22   24 1    
    46   22  145 1    
    47   23  146 1    
    48   23  147 1    
    49   23  148 1    
    50   24   25 am   BACKBONE|DICT|INTERRES
    51   24  149 1    
    52   25   26 2    
    53   25   27 1    
    54   27   28 1    
    55   27   29 1    
    56   27  150 1    
    57   28  151 1    
    58   28  152 1    
    59   28  153 1    
    60   29   30 am   BACKBONE|DICT|INTERRES
    61   29  154 1    
    62   30   31 2    
    63   30   32 1    
    64   32   33 1    
    65   32   34 1    
    66   32  155 1    
    67   33  156 1    
    68   33  157 1    
    69   33  158 1    
    70   34   35 am   BACKBONE|DICT|INTERRES
    71   34  159 1    
    72   35   36 2    
    73   35   37 1    
    74   37   38 1    
    75   37   39 1    
    76   37  160 1    
    77   38  161 1    
    78   38  162 1    
    79   38  163 1    
    80   39   40 am   BACKBONE|DICT|INTERRES
    81   39  164 1    
    82   40   41 2    
    83   40   42 1    
    84   42   43 1    
    85   42   44 1    
    86   42  165 1    
    87   43  166 1    
    88   43  167 1    
    89   43  168 1    
    90   44   45 am   BACKBONE|DICT|INTERRES
    91   44  169 1    
    92   45   46 2    
    93   45   47 1    
    94   47   48 1    
    95   47   49 1    
    96   47  170 1    
    97   48  171 1    
    98   48  172 1    
    99   48  173 1    
   100   49   50 am   BACKBONE|DICT|INTERRES
   101   49  174 1    
   102   50   51 2    
   103   50   52 1    
   104   52   53 1    
   105   52   54 1    
   106   52  175 1    
   107   53  176 1    
   108   53  177 1    
   109   53  178 1    
   110   54   55 am   BACKBONE|DICT|INTERRES
   111   54  179 1    
   112   55   56 2    
   113   55   57 1    
   114   57   58 1    
   115   57   59 1    
   116   57  180 1    
   117   58  181 1    
   118   58  182 1    
   119   58  183 1    
   120   59   60 am   BACKBONE|DICT|INTERRES
   121   59  184 1    
   122   60   61 2    
   123   60   62 1    
   124   62   63 1    
   125   62   64 1    
   126   62  185 1    
   127   63  186 1    
   128   63  187 1    
   129   63  188 1    
   130   64   65 am   BACKBONE|DICT|INTERRES
   131   64  189 1    
   132   65   66 2    
   133   67   68 2    
   134   67   69 am   BACKBONE|DICT|INTERRES
   135   69   70 1    
   136   69  190 1    
   137   70   71 1    
   138   70   72 1    
   139   70  191 1    
   140   71  192 1    
   141   71  193 1    
   142   71  194 1    
   143   72   73 2    
   144   72   74 am   BACKBONE|DICT|INTERRES
   145   74   75 1    
   146   74  195 1    
   147   75   76 1    
   148   75   77 1    
   149   75  196 1    
   150   76  197 1    
   151   76  198 1    
   152   76  199 1    
   153   77   78 2    
   154   77   79 am   BACKBONE|DICT|INTERRES
   155   79   80 1    
   156   79  200 1    
   157   80   81 1    
   158   80   82 1    
   159   80  201 1    
   160   81  202 1    
   161   81  203 1    
   162   81  204 1    
   163   82   83 2    
   164   82   84 am   BACKBONE|DICT|INTERRES
   165   84   85 1    
   166   84  205 1    
   167   85   86 1    
   168   85   87 1    
   169   85  206 1    
   170   86  207 1    
   171   86  208 1    
   172   86  209 1    
   173   87   88 2    
   174   87   89 am   BACKBONE|DICT|INTERRES
   175   89   90 1    
   176   89  210 1    
   177   90   91 1    
   178   90   92 1    
   179   90  211 1    
   180   91  212 1    
   181   91  213 1    
   182   91  214 1    
   183   92   93 2    
   184   92   94 am   BACKBONE|DICT|INTERRES
   185   94   95 1    
   186   94  215 1    
   187   95   96 1    
   188   95   97 1    
   189   95  216 1    
   190   96  217 1    
   191   96  218 1    
   192   96  219 1    
   193   97   98 2    
   194   97   99 am   BACKBONE|DICT|INTERRES
   195   99  100 1    
   196   99  220 1    
   197  100  101 1    
   198  100  102 1    
   199  100  221 1    
   200  101  222 1    
   201  101  223 1    
   202  101  224 1    
   203  102  103 2    
   204  102  104 am   BACKBONE|DICT|INTERRES
   205  104  105 1    
   206  104  225 1    
   207  105  106 1    
   208  105  107 1    
   209  105  226 1    
   210  106  227 1    
   211  106  228 1    
   212  106  229 1    
   213  107  108 2    
   214  107  109 am   BACKBONE|DICT|INTERRES
   215  109  110 1    
   216  109  230 1    
   217  110  111 1    
   218  110  112 1    
   219  110  231 1    
   220  111  232 1    
   221  111  233 1    
   222  111  234 1    
   223  112  113 2    
   224  112  114 am   BACKBONE|DICT|INTERRES
   225  114  115 1    
   226  114  235 1    
   227  115  116 1    
   228  115  117 1    
   229  115  236 1    
   230  116  237 1    
   231  116  238 1    
   232  116  239 1    
   233  117  118 2    
   234  117  119 am   BACKBONE|DICT|INTERRES
   235  119  120 1    
   236  119  240 1    
   237  120  121 1    
   238  120  124 1    
   239  120  241 1    
   240  121  122 am   BACKBONE|DICT|INTERRES
   241  121  123 2    
   242  122  242 1    
   243  122  243 1    
   244  124  125 1    
   245  124  244 1    
   246  124  245 1    
   247  125  126 1    
   248  126  246 1    
   249  126  247 1    
@<TRIPOS>SUBSTRUCTURE
     1 UNK         1 GROUP             0       ****    0 ROOT    
