@<TRIPOS>MOLECULE
3R540
247   249    1
SMALL
USER_CHARGES


@<TRIPOS>ATOM
      1 CA         -0.0219   -8.6047  -51.8879 C.3       0 UNK        -0.1800 
      2 C           0.0079   -9.5928  -50.7301 C.2       0 UNK         0.5000 
      3 O          -0.4018   -9.2496  -49.6206 O.2       0 UNK        -0.5000 
      4 N           0.4998  -10.8115  -50.9813 N.am      1 UNK        -0.5000 
      5 CA          0.5368  -11.9200  -50.0228 C.3       1 UNK         0.1400 
      6 C6          1.5707  -12.9974  -50.4354 C.3       23 UNK        -0.0398 
      7 S7          1.3416  -13.6906  -52.1140 S.3       23 UNK        -0.2404 
      8 C8          2.2366  -15.2732  -51.9883 C.3       23 UNK        -0.0205 
      9 C9          1.3845  -16.3533  -51.3391 C.ar      23 UNK        -0.0193 
     10 C10         0.5686  -17.1754  -52.1243 C.ar      23 UNK        -0.1150 
     11 C11        -0.2292  -18.1602  -51.5318 C.ar      23 UNK        -0.0193 
     12 C12        -0.2235  -18.2981  -50.1415 C.ar      23 UNK        -0.1150 
     13 C13         0.5923  -17.4880  -49.3497 C.ar      23 UNK        -0.0193 
     14 C14         1.4097  -16.5324  -49.9535 C.ar      23 UNK        -0.1150 
     15 C15         0.5640  -17.6284  -47.8413 C.3       23 UNK        -0.0205 
     16 S16         1.5683  -19.0304  -47.2768 S.3       23 UNK        -0.2404 
     17 C17         0.7799  -19.3144  -45.6603 C.3       23 UNK        -0.0398 
     18 CA         -0.2855  -20.4210  -45.7977 C.3       11 UNK         0.1400 
     19 N           0.2993  -21.7323  -46.0702 N.am      11 UNK        -0.5000 
     20 C          -0.3770  -22.7804  -46.5536 C.2       10 UNK         0.5000 
     21 O          -1.5738  -22.7479  -46.8365 O.2       10 UNK        -0.5000 
     22 CA          0.4159  -24.0891  -46.7150 C.3       10 UNK         0.1400 
     23 CB          1.1314  -24.1157  -48.0736 C.3       10 UNK        -0.1800 
     24 N           1.3951  -24.2821  -45.6419 N.am      10 UNK        -0.5000 
     25 C           1.0699  -24.5036  -44.3600 C.2       9 UNK         0.5000 
     26 O          -0.0887  -24.6103  -43.9589 O.2       9 UNK        -0.5000 
     27 CA          2.2321  -24.5580  -43.3504 C.3       9 UNK         0.1400 
     28 CB          2.8784  -25.9514  -43.3423 C.3       9 UNK        -0.1800 
     29 N           3.2642  -23.5408  -43.5834 N.am      9 UNK        -0.5000 
     30 C           3.0494  -22.2190  -43.5503 C.2       8 UNK         0.5000 
     31 O           1.9358  -21.7145  -43.3920 O.2       8 UNK        -0.5000 
     32 CA          4.2692  -21.3089  -43.7807 C.3       8 UNK         0.1400 
     33 CB          4.5129  -21.1104  -45.2846 C.3       8 UNK        -0.1800 
     34 N           4.0747  -19.9991  -43.1577 N.am      8 UNK        -0.5000 
     35 C           4.1390  -19.7614  -41.8409 C.2       7 UNK         0.5000 
     36 O           4.4647  -20.6208  -41.0198 O.2       7 UNK        -0.5000 
     37 CA          3.7524  -18.3504  -41.3402 C.3       7 UNK         0.1400 
     38 CB          4.7725  -17.7968  -40.3239 C.3       7 UNK        -0.1800 
     39 N           3.4681  -17.3601  -42.3894 N.am      7 UNK        -0.5000 
     40 C           4.3204  -16.8217  -43.2767 C.2       6 UNK         0.5000 
     41 O           5.5074  -17.1364  -43.3608 O.2       6 UNK        -0.5000 
     42 CA          3.7559  -15.7740  -44.2602 C.3       6 UNK         0.1400 
     43 CB          3.6845  -16.3565  -45.6777 C.3       6 UNK        -0.1800 
     44 N           2.4277  -15.2776  -43.8901 N.am      6 UNK        -0.5000 
     45 C           2.2046  -14.3521  -42.9483 C.2       5 UNK         0.5000 
     46 O           3.0997  -13.8009  -42.3066 O.2       5 UNK        -0.5000 
     47 CA          0.7353  -13.9866  -42.6639 C.3       5 UNK         0.1400 
     48 CB          0.2932  -12.8207  -43.5621 C.3       5 UNK        -0.1800 
     49 N          -0.2246  -15.0839  -42.8177 N.am      5 UNK        -0.5000 
     50 C          -0.2088  -16.2639  -42.1865 C.2       4 UNK         0.5000 
     51 O           0.7264  -16.6447  -41.4832 O.2       4 UNK        -0.5000 
     52 CA         -1.4295  -17.1917  -42.3667 C.3       4 UNK         0.1400 
     53 CB         -2.4953  -16.9066  -41.2938 C.3       4 UNK        -0.1800 
     54 N          -2.0323  -17.2163  -43.7072 N.am      4 UNK        -0.5000 
     55 C          -2.6178  -16.2341  -44.4040 C.2       3 UNK         0.5000 
     56 O          -2.7632  -15.0804  -43.9935 O.2       3 UNK        -0.5000 
     57 CA         -3.1402  -16.6329  -45.7975 C.3       3 UNK         0.1400 
     58 CB         -4.5728  -17.1747  -45.6807 C.3       3 UNK        -0.1800 
     59 N          -3.1279  -15.5344  -46.7666 N.am      3 UNK        -0.5000 
     60 C          -2.0607  -14.8066  -47.1245 C.2       2 UNK         0.5000 
     61 O          -0.9186  -14.9873  -46.6923 O.2       2 UNK        -0.5000 
     62 CA         -2.3281  -13.6808  -48.1351 C.3       2 UNK         0.1400 
     63 CB         -3.1840  -12.5623  -47.5100 C.3       2 UNK        -0.1800 
     64 N          -1.0612  -13.1207  -48.5983 N.am      2 UNK        -0.5000 
     65 C          -0.8725  -12.5069  -49.7719 C.2       1 UNK         0.5000 
     66 O          -1.7556  -12.3886  -50.6267 O.2       1 UNK        -0.5000 
     67 C          -1.2311  -20.4654  -44.5899 C.2       11 UNK         0.5000 
     68 O          -2.3130  -19.8801  -44.6624 O.2       11 UNK        -0.5000 
     69 N          -0.8297  -21.1795  -43.5302 N.am      12 UNK        -0.5000 
     70 CA         -1.6459  -21.4687  -42.3507 C.3       12 UNK         0.1400 
     71 CB         -0.7814  -22.1688  -41.2925 C.3       12 UNK        -0.1800 
     72 C          -2.8948  -22.3048  -42.6880 C.2       12 UNK         0.5000 
     73 O          -3.9603  -22.0560  -42.1243 O.2       12 UNK        -0.5000 
     74 N          -2.7698  -23.2205  -43.6591 N.am      13 UNK        -0.5000 
     75 CA         -3.8577  -23.9976  -44.2610 C.3       13 UNK         0.1400 
     76 CB         -3.2690  -25.2698  -44.8968 C.3       13 UNK        -0.1800 
     77 C          -4.7047  -23.1752  -45.2623 C.2       13 UNK         0.5000 
     78 O          -5.0450  -23.6702  -46.3389 O.2       13 UNK        -0.5000 
     79 N          -5.0339  -21.9314  -44.8847 N.am      14 UNK        -0.5000 
     80 CA         -5.8837  -20.9690  -45.5903 C.3       14 UNK         0.1400 
     81 CB         -7.3567  -21.4238  -45.5261 C.3       14 UNK        -0.1800 
     82 C          -5.4150  -20.6710  -47.0294 C.2       14 UNK         0.5000 
     83 O          -6.2407  -20.6399  -47.9415 O.2       14 UNK        -0.5000 
     84 N          -4.0980  -20.4838  -47.2111 N.am      15 UNK        -0.5000 
     85 CA         -3.4233  -20.2893  -48.5037 C.3       15 UNK         0.1400 
     86 CB         -3.7731  -18.9123  -49.1073 C.3       15 UNK        -0.1800 
     87 C          -3.6797  -21.4620  -49.4725 C.2       15 UNK         0.5000 
     88 O          -4.1944  -21.2626  -50.5741 O.2       15 UNK        -0.5000 
     89 N          -3.3554  -22.6719  -48.9949 N.am      16 UNK        -0.5000 
     90 CA         -3.5535  -23.9737  -49.6361 C.3       16 UNK         0.1400 
     91 CB         -2.5626  -24.1488  -50.8044 C.3       16 UNK        -0.1800 
     92 C          -5.0255  -24.2201  -50.0299 C.2       16 UNK         0.5000 
     93 O          -5.3066  -24.6393  -51.1538 O.2       16 UNK        -0.5000 
     94 N          -5.9328  -23.9296  -49.0850 N.am      17 UNK        -0.5000 
     95 CA         -7.3924  -23.9449  -49.2196 C.3       17 UNK         0.1400 
     96 CB         -7.9114  -25.3884  -49.3862 C.3       17 UNK        -0.1800 
     97 C          -7.8911  -22.9821  -50.3198 C.2       17 UNK         0.5000 
     98 O          -8.6627  -23.3813  -51.1945 O.2       17 UNK        -0.5000 
     99 N          -7.4287  -21.7264  -50.2395 N.am      18 UNK        -0.5000 
    100 CA        -7.7064  -20.6012  -51.1346 C.3       18 UNK         0.1400 
    101 CB        -9.1742  -20.1476  -50.9913 C.3       18 UNK        -0.1800 
    102 C         -7.2921  -20.8764  -52.5947 C.2       18 UNK         0.5000 
    103 O         -8.0928  -20.6929  -53.5149 O.2       18 UNK        -0.5000 
    104 N         -6.0441  -21.3233  -52.7810 N.am      19 UNK        -0.5000 
    105 CA        -5.4432  -21.5661  -54.0909 C.3       19 UNK         0.1400 
    106 CB        -4.1591  -22.3865  -53.9100 C.3       19 UNK        -0.1800 
    107 C         -5.1379  -20.2513  -54.8323 C.2       19 UNK         0.5000 
    108 O         -4.8253  -19.2400  -54.1984 O.2       19 UNK        -0.5000 
    109 N         -5.2055  -20.2995  -56.1694 N.am      20 UNK        -0.5000 
    110 CA        -4.9064  -19.1700  -57.0559 C.3       20 UNK         0.1400 
    111 CB        -5.4348  -19.4845  -58.4641 C.3       20 UNK        -0.1800 
    112 C         -3.4059  -18.8199  -57.1089 C.2       20 UNK         0.5000 
    113 O         -3.0594  -17.6643  -57.3569 O.2       20 UNK        -0.5000 
    114 N         -2.5496  -19.8171  -56.8659 N.am      21 UNK        -0.5000 
    115 CA        -1.1024  -19.7010  -56.7582 C.3       21 UNK         0.1400 
    116 CB        -0.4598  -19.7590  -58.1548 C.3       21 UNK        -0.1800 
    117 C         -0.6077  -20.8471  -55.8674 C.2       21 UNK         0.5000 
    118 O         -1.2159  -21.9209  -55.8685 O.2       21 UNK        -0.5000 
    119 N          0.4787  -20.5949  -55.1326 N.am      22 UNK        -0.5000 
    120 CA         1.0834  -21.5279  -54.1644 C.3       22 UNK         0.1400 
    121 C          2.5462  -21.9194  -54.5292 C.2       22 UNK         0.5000 
    122 N          3.0704  -21.5395  -55.6887 N.am      22 UNK        -0.7600 
    123 O          3.2178  -22.5986  -53.7575 O.2       22 UNK        -0.5000 
    124 C124        0.9791  -20.9823  -52.7147 C.3       23 UNK        -0.0398 
    125 S125       -0.7465  -20.8386  -52.1310 S.3       23 UNK        -0.2404 
    126 C126       -1.1022  -19.0678  -52.3896 C.3       23 UNK        -0.0205 
    127 H127        0.3812   -9.0399  -52.8027 H         1 UNK         0.0600 
    128 H128        0.5678   -7.7212  -51.6431 H         1 UNK         0.0600 
    129 H129       -1.0464   -8.2887  -52.0846 H         1 UNK         0.0600 
    130 H130        0.7870  -11.0497  -51.9201 H         1 UNK         0.3000 
    131 H131        0.8755  -11.5066  -49.0700 H         1 UNK         0.0600 
    132 H132        2.5716  -12.5653  -50.3953 H         1 UNK         0.0800 
    133 H133        1.5744  -13.7976  -49.6984 H         1 UNK         0.0800 
    134 H134        3.1658  -15.1323  -51.4337 H         1 UNK         0.0800 
    135 H135        2.5285  -15.5902  -52.9906 H         1 UNK         0.0800 
    136 H136        0.5558  -17.0454  -53.1973 H         1 UNK         0.1150 
    137 H137       -0.8432  -19.0498  -49.6763 H         1 UNK         0.1150 
    138 H138        2.0537  -15.9213  -49.3385 H         1 UNK         0.1150 
    139 H139        0.9288  -16.7186  -47.3631 H         1 UNK         0.0800 
    140 H140       -0.4713  -17.7524  -47.5226 H         1 UNK         0.0800 
    141 H141        0.3443  -18.3789  -45.3037 H         1 UNK         0.0800 
    142 H142        1.5427  -19.5880  -44.9314 H         1 UNK         0.0800 
    143 H143       -0.9099  -20.1605  -46.6515 H         1 UNK         0.0600 
    144 H144        1.2711  -21.8523  -45.8293 H         1 UNK         0.3000 
    145 H145       -0.2952  -24.9171  -46.6853 H         1 UNK         0.0600 
    146 H146        1.8748  -23.3216  -48.1550 H         1 UNK         0.0600 
    147 H147        1.6372  -25.0679  -48.2343 H         1 UNK         0.0600 
    148 H148        0.4213  -23.9840  -48.8909 H         1 UNK         0.0600 
    149 H149        2.3710  -24.2093  -45.8892 H         1 UNK         0.3000 
    150 H150        1.8102  -24.3756  -42.3598 H         1 UNK         0.0600 
    151 H151        2.1336  -26.7261  -43.1547 H         1 UNK         0.0600 
    152 H152        3.6323  -26.0319  -42.5590 H         1 UNK         0.0600 
    153 H153        3.3576  -26.1803  -44.2949 H         1 UNK         0.0600 
    154 H154        4.2030  -23.8811  -43.7345 H         1 UNK         0.3000 
    155 H155        5.1499  -21.7809  -43.3402 H         1 UNK         0.0600 
    156 H156        4.7046  -22.0624  -45.7811 H         1 UNK         0.0600 
    157 H157        5.3802  -20.4739  -45.4617 H         1 UNK         0.0600 
    158 H158        3.6567  -20.6509  -45.7778 H         1 UNK         0.0600 
    159 H159        3.7925  -19.2436  -43.7615 H         1 UNK         0.3000 
    160 H160        2.8092  -18.4828  -40.8082 H         1 UNK         0.0600 
    161 H161        4.4694  -16.8165  -39.9561 H         1 UNK         0.0600 
    162 H162        5.7679  -17.7005  -40.7579 H         1 UNK         0.0600 
    163 H163        4.8588  -18.4534  -39.4574 H         1 UNK         0.0600 
    164 H164        2.5159  -17.0099  -42.3776 H         1 UNK         0.3000 
    165 H165        4.4527  -14.9332  -44.2768 H         1 UNK         0.0600 
    166 H166        3.0402  -17.2320  -45.7052 H         1 UNK         0.0600 
    167 H167        3.2990  -15.6282  -46.3915 H         1 UNK         0.0600 
    168 H168        4.6707  -16.6649  -46.0272 H         1 UNK         0.0600 
    169 H169        1.6344  -15.6646  -44.3798 H         1 UNK         0.3000 
    170 H170        0.6812  -13.6564  -41.6248 H         1 UNK         0.0600 
    171 H171        0.2752  -13.1103  -44.6138 H         1 UNK         0.0600 
    172 H172       -0.7053  -12.4740  -43.2949 H         1 UNK         0.0600 
    173 H173        0.9691  -11.9701  -43.4649 H         1 UNK         0.0600 
    174 H174       -1.0603  -14.8756  -43.3598 H         1 UNK         0.3000 
    175 H175       -1.0633  -18.2052  -42.1967 H         1 UNK         0.0600 
    176 H176       -2.9178  -15.9066  -41.3956 H         1 UNK         0.0600 
    177 H177       -3.3138  -17.6243  -41.3527 H         1 UNK         0.0600 
    178 H178       -2.0701  -16.9804  -40.2921 H         1 UNK         0.0600 
    179 H179       -2.0634  -18.1433  -44.1241 H         1 UNK         0.3000 
    180 H180       -2.4999  -17.4240  -46.1916 H         1 UNK         0.0600 
    181 H181       -5.2614  -16.4116  -45.3157 H         1 UNK         0.0600 
    182 H182       -4.6134  -18.0110  -44.9826 H         1 UNK         0.0600 
    183 H183       -4.9473  -17.5323  -46.6394 H         1 UNK         0.0600 
    184 H184       -4.0259  -15.2850  -47.1533 H         1 UNK         0.3000 
    185 H185       -2.8607  -14.1192  -48.9818 H         1 UNK         0.0600 
    186 H186       -3.3855  -11.7681  -48.2292 H         1 UNK         0.0600 
    187 H187       -4.1493  -12.9403  -47.1720 H         1 UNK         0.0600 
    188 H188       -2.6869  -12.1142  -46.6486 H         1 UNK         0.0600 
    189 H189       -0.2917  -13.2606  -47.9557 H         1 UNK         0.3000 
    190 H190        0.1109  -21.5694  -43.5349 H         1 UNK         0.3000 
    191 H191       -1.9874  -20.5174  -41.9380 H         1 UNK         0.0600 
    192 H192       -0.4016  -23.1255  -41.6517 H         1 UNK         0.0600 
    193 H193        0.0748  -21.5538  -41.0139 H         1 UNK         0.0600 
    194 H194       -1.3544  -22.3617  -40.3849 H         1 UNK         0.0600 
    195 H195       -1.8462  -23.3847  -44.0420 H         1 UNK         0.3000 
    196 H196       -4.5343  -24.3128  -43.4644 H         1 UNK         0.0600 
    197 H197       -2.6955  -25.8453  -44.1700 H         1 UNK         0.0600 
    198 H198       -2.6093  -25.0328  -45.7312 H         1 UNK         0.0600 
    199 H199       -4.0572  -25.9214  -45.2757 H         1 UNK         0.0600 
    200 H200       -4.7005  -21.6345  -43.9743 H         1 UNK         0.3000 
    201 H201       -5.8067  -20.0308  -45.0415 H         1 UNK         0.0600 
    202 H202       -8.0201  -20.6708  -45.9534 H         1 UNK         0.0600 
    203 H203       -7.6741  -21.5854  -44.4959 H         1 UNK         0.0600 
    204 H204       -7.5173  -22.3521  -46.0747 H         1 UNK         0.0600 
    205 H205       -3.4995  -20.5532  -46.3971 H         1 UNK         0.3000 
    206 H206       -2.3521  -20.2971  -48.3132 H         1 UNK         0.0600 
    207 H207       -4.8438  -18.7980  -49.2767 H         1 UNK         0.0600 
    208 H208       -3.2798  -18.7692  -50.0680 H         1 UNK         0.0600 
    209 H209       -3.4446  -18.1026  -48.4578 H         1 UNK         0.0600 
    210 H210       -2.9203  -22.7112  -48.0750 H         1 UNK         0.3000 
    211 H211       -3.3110  -24.7248  -48.8830 H         1 UNK         0.0600 
    212 H212       -1.5329  -24.0410  -50.4648 H         1 UNK         0.0600 
    213 H213       -2.6546  -25.1372  -51.2555 H         1 UNK         0.0600 
    214 H214       -2.7292  -23.4112  -51.5881 H         1 UNK         0.0600 
    215 H215       -5.5838  -23.6341  -48.1757 H         1 UNK         0.3000 
    216 H216       -7.7876  -23.5625  -48.2776 H         1 UNK         0.0600 
    217 H217       -9.0016  -25.4136  -49.3737 H         1 UNK         0.0600 
    218 H218       -7.5856  -25.8328  -50.3270 H         1 UNK         0.0600 
    219 H219       -7.5631  -26.0274  -48.5748 H         1 UNK         0.0600 
    220 H220       -6.8164  -21.4939  -49.4594 H         1 UNK         0.3000 
    221 H221       -7.0749  -19.7809  -50.7898 H         1 UNK         0.0600 
    222 H222       -9.8711  -20.9111  -51.3382 H         1 UNK         0.0600 
    223 H223       -9.4152  -19.9201  -49.9529 H         1 UNK         0.0600 
    224 H224       -9.3618  -19.2443  -51.5728 H         1 UNK         0.0600 
    225 H225       -5.4237  -21.3989  -51.9767 H         1 UNK         0.3000 
    226 H226       -6.1466  -22.1526  -54.6857 H         1 UNK         0.0600 
    227 H227       -3.7074  -22.6281  -54.8723 H         1 UNK         0.0600 
    228 H228       -3.4164  -21.8418  -53.3259 H         1 UNK         0.0600 
    229 H229       -4.3630  -23.3293  -53.4031 H         1 UNK         0.0600 
    230 H230       -5.4689  -21.1651  -56.6181 H         1 UNK         0.3000 
    231 H231       -5.4365  -18.2915  -56.6817 H         1 UNK         0.0600 
    232 H232       -5.2522  -18.6516  -59.1444 H         1 UNK         0.0600 
    233 H233       -6.5103  -19.6623  -58.4519 H         1 UNK         0.0600 
    234 H234       -4.9521  -20.3660  -58.8881 H         1 UNK         0.0600 
    235 H235       -2.9072  -20.7352  -56.6348 H         1 UNK         0.3000 
    236 H236       -0.8529  -18.7519  -56.2786 H         1 UNK         0.0600 
    237 H237       -0.8050  -18.9384  -58.7839 H         1 UNK         0.0600 
    238 H238        0.6261  -19.6826  -58.0897 H         1 UNK         0.0600 
    239 H239       -0.6949  -20.6937  -58.6654 H         1 UNK         0.0600 
    240 H240        0.9303  -19.6950  -55.2089 H         1 UNK         0.3000 
    241 H241        0.5431  -22.4758  -54.1885 H         1 UNK         0.0600 
    242 H242        4.0160  -21.8071  -55.9146 H         1 UNK         0.3800 
    243 H243        2.5269  -21.0169  -56.3564 H         1 UNK         0.3800 
    244 H244        1.4840  -21.6518  -52.0165 H         1 UNK         0.0800 
    245 H245        1.4898  -20.0227  -52.6279 H         1 UNK         0.0800 
    246 H246       -2.1503  -18.8840  -52.1519 H         1 UNK         0.0800 
    247 H247       -0.9886  -18.8308  -53.4476 H         1 UNK         0.0800 
@<TRIPOS>BOND
     1    1    2 1    
     2    1  127 1    
     3    1  128 1    
     4    1  129 1    
     5    2    3 2    
     6    2    4 am   BACKBONE|DICT|INTERRES
     7    4    5 1    
     8    4  130 1    
     9    5    6 1    
    10    5   65 1    
    11    5  131 1    
    12    6    7 1    
    13    6  132 1    
    14    6  133 1    
    15    7    8 1    
    16    8    9 1    
    17    8  134 1    
    18    8  135 1    
    19    9   10 ar   
    20    9   14 ar   
    21   10   11 ar   
    22   10  136 1    
    23   11   12 ar   
    24   11  126 1    
    25   12   13 ar   
    26   12  137 1    
    27   13   14 ar   
    28   13   15 1    
    29   14  138 1    
    30   15   16 1    
    31   15  139 1    
    32   15  140 1    
    33   16   17 1    
    34   17   18 1    
    35   17  141 1    
    36   17  142 1    
    37   18   19 1    
    38   18   67 1    
    39   18  143 1    
    40   19   20 am   BACKBONE|DICT|INTERRES
    41   19  144 1    
    42   20   21 2    
    43   20   22 1    
    44   22   23 1    
    45   22   24 1    
    46   22  145 1    
    47   23  146 1    
    48   23  147 1    
    49   23  148 1    
    50   24   25 am   BACKBONE|DICT|INTERRES
    51   24  149 1    
    52   25   26 2    
    53   25   27 1    
    54   27   28 1    
    55   27   29 1    
    56   27  150 1    
    57   28  151 1    
    58   28  152 1    
    59   28  153 1    
    60   29   30 am   BACKBONE|DICT|INTERRES
    61   29  154 1    
    62   30   31 2    
    63   30   32 1    
    64   32   33 1    
    65   32   34 1    
    66   32  155 1    
    67   33  156 1    
    68   33  157 1    
    69   33  158 1    
    70   34   35 am   BACKBONE|DICT|INTERRES
    71   34  159 1    
    72   35   36 2    
    73   35   37 1    
    74   37   38 1    
    75   37   39 1    
    76   37  160 1    
    77   38  161 1    
    78   38  162 1    
    79   38  163 1    
    80   39   40 am   BACKBONE|DICT|INTERRES
    81   39  164 1    
    82   40   41 2    
    83   40   42 1    
    84   42   43 1    
    85   42   44 1    
    86   42  165 1    
    87   43  166 1    
    88   43  167 1    
    89   43  168 1    
    90   44   45 am   BACKBONE|DICT|INTERRES
    91   44  169 1    
    92   45   46 2    
    93   45   47 1    
    94   47   48 1    
    95   47   49 1    
    96   47  170 1    
    97   48  171 1    
    98   48  172 1    
    99   48  173 1    
   100   49   50 am   BACKBONE|DICT|INTERRES
   101   49  174 1    
   102   50   51 2    
   103   50   52 1    
   104   52   53 1    
   105   52   54 1    
   106   52  175 1    
   107   53  176 1    
   108   53  177 1    
   109   53  178 1    
   110   54   55 am   BACKBONE|DICT|INTERRES
   111   54  179 1    
   112   55   56 2    
   113   55   57 1    
   114   57   58 1    
   115   57   59 1    
   116   57  180 1    
   117   58  181 1    
   118   58  182 1    
   119   58  183 1    
   120   59   60 am   BACKBONE|DICT|INTERRES
   121   59  184 1    
   122   60   61 2    
   123   60   62 1    
   124   62   63 1    
   125   62   64 1    
   126   62  185 1    
   127   63  186 1    
   128   63  187 1    
   129   63  188 1    
   130   64   65 am   BACKBONE|DICT|INTERRES
   131   64  189 1    
   132   65   66 2    
   133   67   68 2    
   134   67   69 am   BACKBONE|DICT|INTERRES
   135   69   70 1    
   136   69  190 1    
   137   70   71 1    
   138   70   72 1    
   139   70  191 1    
   140   71  192 1    
   141   71  193 1    
   142   71  194 1    
   143   72   73 2    
   144   72   74 am   BACKBONE|DICT|INTERRES
   145   74   75 1    
   146   74  195 1    
   147   75   76 1    
   148   75   77 1    
   149   75  196 1    
   150   76  197 1    
   151   76  198 1    
   152   76  199 1    
   153   77   78 2    
   154   77   79 am   BACKBONE|DICT|INTERRES
   155   79   80 1    
   156   79  200 1    
   157   80   81 1    
   158   80   82 1    
   159   80  201 1    
   160   81  202 1    
   161   81  203 1    
   162   81  204 1    
   163   82   83 2    
   164   82   84 am   BACKBONE|DICT|INTERRES
   165   84   85 1    
   166   84  205 1    
   167   85   86 1    
   168   85   87 1    
   169   85  206 1    
   170   86  207 1    
   171   86  208 1    
   172   86  209 1    
   173   87   88 2    
   174   87   89 am   BACKBONE|DICT|INTERRES
   175   89   90 1    
   176   89  210 1    
   177   90   91 1    
   178   90   92 1    
   179   90  211 1    
   180   91  212 1    
   181   91  213 1    
   182   91  214 1    
   183   92   93 2    
   184   92   94 am   BACKBONE|DICT|INTERRES
   185   94   95 1    
   186   94  215 1    
   187   95   96 1    
   188   95   97 1    
   189   95  216 1    
   190   96  217 1    
   191   96  218 1    
   192   96  219 1    
   193   97   98 2    
   194   97   99 am   BACKBONE|DICT|INTERRES
   195   99  100 1    
   196   99  220 1    
   197  100  101 1    
   198  100  102 1    
   199  100  221 1    
   200  101  222 1    
   201  101  223 1    
   202  101  224 1    
   203  102  103 2    
   204  102  104 am   BACKBONE|DICT|INTERRES
   205  104  105 1    
   206  104  225 1    
   207  105  106 1    
   208  105  107 1    
   209  105  226 1    
   210  106  227 1    
   211  106  228 1    
   212  106  229 1    
   213  107  108 2    
   214  107  109 am   BACKBONE|DICT|INTERRES
   215  109  110 1    
   216  109  230 1    
   217  110  111 1    
   218  110  112 1    
   219  110  231 1    
   220  111  232 1    
   221  111  233 1    
   222  111  234 1    
   223  112  113 2    
   224  112  114 am   BACKBONE|DICT|INTERRES
   225  114  115 1    
   226  114  235 1    
   227  115  116 1    
   228  115  117 1    
   229  115  236 1    
   230  116  237 1    
   231  116  238 1    
   232  116  239 1    
   233  117  118 2    
   234  117  119 am   BACKBONE|DICT|INTERRES
   235  119  120 1    
   236  119  240 1    
   237  120  121 1    
   238  120  124 1    
   239  120  241 1    
   240  121  122 am   BACKBONE|DICT|INTERRES
   241  121  123 2    
   242  122  242 1    
   243  122  243 1    
   244  124  125 1    
   245  124  244 1    
   246  124  245 1    
   247  125  126 1    
   248  126  246 1    
   249  126  247 1    
@<TRIPOS>SUBSTRUCTURE
     1 UNK         1 GROUP             0       ****    0 ROOT    
