@<TRIPOS>MOLECULE
3R540
247   249    1
SMALL
USER_CHARGES


@<TRIPOS>ATOM
      1 CA         -4.2831  -13.4265  -50.3192 C.3       0 UNK        -0.1800 
      2 C          -3.0675  -13.7746  -49.4729 C.2       0 UNK         0.5000 
      3 O          -2.9228  -13.2604  -48.3644 O.2       0 UNK        -0.5000 
      4 N          -2.2033  -14.6662  -49.9792 N.am      1 UNK        -0.5000 
      5 CA         -0.9584  -15.1187  -49.3351 C.3       1 UNK         0.1400 
      6 C6         -0.1214  -16.0115  -50.2929 C.3       23 UNK        -0.0398 
      7 S7          1.6556  -15.5925  -50.3037 S.3       23 UNK        -0.2404 
      8 C8          2.3756  -16.8922  -49.2406 C.3       23 UNK        -0.0205 
      9 C9          2.5666  -18.2747  -49.8740 C.ar      23 UNK        -0.0193 
     10 C10         1.9488  -18.6664  -51.0703 C.ar      23 UNK        -0.1150 
     11 C11         2.1228  -19.9577  -51.5776 C.ar      23 UNK        -0.0193 
     12 C12         2.9256  -20.8679  -50.8874 C.ar      23 UNK        -0.1150 
     13 C13         3.5618  -20.4911  -49.7040 C.ar      23 UNK        -0.0193 
     14 C14         3.3731  -19.1997  -49.2024 C.ar      23 UNK        -0.1150 
     15 C15         4.4828  -21.4614  -48.9829 C.3       23 UNK        -0.0205 
     16 S16         3.7167  -22.1454  -47.4841 S.3       23 UNK        -0.2404 
     17 C17         2.7857  -23.5948  -48.1147 C.3       23 UNK        -0.0398 
     18 CA          1.3521  -23.7382  -47.5305 C.3       11 UNK         0.1400 
     19 N           1.3188  -23.3965  -46.1074 N.am      11 UNK        -0.5000 
     20 C           0.2857  -23.4896  -45.2623 C.2       10 UNK         0.5000 
     21 O          -0.7944  -24.0042  -45.5482 O.2       10 UNK        -0.5000 
     22 CA          0.4901  -22.8164  -43.8875 C.3       10 UNK         0.1400 
     23 CB          1.0422  -23.8213  -42.8672 C.3       10 UNK        -0.1800 
     24 N           1.3887  -21.6574  -43.9609 N.am      10 UNK        -0.5000 
     25 C           1.1559  -20.5554  -44.6836 C.2       9 UNK         0.5000 
     26 O           0.0876  -20.3581  -45.2671 O.2       9 UNK        -0.5000 
     27 CA          2.3220  -19.5509  -44.8285 C.3       9 UNK         0.1400 
     28 CB          1.9342  -18.3316  -45.6803 C.3       9 UNK        -0.1800 
     29 N           2.9249  -19.1045  -43.5634 N.am      9 UNK        -0.5000 
     30 C           3.7708  -19.8436  -42.8285 C.2       8 UNK         0.5000 
     31 O           3.9762  -21.0383  -43.0507 O.2       8 UNK        -0.5000 
     32 CA          4.5691  -19.1716  -41.6964 C.3       8 UNK         0.1400 
     33 CB          6.0136  -18.9204  -42.1802 C.3       8 UNK        -0.1800 
     34 N           3.9885  -17.9286  -41.1758 N.am      8 UNK        -0.5000 
     35 C           4.3772  -17.3582  -40.0242 C.2       7 UNK         0.5000 
     36 O           5.2005  -17.8576  -39.2555 O.2       7 UNK        -0.5000 
     37 CA          3.7431  -16.0078  -39.6567 C.3       7 UNK         0.1400 
     38 CB          4.1784  -14.8967  -40.6277 C.3       7 UNK        -0.1800 
     39 N           2.2881  -16.1085  -39.6328 N.am      7 UNK        -0.5000 
     40 C           1.5681  -16.4592  -38.5571 C.2       6 UNK         0.5000 
     41 O           2.0563  -16.6758  -37.4473 O.2       6 UNK        -0.5000 
     42 CA          0.0427  -16.5892  -38.7447 C.3       6 UNK         0.1400 
     43 CB         -0.6664  -15.3035  -38.2923 C.3       6 UNK        -0.1800 
     44 N          -0.3372  -16.8767  -40.1275 N.am      6 UNK        -0.5000 
     45 C          -0.1092  -18.0392  -40.7532 C.2       5 UNK         0.5000 
     46 O           0.3579  -19.0359  -40.2024 O.2       5 UNK        -0.5000 
     47 CA         -0.4106  -18.0774  -42.2611 C.3       5 UNK         0.1400 
     48 CB         -1.8015  -18.6644  -42.5170 C.3       5 UNK        -0.1800 
     49 N          -0.2876  -16.7711  -42.9221 N.am      5 UNK        -0.5000 
     50 C           0.8650  -16.0916  -43.0375 C.2       4 UNK         0.5000 
     51 O           1.9329  -16.5327  -42.6071 O.2       4 UNK        -0.5000 
     52 CA          0.8535  -14.7172  -43.7384 C.3       4 UNK         0.1400 
     53 CB          1.9631  -14.6237  -44.7990 C.3       4 UNK        -0.1800 
     54 N          -0.4297  -14.4064  -44.3668 N.am      4 UNK        -0.5000 
     55 C          -1.4573  -13.7922  -43.7610 C.2       3 UNK         0.5000 
     56 O          -1.4150  -13.3826  -42.6008 O.2       3 UNK        -0.5000 
     57 CA         -2.7656  -13.6454  -44.5698 C.3       3 UNK         0.1400 
     58 CB         -2.8426  -12.2546  -45.2158 C.3       3 UNK        -0.1800 
     59 N          -2.9172  -14.6705  -45.6071 N.am      3 UNK        -0.5000 
     60 C          -3.0128  -15.9850  -45.3534 C.2       2 UNK         0.5000 
     61 O          -3.1390  -16.4318  -44.2153 O.2       2 UNK        -0.5000 
     62 CA         -2.8785  -16.9731  -46.5311 C.3       2 UNK         0.1400 
     63 CB         -4.2035  -17.7025  -46.8035 C.3       2 UNK        -0.1800 
     64 N          -2.4008  -16.3639  -47.7742 N.am      2 UNK        -0.5000 
     65 C          -1.1935  -15.8118  -47.9702 C.2       1 UNK         0.5000 
     66 O          -0.3152  -15.7904  -47.1088 O.2       1 UNK        -0.5000 
     67 C           0.3104  -22.9679  -48.3720 C.2       11 UNK         0.5000 
     68 O          -0.2355  -23.5428  -49.3143 O.2       11 UNK        -0.5000 
     69 N           0.0253  -21.7087  -48.0096 N.am      12 UNK        -0.5000 
     70 CA         -1.0331  -20.9110  -48.6258 C.3       12 UNK         0.1400 
     71 CB         -0.7235  -19.4199  -48.4708 C.3       12 UNK        -0.1800 
     72 C          -2.3993  -21.2303  -48.0073 C.2       12 UNK         0.5000 
     73 O          -3.3778  -21.3607  -48.7430 O.2       12 UNK        -0.5000 
     74 N          -2.4371  -21.3690  -46.6725 N.am      13 UNK        -0.5000 
     75 CA         -3.6374  -21.6705  -45.8859 C.3       13 UNK         0.1400 
     76 CB         -3.2846  -21.6992  -44.3937 C.3       13 UNK        -0.1800 
     77 C          -4.3208  -22.9885  -46.2884 C.2       13 UNK         0.5000 
     78 O          -5.5494  -23.0461  -46.3156 O.2       13 UNK        -0.5000 
     79 N          -3.5177  -23.9966  -46.6558 N.am      14 UNK        -0.5000 
     80 CA         -3.9593  -25.2919  -47.1802 C.3       14 UNK         0.1400 
     81 CB         -2.7263  -26.1830  -47.3945 C.3       14 UNK        -0.1800 
     82 C          -4.7855  -25.1985  -48.4812 C.2       14 UNK         0.5000 
     83 O          -5.6158  -26.0725  -48.7321 O.2       14 UNK        -0.5000 
     84 N          -4.5581  -24.1391  -49.2681 N.am      15 UNK        -0.5000 
     85 CA         -5.2938  -23.8136  -50.4901 C.3       15 UNK         0.1400 
     86 CB         -4.2651  -23.4843  -51.5848 C.3       15 UNK        -0.1800 
     87 C          -6.2551  -22.6245  -50.2869 C.2       15 UNK         0.5000 
     88 O          -6.8788  -22.1839  -51.2553 O.2       15 UNK        -0.5000 
     89 N          -6.3040  -22.0739  -49.0622 N.am      16 UNK        -0.5000 
     90 CA         -6.9910  -20.8448  -48.6386 C.3       16 UNK         0.1400 
     91 CB         -8.5175  -21.0596  -48.6658 C.3       16 UNK        -0.1800 
     92 C          -6.5682  -19.5799  -49.4237 C.2       16 UNK         0.5000 
     93 O          -7.3024  -18.5911  -49.4256 O.2       16 UNK        -0.5000 
     94 N          -5.4195  -19.6557  -50.1160 N.am      17 UNK        -0.5000 
     95 CA         -4.9458  -18.7549  -51.1739 C.3       17 UNK         0.1400 
     96 CB         -4.4364  -17.4325  -50.5702 C.3       17 UNK        -0.1800 
     97 C          -5.9662  -18.5485  -52.3227 C.2       17 UNK         0.5000 
     98 O          -5.9642  -17.4928  -52.9589 O.2       17 UNK        -0.5000 
     99 N          -6.8317  -19.5474  -52.5512 N.am      18 UNK        -0.5000 
    100 CA        -7.9542  -19.4944  -53.4860 C.3       18 UNK         0.1400 
    101 CB        -9.2697  -19.5045  -52.6907 C.3       18 UNK        -0.1800 
    102 C         -7.9127  -20.6636  -54.4791 C.2       18 UNK         0.5000 
    103 O         -8.1269  -20.4467  -55.6724 O.2       18 UNK        -0.5000 
    104 N         -7.6213  -21.8774  -53.9877 N.am      19 UNK        -0.5000 
    105 CA        -7.4687  -23.0817  -54.8117 C.3       19 UNK         0.1400 
    106 CB        -7.5996  -24.3244  -53.9178 C.3       19 UNK        -0.1800 
    107 C         -6.1345  -23.1027  -55.5840 C.2       19 UNK         0.5000 
    108 O         -6.0308  -23.7726  -56.6121 O.2       19 UNK        -0.5000 
    109 N         -5.1509  -22.3543  -55.0786 N.am      20 UNK        -0.5000 
    110 CA        -3.8400  -22.1076  -55.6562 C.3       20 UNK         0.1400 
    111 CB        -2.8949  -23.2838  -55.3541 C.3       20 UNK        -0.1800 
    112 C         -3.3201  -20.8038  -55.0381 C.2       20 UNK         0.5000 
    113 O         -3.7332  -20.4480  -53.9308 O.2       20 UNK        -0.5000 
    114 N         -2.4219  -20.1224  -55.7501 N.am      21 UNK        -0.5000 
    115 CA        -1.7687  -18.8928  -55.3180 C.3       21 UNK         0.1400 
    116 CB        -2.6313  -17.6770  -55.6982 C.3       21 UNK        -0.1800 
    117 C         -0.3793  -18.8279  -55.9650 C.2       21 UNK         0.5000 
    118 O         -0.1638  -19.4433  -57.0134 O.2       21 UNK        -0.5000 
    119 N          0.5304  -18.0939  -55.3185 N.am      22 UNK        -0.5000 
    120 CA         1.9551  -17.9925  -55.6828 C.3       22 UNK         0.1400 
    121 C          2.3870  -16.5465  -56.0670 C.2       22 UNK         0.5000 
    122 N          1.4759  -15.5885  -56.1907 N.am      22 UNK        -0.7600 
    123 O          3.5688  -16.2871  -56.2774 O.2       22 UNK        -0.5000 
    124 C124        2.8620  -18.5875  -54.5712 C.3       23 UNK        -0.0398 
    125 S125        2.5734  -20.3717  -54.2906 S.3       23 UNK        -0.2404 
    126 C126        1.4351  -20.3781  -52.8667 C.3       23 UNK        -0.0205 
    127 H127       -4.2896  -13.9700  -51.2644 H         1 UNK         0.0600 
    128 H128       -4.2930  -12.3591  -50.5394 H         1 UNK         0.0600 
    129 H129       -5.1975  -13.6733  -49.7796 H         1 UNK         0.0600 
    130 H130       -2.3794  -15.0384  -50.9010 H         1 UNK         0.3000 
    131 H131       -0.3933  -14.2090  -49.1205 H         1 UNK         0.0600 
    132 H132       -0.2610  -17.0729  -50.0901 H         1 UNK         0.0800 
    133 H133       -0.4546  -15.8787  -51.3231 H         1 UNK         0.0800 
    134 H134        1.7610  -16.9925  -48.3468 H         1 UNK         0.0800 
    135 H135        3.3471  -16.5305  -48.9006 H         1 UNK         0.0800 
    136 H136        1.3228  -17.9781  -51.6159 H         1 UNK         0.1150 
    137 H137        3.0662  -21.8640  -51.2830 H         1 UNK         0.1150 
    138 H138        3.8596  -18.9149  -48.2798 H         1 UNK         0.1150 
    139 H139        4.7999  -22.2701  -49.6432 H         1 UNK         0.0800 
    140 H140        5.3939  -20.9345  -48.6958 H         1 UNK         0.0800 
    141 H141        3.3640  -24.4787  -47.8428 H         1 UNK         0.0800 
    142 H142        2.7702  -23.5891  -49.2063 H         1 UNK         0.0800 
    143 H143        1.0728  -24.7916  -47.6012 H         1 UNK         0.0600 
    144 H144        2.1595  -22.9527  -45.7662 H         1 UNK         0.3000 
    145 H145       -0.4798  -22.4652  -43.5339 H         1 UNK         0.0600 
    146 H146        1.1273  -23.3710  -41.8780 H         1 UNK         0.0600 
    147 H147        0.3836  -24.6861  -42.7754 H         1 UNK         0.0600 
    148 H148        2.0287  -24.1870  -43.1553 H         1 UNK         0.0600 
    149 H149        2.2978  -21.7373  -43.5117 H         1 UNK         0.3000 
    150 H150        3.0999  -20.0745  -45.3871 H         1 UNK         0.0600 
    151 H151        1.6637  -18.6460  -46.6880 H         1 UNK         0.0600 
    152 H152        2.7610  -17.6278  -45.7727 H         1 UNK         0.0600 
    153 H153        1.0742  -17.8031  -45.2721 H         1 UNK         0.0600 
    154 H154        2.7548  -18.1376  -43.3116 H         1 UNK         0.3000 
    155 H155        4.5993  -19.8960  -40.8797 H         1 UNK         0.0600 
    156 H156        6.4493  -19.8225  -42.6122 H         1 UNK         0.0600 
    157 H157        6.6687  -18.6158  -41.3645 H         1 UNK         0.0600 
    158 H158        6.0470  -18.1425  -42.9438 H         1 UNK         0.0600 
    159 H159        3.2782  -17.4654  -41.7352 H         1 UNK         0.3000 
    160 H160        4.1032  -15.7278  -38.6642 H         1 UNK         0.0600 
    161 H161        3.8749  -15.0978  -41.6545 H         1 UNK         0.0600 
    162 H162        5.2635  -14.7864  -40.6264 H         1 UNK         0.0600 
    163 H163        3.7549  -13.9350  -40.3378 H         1 UNK         0.0600 
    164 H164        1.8193  -16.0114  -40.5227 H         1 UNK         0.3000 
    165 H165       -0.3008  -17.4119  -38.1138 H         1 UNK         0.0600 
    166 H166       -1.7498  -15.4064  -38.3576 H         1 UNK         0.0600 
    167 H167       -0.4255  -15.0689  -37.2546 H         1 UNK         0.0600 
    168 H168       -0.3727  -14.4464  -38.8997 H         1 UNK         0.0600 
    169 H169       -0.7376  -16.1162  -40.6576 H         1 UNK         0.3000 
    170 H170        0.3197  -18.7471  -42.7105 H         1 UNK         0.0600 
    171 H171       -1.8903  -19.6625  -42.0865 H         1 UNK         0.0600 
    172 H172       -2.5875  -18.0457  -42.0827 H         1 UNK         0.0600 
    173 H173       -1.9899  -18.7500  -43.5866 H         1 UNK         0.0600 
    174 H174       -1.1381  -16.3788  -43.3070 H         1 UNK         0.3000 
    175 H175        1.0703  -13.9725  -42.9701 H         1 UNK         0.0600 
    176 H176        2.9465  -14.7983  -44.3607 H         1 UNK         0.0600 
    177 H177        1.8247  -15.3540  -45.5955 H         1 UNK         0.0600 
    178 H178        1.9859  -13.6346  -45.2563 H         1 UNK         0.0600 
    179 H179       -0.5467  -14.7421  -45.3175 H         1 UNK         0.3000 
    180 H180       -3.5991  -13.7459  -43.8716 H         1 UNK         0.0600 
    181 H181       -2.0329  -12.0988  -45.9299 H         1 UNK         0.0600 
    182 H182       -2.7735  -11.4686  -44.4628 H         1 UNK         0.0600 
    183 H183       -3.7860  -12.1168  -45.7445 H         1 UNK         0.0600 
    184 H184       -2.8371  -14.3546  -46.5676 H         1 UNK         0.3000 
    185 H185       -2.1436  -17.7182  -46.2210 H         1 UNK         0.0600 
    186 H186       -4.0720  -18.4959  -47.5394 H         1 UNK         0.0600 
    187 H187       -4.5882  -18.1693  -45.8958 H         1 UNK         0.0600 
    188 H188       -4.9705  -17.0217  -47.1745 H         1 UNK         0.0600 
    189 H189       -3.0755  -16.2872  -48.5199 H         1 UNK         0.3000 
    190 H190        0.4782  -21.3109  -47.1983 H         1 UNK         0.3000 
    191 H191       -1.0807  -21.1332  -49.6943 H         1 UNK         0.0600 
    192 H192       -0.6955  -19.1101  -47.4272 H         1 UNK         0.0600 
    193 H193       -1.4797  -18.8184  -48.9749 H         1 UNK         0.0600 
    194 H194        0.2390  -19.1786  -48.9108 H         1 UNK         0.0600 
    195 H195       -1.5825  -21.2089  -46.1508 H         1 UNK         0.3000 
    196 H196       -4.3458  -20.8575  -46.0566 H         1 UNK         0.0600 
    197 H197       -4.1873  -21.7011  -43.7818 H         1 UNK         0.0600 
    198 H198       -2.6971  -20.8301  -44.1097 H         1 UNK         0.0600 
    199 H199       -2.7138  -22.5897  -44.1318 H         1 UNK         0.0600 
    200 H200       -2.5166  -23.8793  -46.5283 H         1 UNK         0.3000 
    201 H201       -4.5934  -25.7565  -46.4226 H         1 UNK         0.0600 
    202 H202       -2.1877  -26.3417  -46.4600 H         1 UNK         0.0600 
    203 H203       -2.0316  -25.7399  -48.1095 H         1 UNK         0.0600 
    204 H204       -3.0115  -27.1645  -47.7754 H         1 UNK         0.0600 
    205 H205       -3.8706  -23.4547  -48.9753 H         1 UNK         0.3000 
    206 H206       -5.8921  -24.6646  -50.8204 H         1 UNK         0.0600 
    207 H207       -3.5879  -24.3215  -51.7542 H         1 UNK         0.0600 
    208 H208       -4.7536  -23.2697  -52.5335 H         1 UNK         0.0600 
    209 H209       -3.6615  -22.6135  -51.3246 H         1 UNK         0.0600 
    210 H210       -5.7717  -22.5271  -48.3295 H         1 UNK         0.3000 
    211 H211       -6.6947  -20.6709  -47.6033 H         1 UNK         0.0600 
    212 H212       -8.8897  -21.1834  -49.6831 H         1 UNK         0.0600 
    213 H213       -9.0433  -20.2116  -48.2258 H         1 UNK         0.0600 
    214 H214       -8.8000  -21.9446  -48.0956 H         1 UNK         0.0600 
    215 H215       -4.8494  -20.4799  -49.9602 H         1 UNK         0.3000 
    216 H216       -4.0874  -19.2525  -51.6253 H         1 UNK         0.0600 
    217 H217       -4.0174  -16.7831  -51.3393 H         1 UNK         0.0600 
    218 H218       -3.6456  -17.6269  -49.8489 H         1 UNK         0.0600 
    219 H219       -5.2320  -16.8812  -50.0682 H         1 UNK         0.0600 
    220 H220       -6.7542  -20.3900  -51.9907 H         1 UNK         0.3000 
    221 H221       -7.9206  -18.5737  -54.0720 H         1 UNK         0.0600 
    222 H222       -9.3671  -20.4053  -52.0836 H         1 UNK         0.0600 
    223 H223       -9.3297  -18.6454  -52.0221 H         1 UNK         0.0600 
    224 H224      -10.1314  -19.4605  -53.3579 H         1 UNK         0.0600 
    225 H225       -7.4594  -21.9898  -52.9897 H         1 UNK         0.3000 
    226 H226       -8.2766  -23.1066  -55.5460 H         1 UNK         0.0600 
    227 H227       -8.5555  -24.3345  -53.3940 H         1 UNK         0.0600 
    228 H228       -7.5435  -25.2383  -54.5104 H         1 UNK         0.0600 
    229 H229       -6.8082  -24.3703  -53.1707 H         1 UNK         0.0600 
    230 H230       -5.3338  -21.7978  -54.2526 H         1 UNK         0.3000 
    231 H231       -3.9399  -21.9749  -56.7355 H         1 UNK         0.0600 
    232 H232       -3.2710  -24.2146  -55.7786 H         1 UNK         0.0600 
    233 H233       -2.7692  -23.4322  -54.2810 H         1 UNK         0.0600 
    234 H234       -1.9060  -23.1095  -55.7797 H         1 UNK         0.0600 
    235 H235       -2.0721  -20.4908  -56.6262 H         1 UNK         0.3000 
    236 H236       -1.6360  -18.9155  -54.2339 H         1 UNK         0.0600 
    237 H237       -2.1575  -16.7453  -55.3875 H         1 UNK         0.0600 
    238 H238       -2.7938  -17.6221  -56.7753 H         1 UNK         0.0600 
    239 H239       -3.6075  -17.7196  -55.2139 H         1 UNK         0.0600 
    240 H240        0.2591  -17.5908  -54.4867 H         1 UNK         0.3000 
    241 H241        2.1390  -18.5733  -56.5883 H         1 UNK         0.0600 
    242 H242        1.7686  -14.6585  -56.4476 H         1 UNK         0.3800 
    243 H243        0.4967  -15.7867  -56.0644 H         1 UNK         0.3800 
    244 H244        3.9134  -18.4839  -54.8443 H         1 UNK         0.0800 
    245 H245        2.7434  -18.0326  -53.6411 H         1 UNK         0.0800 
    246 H246        0.5766  -19.7388  -53.0712 H         1 UNK         0.0800 
    247 H247        1.0345  -21.3856  -52.7457 H         1 UNK         0.0800 
@<TRIPOS>BOND
     1    1    2 1    
     2    1  127 1    
     3    1  128 1    
     4    1  129 1    
     5    2    3 2    
     6    2    4 am   BACKBONE|DICT|INTERRES
     7    4    5 1    
     8    4  130 1    
     9    5    6 1    
    10    5   65 1    
    11    5  131 1    
    12    6    7 1    
    13    6  132 1    
    14    6  133 1    
    15    7    8 1    
    16    8    9 1    
    17    8  134 1    
    18    8  135 1    
    19    9   10 ar   
    20    9   14 ar   
    21   10   11 ar   
    22   10  136 1    
    23   11   12 ar   
    24   11  126 1    
    25   12   13 ar   
    26   12  137 1    
    27   13   14 ar   
    28   13   15 1    
    29   14  138 1    
    30   15   16 1    
    31   15  139 1    
    32   15  140 1    
    33   16   17 1    
    34   17   18 1    
    35   17  141 1    
    36   17  142 1    
    37   18   19 1    
    38   18   67 1    
    39   18  143 1    
    40   19   20 am   BACKBONE|DICT|INTERRES
    41   19  144 1    
    42   20   21 2    
    43   20   22 1    
    44   22   23 1    
    45   22   24 1    
    46   22  145 1    
    47   23  146 1    
    48   23  147 1    
    49   23  148 1    
    50   24   25 am   BACKBONE|DICT|INTERRES
    51   24  149 1    
    52   25   26 2    
    53   25   27 1    
    54   27   28 1    
    55   27   29 1    
    56   27  150 1    
    57   28  151 1    
    58   28  152 1    
    59   28  153 1    
    60   29   30 am   BACKBONE|DICT|INTERRES
    61   29  154 1    
    62   30   31 2    
    63   30   32 1    
    64   32   33 1    
    65   32   34 1    
    66   32  155 1    
    67   33  156 1    
    68   33  157 1    
    69   33  158 1    
    70   34   35 am   BACKBONE|DICT|INTERRES
    71   34  159 1    
    72   35   36 2    
    73   35   37 1    
    74   37   38 1    
    75   37   39 1    
    76   37  160 1    
    77   38  161 1    
    78   38  162 1    
    79   38  163 1    
    80   39   40 am   BACKBONE|DICT|INTERRES
    81   39  164 1    
    82   40   41 2    
    83   40   42 1    
    84   42   43 1    
    85   42   44 1    
    86   42  165 1    
    87   43  166 1    
    88   43  167 1    
    89   43  168 1    
    90   44   45 am   BACKBONE|DICT|INTERRES
    91   44  169 1    
    92   45   46 2    
    93   45   47 1    
    94   47   48 1    
    95   47   49 1    
    96   47  170 1    
    97   48  171 1    
    98   48  172 1    
    99   48  173 1    
   100   49   50 am   BACKBONE|DICT|INTERRES
   101   49  174 1    
   102   50   51 2    
   103   50   52 1    
   104   52   53 1    
   105   52   54 1    
   106   52  175 1    
   107   53  176 1    
   108   53  177 1    
   109   53  178 1    
   110   54   55 am   BACKBONE|DICT|INTERRES
   111   54  179 1    
   112   55   56 2    
   113   55   57 1    
   114   57   58 1    
   115   57   59 1    
   116   57  180 1    
   117   58  181 1    
   118   58  182 1    
   119   58  183 1    
   120   59   60 am   BACKBONE|DICT|INTERRES
   121   59  184 1    
   122   60   61 2    
   123   60   62 1    
   124   62   63 1    
   125   62   64 1    
   126   62  185 1    
   127   63  186 1    
   128   63  187 1    
   129   63  188 1    
   130   64   65 am   BACKBONE|DICT|INTERRES
   131   64  189 1    
   132   65   66 2    
   133   67   68 2    
   134   67   69 am   BACKBONE|DICT|INTERRES
   135   69   70 1    
   136   69  190 1    
   137   70   71 1    
   138   70   72 1    
   139   70  191 1    
   140   71  192 1    
   141   71  193 1    
   142   71  194 1    
   143   72   73 2    
   144   72   74 am   BACKBONE|DICT|INTERRES
   145   74   75 1    
   146   74  195 1    
   147   75   76 1    
   148   75   77 1    
   149   75  196 1    
   150   76  197 1    
   151   76  198 1    
   152   76  199 1    
   153   77   78 2    
   154   77   79 am   BACKBONE|DICT|INTERRES
   155   79   80 1    
   156   79  200 1    
   157   80   81 1    
   158   80   82 1    
   159   80  201 1    
   160   81  202 1    
   161   81  203 1    
   162   81  204 1    
   163   82   83 2    
   164   82   84 am   BACKBONE|DICT|INTERRES
   165   84   85 1    
   166   84  205 1    
   167   85   86 1    
   168   85   87 1    
   169   85  206 1    
   170   86  207 1    
   171   86  208 1    
   172   86  209 1    
   173   87   88 2    
   174   87   89 am   BACKBONE|DICT|INTERRES
   175   89   90 1    
   176   89  210 1    
   177   90   91 1    
   178   90   92 1    
   179   90  211 1    
   180   91  212 1    
   181   91  213 1    
   182   91  214 1    
   183   92   93 2    
   184   92   94 am   BACKBONE|DICT|INTERRES
   185   94   95 1    
   186   94  215 1    
   187   95   96 1    
   188   95   97 1    
   189   95  216 1    
   190   96  217 1    
   191   96  218 1    
   192   96  219 1    
   193   97   98 2    
   194   97   99 am   BACKBONE|DICT|INTERRES
   195   99  100 1    
   196   99  220 1    
   197  100  101 1    
   198  100  102 1    
   199  100  221 1    
   200  101  222 1    
   201  101  223 1    
   202  101  224 1    
   203  102  103 2    
   204  102  104 am   BACKBONE|DICT|INTERRES
   205  104  105 1    
   206  104  225 1    
   207  105  106 1    
   208  105  107 1    
   209  105  226 1    
   210  106  227 1    
   211  106  228 1    
   212  106  229 1    
   213  107  108 2    
   214  107  109 am   BACKBONE|DICT|INTERRES
   215  109  110 1    
   216  109  230 1    
   217  110  111 1    
   218  110  112 1    
   219  110  231 1    
   220  111  232 1    
   221  111  233 1    
   222  111  234 1    
   223  112  113 2    
   224  112  114 am   BACKBONE|DICT|INTERRES
   225  114  115 1    
   226  114  235 1    
   227  115  116 1    
   228  115  117 1    
   229  115  236 1    
   230  116  237 1    
   231  116  238 1    
   232  116  239 1    
   233  117  118 2    
   234  117  119 am   BACKBONE|DICT|INTERRES
   235  119  120 1    
   236  119  240 1    
   237  120  121 1    
   238  120  124 1    
   239  120  241 1    
   240  121  122 am   BACKBONE|DICT|INTERRES
   241  121  123 2    
   242  122  242 1    
   243  122  243 1    
   244  124  125 1    
   245  124  244 1    
   246  124  245 1    
   247  125  126 1    
   248  126  246 1    
   249  126  247 1    
@<TRIPOS>SUBSTRUCTURE
     1 UNK         1 GROUP             0       ****    0 ROOT    
