@<TRIPOS>MOLECULE
3R540
247   249    1
SMALL
USER_CHARGES


@<TRIPOS>ATOM
      1 CA         -4.3679  -13.9783  -41.9883 C.3       0 UNK        -0.1800 
      2 C          -3.9737  -12.9272  -43.0167 C.2       0 UNK         0.5000 
      3 O          -4.1255  -11.7331  -42.7603 O.2       0 UNK        -0.5000 
      4 N          -3.4782  -13.3728  -44.1788 N.am      1 UNK        -0.5000 
      5 CA         -3.0249  -12.5355  -45.2958 C.3       1 UNK         0.1400 
      6 C6         -2.7309  -13.4108  -46.5380 C.3       23 UNK        -0.0398 
      7 S7         -2.3916  -12.4685  -48.0683 S.3       23 UNK        -0.2404 
      8 C8         -3.6193  -13.1482  -49.2346 C.3       23 UNK        -0.0205 
      9 C9         -3.5475  -14.6660  -49.3350 C.ar      23 UNK        -0.0193 
     10 C10        -2.3756  -15.2938  -49.7677 C.ar      23 UNK        -0.1150 
     11 C11        -2.2898  -16.6880  -49.8028 C.ar      23 UNK        -0.0193 
     12 C12        -3.3911  -17.4550  -49.4141 C.ar      23 UNK        -0.1150 
     13 C13        -4.5736  -16.8382  -48.9978 C.ar      23 UNK        -0.0193 
     14 C14        -4.6477  -15.4442  -48.9636 C.ar      23 UNK        -0.1150 
     15 C15        -5.7634  -17.6781  -48.5629 C.3       23 UNK        -0.0205 
     16 S16        -5.9473  -17.7376  -46.7480 S.3       23 UNK        -0.2404 
     17 C17        -4.2998  -18.2900  -46.1855 C.3       23 UNK        -0.0398 
     18 CA         -3.9846  -19.7613  -46.5480 C.3       11 UNK         0.1400 
     19 N          -2.5412  -20.0094  -46.6189 N.am      11 UNK        -0.5000 
     20 C          -1.9675  -21.1516  -47.0223 C.2       10 UNK         0.5000 
     21 O          -2.5982  -22.1254  -47.4290 O.2       10 UNK        -0.5000 
     22 CA         -0.4395  -21.2497  -46.9050 C.3       10 UNK         0.1400 
     23 CB          0.2581  -20.6273  -48.1230 C.3       10 UNK        -0.1800 
     24 N           0.0385  -20.6323  -45.6689 N.am      10 UNK        -0.5000 
     25 C          -0.1210  -21.1798  -44.4549 C.2       9 UNK         0.5000 
     26 O          -0.5914  -22.3018  -44.2684 O.2       9 UNK        -0.5000 
     27 CA          0.2725  -20.3137  -43.2454 C.3       9 UNK         0.1400 
     28 CB          1.7589  -20.5018  -42.9070 C.3       9 UNK        -0.1800 
     29 N          -0.0129  -18.8927  -43.4588 N.am      9 UNK        -0.5000 
     30 C          -1.2499  -18.3760  -43.5001 C.2       8 UNK         0.5000 
     31 O          -2.2708  -19.0469  -43.3513 O.2       8 UNK        -0.5000 
     32 CA         -1.3834  -16.8705  -43.8047 C.3       8 UNK         0.1400 
     33 CB         -1.3432  -16.0605  -42.5012 C.3       8 UNK        -0.1800 
     34 N          -0.3715  -16.3585  -44.7323 N.am      8 UNK        -0.5000 
     35 C          -0.1791  -16.8167  -45.9789 C.2       7 UNK         0.5000 
     36 O          -0.8654  -17.7026  -46.4883 O.2       7 UNK        -0.5000 
     37 CA          1.0024  -16.2398  -46.7825 C.3       7 UNK         0.1400 
     38 CB          1.4182  -14.8249  -46.3438 C.3       7 UNK        -0.1800 
     39 N           2.1747  -17.1240  -46.7947 N.am      7 UNK        -0.5000 
     40 C           2.7682  -17.7245  -45.7488 C.2       6 UNK         0.5000 
     41 O           2.3642  -17.6674  -44.5877 O.2       6 UNK        -0.5000 
     42 CA          4.0602  -18.4990  -46.0569 C.3       6 UNK         0.1400 
     43 CB          3.8582  -19.5655  -47.1461 C.3       6 UNK        -0.1800 
     44 N           5.1073  -17.5603  -46.4563 N.am      6 UNK        -0.5000 
     45 C           5.8469  -16.8608  -45.5852 C.2       5 UNK         0.5000 
     46 O           5.8479  -17.0764  -44.3709 O.2       5 UNK        -0.5000 
     47 CA          6.7499  -15.7375  -46.1446 C.3       5 UNK         0.1400 
     48 CB          6.4646  -15.3646  -47.6181 C.3       5 UNK        -0.1800 
     49 N           6.7095  -14.5456  -45.2873 N.am      5 UNK        -0.5000 
     50 C           5.6245  -13.8183  -44.9829 C.2       4 UNK         0.5000 
     51 O           4.5121  -13.9880  -45.4854 O.2       4 UNK        -0.5000 
     52 CA          5.8262  -12.6832  -43.9642 C.3       4 UNK         0.1400 
     53 CB          6.0834  -11.3514  -44.6863 C.3       4 UNK        -0.1800 
     54 N           4.6532  -12.5354  -43.1038 N.am      4 UNK        -0.5000 
     55 C           4.3291  -13.3607  -42.0981 C.2       3 UNK         0.5000 
     56 O           5.0368  -14.3008  -41.7348 O.2       3 UNK        -0.5000 
     57 CA          3.0075  -13.0802  -41.3539 C.3       3 UNK         0.1400 
     58 CB          3.2869  -12.3894  -40.0094 C.3       3 UNK        -0.1800 
     59 N           2.0937  -12.2411  -42.1334 N.am      3 UNK        -0.5000 
     60 C           1.1965  -12.7152  -43.0045 C.2       2 UNK         0.5000 
     61 O           0.9735  -13.9153  -43.1885 O.2       2 UNK        -0.5000 
     62 CA          0.4350  -11.6683  -43.8268 C.3       2 UNK         0.1400 
     63 CB          1.3075  -11.1703  -44.9975 C.3       2 UNK        -0.1800 
     64 N          -0.7932  -12.2837  -44.3162 N.am      2 UNK        -0.5000 
     65 C          -1.8178  -11.6545  -44.9019 C.2       1 UNK         0.5000 
     66 O          -1.8530  -10.4397  -45.1057 O.2       1 UNK        -0.5000 
     67 C          -4.7032  -20.7500  -45.6071 C.2       11 UNK         0.5000 
     68 O          -5.7151  -21.3333  -45.9973 O.2       11 UNK        -0.5000 
     69 N          -4.1211  -20.9855  -44.4221 N.am      12 UNK        -0.5000 
     70 CA         -4.5715  -21.9807  -43.4436 C.3       12 UNK         0.1400 
     71 CB         -3.7347  -21.8374  -42.1636 C.3       12 UNK        -0.1800 
     72 C          -4.5158  -23.4323  -43.9644 C.2       12 UNK         0.5000 
     73 O          -5.2817  -24.2747  -43.4960 O.2       12 UNK        -0.5000 
     74 N          -3.6392  -23.6863  -44.9437 N.am      13 UNK        -0.5000 
     75 CA         -3.5010  -24.9493  -45.6647 C.3       13 UNK         0.1400 
     76 CB         -2.0052  -25.2012  -45.9261 C.3       13 UNK        -0.1800 
     77 C          -4.3199  -24.9733  -46.9742 C.2       13 UNK         0.5000 
     78 O          -4.0602  -25.8288  -47.8190 O.2       13 UNK        -0.5000 
     79 N          -5.2763  -24.0452  -47.1399 N.am      14 UNK        -0.5000 
     80 CA         -6.1686  -23.8837  -48.2947 C.3       14 UNK         0.1400 
     81 CB         -7.0998  -25.1047  -48.4511 C.3       14 UNK        -0.1800 
     82 C          -5.3995  -23.5388  -49.5855 C.2       14 UNK         0.5000 
     83 O          -5.5506  -24.2148  -50.6041 O.2       14 UNK        -0.5000 
     84 N          -4.5523  -22.5042  -49.4934 N.am      15 UNK        -0.5000 
     85 CA         -3.6204  -22.0243  -50.5210 C.3       15 UNK         0.1400 
     86 CB         -4.3768  -21.4399  -51.7288 C.3       15 UNK        -0.1800 
     87 C          -2.5923  -23.1074  -50.9027 C.2       15 UNK         0.5000 
     88 O          -2.3426  -23.3451  -52.0886 O.2       15 UNK        -0.5000 
     89 N          -2.0523  -23.7592  -49.8610 N.am      16 UNK        -0.5000 
     90 CA         -1.1375  -24.9033  -49.8941 C.3       16 UNK         0.1400 
     91 CB          0.2441  -24.4673  -50.4232 C.3       16 UNK        -0.1800 
     92 C          -1.7363  -26.0918  -50.6731 C.2       16 UNK         0.5000 
     93 O          -1.1432  -26.5532  -51.6466 O.2       16 UNK        -0.5000 
     94 N          -2.9398  -26.5222  -50.2671 N.am      17 UNK        -0.5000 
     95 CA         -3.7812  -27.5392  -50.9120 C.3       17 UNK         0.1400 
     96 CB         -3.1657  -28.9421  -50.7325 C.3       17 UNK        -0.1800 
     97 C          -4.0938  -27.1993  -52.3863 C.2       17 UNK         0.5000 
     98 O          -4.0800  -28.0797  -53.2484 O.2       17 UNK        -0.5000 
     99 N          -4.3235  -25.9035  -52.6393 N.am      18 UNK        -0.5000 
    100 CA        -4.5107  -25.2442  -53.9329 C.3       18 UNK         0.1400 
    101 CB        -5.8050  -25.7339  -54.6135 C.3       18 UNK        -0.1800 
    102 C         -3.2891  -25.3035  -54.8788 C.2       18 UNK         0.5000 
    103 O         -3.4335  -24.9567  -56.0519 O.2       18 UNK        -0.5000 
    104 N         -2.1093  -25.7112  -54.3841 N.am      19 UNK        -0.5000 
    105 CA        -0.8790  -25.7794  -55.1757 C.3       19 UNK         0.1400 
    106 CB         0.1187  -26.7511  -54.5284 C.3       19 UNK        -0.1800 
    107 C         -0.2348  -24.3972  -55.3705 C.2       19 UNK         0.5000 
    108 O          0.3479  -24.1534  -56.4281 O.2       19 UNK        -0.5000 
    109 N         -0.3567  -23.5141  -54.3675 N.am      20 UNK        -0.5000 
    110 CA         0.0781  -22.1201  -54.4700 C.3       20 UNK         0.1400 
    111 CB         0.3913  -21.5573  -53.0746 C.3       20 UNK        -0.1800 
    112 C         -0.9839  -21.2673  -55.1832 C.2       20 UNK         0.5000 
    113 O         -0.6266  -20.3811  -55.9594 O.2       20 UNK        -0.5000 
    114 N         -2.2657  -21.5668  -54.9103 N.am      21 UNK        -0.5000 
    115 CA        -3.4719  -20.9614  -55.4971 C.3       21 UNK         0.1400 
    116 CB        -3.5778  -21.3155  -56.9944 C.3       21 UNK        -0.1800 
    117 C         -3.6112  -19.4423  -55.2394 C.2       21 UNK         0.5000 
    118 O         -4.3239  -18.7527  -55.9702 O.2       21 UNK        -0.5000 
    119 N         -2.9284  -18.9525  -54.1999 N.am      22 UNK        -0.5000 
    120 CA        -2.8621  -17.5461  -53.7808 C.3       22 UNK         0.1400 
    121 C         -4.1241  -17.0056  -53.0466 C.2       22 UNK         0.5000 
    122 N         -5.0806  -17.8411  -52.6596 N.am      22 UNK        -0.7600 
    123 O         -4.2530  -15.7992  -52.8597 O.2       22 UNK        -0.5000 
    124 C124       -1.5497  -17.2670  -52.9998 C.3       23 UNK        -0.0398 
    125 S125       -1.2133  -18.4650  -51.6557 S.3       23 UNK        -0.2404 
    126 C126       -0.9960  -17.3658  -50.2226 C.3       23 UNK        -0.0205 
    127 H127       -3.7071  -13.9222  -41.1232 H         1 UNK         0.0600 
    128 H128       -4.3113  -14.9877  -42.3964 H         1 UNK         0.0600 
    129 H129       -5.3900  -13.8084  -41.6498 H         1 UNK         0.0600 
    130 H130       -3.4100  -14.3684  -44.3242 H         1 UNK         0.3000 
    131 H131       -3.8499  -11.8653  -45.5474 H         1 UNK         0.0600 
    132 H132       -1.8881  -14.0783  -46.3549 H         1 UNK         0.0800 
    133 H133       -3.5870  -14.0631  -46.7093 H         1 UNK         0.0800 
    134 H134       -4.6147  -12.8250  -48.9258 H         1 UNK         0.0800 
    135 H135       -3.4484  -12.7181  -50.2223 H         1 UNK         0.0800 
    136 H136       -1.5239  -14.6922  -50.0522 H         1 UNK         0.1150 
    137 H137       -3.3215  -18.5332  -49.4328 H         1 UNK         0.1150 
    138 H138       -5.5573  -14.9685  -48.6248 H         1 UNK         0.1150 
    139 H139       -6.6745  -17.2594  -48.9925 H         1 UNK         0.0800 
    140 H140       -5.6862  -18.6905  -48.9612 H         1 UNK         0.0800 
    141 H141       -4.2334  -18.1301  -45.1084 H         1 UNK         0.0800 
    142 H142       -3.5554  -17.6203  -46.6156 H         1 UNK         0.0800 
    143 H143       -4.3590  -19.9561  -47.5535 H         1 UNK         0.0600 
    144 H144       -1.9359  -19.2308  -46.3708 H         1 UNK         0.3000 
    145 H145       -0.1858  -22.3119  -46.8883 H         1 UNK         0.0600 
    146 H146       -0.2338  -20.9128  -49.0544 H         1 UNK         0.0600 
    147 H147        0.2680  -19.5404  -48.0710 H         1 UNK         0.0600 
    148 H148        1.2911  -20.9651  -48.1936 H         1 UNK         0.0600 
    149 H149        0.3692  -19.6804  -45.7299 H         1 UNK         0.3000 
    150 H150       -0.3141  -20.6519  -42.3884 H         1 UNK         0.0600 
    151 H151        1.9700  -21.5414  -42.6536 H         1 UNK         0.0600 
    152 H152        2.0501  -19.8925  -42.0512 H         1 UNK         0.0600 
    153 H153        2.4030  -20.2342  -43.7447 H         1 UNK         0.0600 
    154 H154        0.7829  -18.2895  -43.6518 H         1 UNK         0.3000 
    155 H155       -2.3587  -16.7168  -44.2694 H         1 UNK         0.0600 
    156 H156       -2.1059  -16.4045  -41.8014 H         1 UNK         0.0600 
    157 H157       -1.5238  -15.0021  -42.6832 H         1 UNK         0.0600 
    158 H158       -0.3765  -16.1512  -42.0039 H         1 UNK         0.0600 
    159 H159        0.2840  -15.6824  -44.3558 H         1 UNK         0.3000 
    160 H160        0.6527  -16.1687  -47.8134 H         1 UNK         0.0600 
    161 H161        1.9296  -14.8356  -45.3821 H         1 UNK         0.0600 
    162 H162        0.5587  -14.1590  -46.2663 H         1 UNK         0.0600 
    163 H163        2.1033  -14.3812  -47.0662 H         1 UNK         0.0600 
    164 H164        2.5896  -17.2602  -47.7044 H         1 UNK         0.3000 
    165 H165        4.3646  -19.0195  -45.1460 H         1 UNK         0.0600 
    166 H166        4.7760  -20.1295  -47.3133 H         1 UNK         0.0600 
    167 H167        3.0938  -20.2810  -46.8423 H         1 UNK         0.0600 
    168 H168        3.5546  -19.1374  -48.1018 H         1 UNK         0.0600 
    169 H169        5.1637  -17.3232  -47.4357 H         1 UNK         0.3000 
    170 H170        7.7714  -16.1169  -46.0930 H         1 UNK         0.0600 
    171 H171        5.4310  -15.0517  -47.7709 H         1 UNK         0.0600 
    172 H172        7.1071  -14.5462  -47.9433 H         1 UNK         0.0600 
    173 H173        6.6617  -16.2048  -48.2848 H         1 UNK         0.0600 
    174 H174        7.5737  -14.3339  -44.8087 H         1 UNK         0.3000 
    175 H175        6.6916  -12.9131  -43.3387 H         1 UNK         0.0600 
    176 H176        5.2424  -11.0688  -45.3212 H         1 UNK         0.0600 
    177 H177        6.2545  -10.5430  -43.9752 H         1 UNK         0.0600 
    178 H178        6.9670  -11.4166  -45.3226 H         1 UNK         0.0600 
    179 H179        3.9946  -11.8190  -43.3649 H         1 UNK         0.3000 
    180 H180        2.5353  -14.0432  -41.1469 H         1 UNK         0.0600 
    181 H181        3.7688  -11.4204  -40.1458 H         1 UNK         0.0600 
    182 H182        3.9438  -12.9979  -39.3864 H         1 UNK         0.0600 
    183 H183        2.3653  -12.2309  -39.4491 H         1 UNK         0.0600 
    184 H184        2.1957  -11.2422  -42.0229 H         1 UNK         0.3000 
    185 H185        0.1727  -10.8315  -43.1764 H         1 UNK         0.0600 
    186 H186        1.5887  -11.9847  -45.6655 H         1 UNK         0.0600 
    187 H187        0.7942  -10.4151  -45.5920 H         1 UNK         0.0600 
    188 H188        2.2292  -10.7146  -44.6348 H         1 UNK         0.0600 
    189 H189       -0.8450  -13.2769  -44.1325 H         1 UNK         0.3000 
    190 H190       -3.3165  -20.4250  -44.1522 H         1 UNK         0.3000 
    191 H191       -5.6127  -21.7598  -43.2001 H         1 UNK         0.0600 
    192 H192       -2.6763  -22.0179  -42.3546 H         1 UNK         0.0600 
    193 H193       -3.8321  -20.8382  -41.7385 H         1 UNK         0.0600 
    194 H194       -4.0580  -22.5477  -41.4016 H         1 UNK         0.0600 
    195 H195       -3.0596  -22.9273  -45.2762 H         1 UNK         0.3000 
    196 H196       -3.8724  -25.7679  -45.0453 H         1 UNK         0.0600 
    197 H197       -1.4390  -25.1996  -44.9944 H         1 UNK         0.0600 
    198 H198       -1.5744  -24.4399  -46.5753 H         1 UNK         0.0600 
    199 H199       -1.8428  -26.1701  -46.3998 H         1 UNK         0.0600 
    200 H200       -5.3820  -23.3388  -46.4206 H         1 UNK         0.3000 
    201 H201       -6.7985  -23.0203  -48.0757 H         1 UNK         0.0600 
    202 H202       -7.8396  -24.9304  -49.2332 H         1 UNK         0.0600 
    203 H203       -7.6442  -25.3054  -47.5285 H         1 UNK         0.0600 
    204 H204       -6.5510  -26.0076  -48.7202 H         1 UNK         0.0600 
    205 H205       -4.4133  -22.1052  -48.5739 H         1 UNK         0.3000 
    206 H206       -3.0515  -21.2099  -50.0699 H         1 UNK         0.0600 
    207 H207       -5.0867  -20.6760  -51.4127 H         1 UNK         0.0600 
    208 H208       -4.9270  -22.2037  -52.2780 H         1 UNK         0.0600 
    209 H209       -3.6803  -20.9717  -52.4214 H         1 UNK         0.0600 
    210 H210       -2.3444  -23.4572  -48.9374 H         1 UNK         0.3000 
    211 H211       -1.0100  -25.2373  -48.8640 H         1 UNK         0.0600 
    212 H212        0.6405  -23.6299  -49.8491 H         1 UNK         0.0600 
    213 H213        0.9636  -25.2835  -50.3499 H         1 UNK         0.0600 
    214 H214        0.2008  -24.1657  -51.4695 H         1 UNK         0.0600 
    215 H215       -3.3483  -26.1029  -49.4322 H         1 UNK         0.3000 
    216 H216       -4.7363  -27.5239  -50.3849 H         1 UNK         0.0600 
    217 H217       -3.8409  -29.7154  -51.1003 H         1 UNK         0.0600 
    218 H218       -2.2248  -29.0437  -51.2744 H         1 UNK         0.0600 
    219 H219       -2.9721  -29.1546  -49.6811 H         1 UNK         0.0600 
    220 H220       -4.3705  -25.2776  -51.8408 H         1 UNK         0.3000 
    221 H221       -4.6467  -24.1876  -53.7007 H         1 UNK         0.0600 
    222 H222       -5.7236  -26.7707  -54.9406 H         1 UNK         0.0600 
    223 H223       -6.6569  -25.6600  -53.9374 H         1 UNK         0.0600 
    224 H224       -6.0387  -25.1323  -55.4925 H         1 UNK         0.0600 
    225 H225       -2.0367  -25.9732  -53.4064 H         1 UNK         0.3000 
    226 H226       -1.1279  -26.1754  -56.1628 H         1 UNK         0.0600 
    227 H227       -0.3467  -27.7122  -54.3084 H         1 UNK         0.0600 
    228 H228        0.9604  -26.9403  -55.1955 H         1 UNK         0.0600 
    229 H229        0.5279  -26.3526  -53.5998 H         1 UNK         0.0600 
    230 H230       -0.8838  -23.7721  -53.5400 H         1 UNK         0.3000 
    231 H231        0.9978  -22.0725  -55.0572 H         1 UNK         0.0600 
    232 H232        0.7740  -20.5386  -53.1468 H         1 UNK         0.0600 
    233 H233        1.1520  -22.1526  -52.5700 H         1 UNK         0.0600 
    234 H234       -0.4901  -21.5255  -52.4355 H         1 UNK         0.0600 
    235 H235       -2.4294  -22.3013  -54.2341 H         1 UNK         0.3000 
    236 H236       -4.3180  -21.4287  -54.9913 H         1 UNK         0.0600 
    237 H237       -3.4895  -22.3903  -57.1524 H         1 UNK         0.0600 
    238 H238       -4.5403  -21.0078  -57.4046 H         1 UNK         0.0600 
    239 H239       -2.8004  -20.8260  -57.5816 H         1 UNK         0.0600 
    240 H240       -2.3627  -19.5865  -53.6560 H         1 UNK         0.3000 
    241 H241       -2.8055  -16.9528  -54.6955 H         1 UNK         0.0600 
    242 H242       -5.8967  -17.4724  -52.1995 H         1 UNK         0.3800 
    243 H243       -5.0007  -18.8271  -52.8373 H         1 UNK         0.3800 
    244 H244       -0.7088  -17.3228  -53.6921 H         1 UNK         0.0800 
    245 H245       -1.5354  -16.2465  -52.6132 H         1 UNK         0.0800 
    246 H246       -0.2200  -16.6326  -50.4472 H         1 UNK         0.0800 
    247 H247       -0.6294  -17.9513  -49.3817 H         1 UNK         0.0800 
@<TRIPOS>BOND
     1    1    2 1    
     2    1  127 1    
     3    1  128 1    
     4    1  129 1    
     5    2    3 2    
     6    2    4 am   BACKBONE|DICT|INTERRES
     7    4    5 1    
     8    4  130 1    
     9    5    6 1    
    10    5   65 1    
    11    5  131 1    
    12    6    7 1    
    13    6  132 1    
    14    6  133 1    
    15    7    8 1    
    16    8    9 1    
    17    8  134 1    
    18    8  135 1    
    19    9   10 ar   
    20    9   14 ar   
    21   10   11 ar   
    22   10  136 1    
    23   11   12 ar   
    24   11  126 1    
    25   12   13 ar   
    26   12  137 1    
    27   13   14 ar   
    28   13   15 1    
    29   14  138 1    
    30   15   16 1    
    31   15  139 1    
    32   15  140 1    
    33   16   17 1    
    34   17   18 1    
    35   17  141 1    
    36   17  142 1    
    37   18   19 1    
    38   18   67 1    
    39   18  143 1    
    40   19   20 am   BACKBONE|DICT|INTERRES
    41   19  144 1    
    42   20   21 2    
    43   20   22 1    
    44   22   23 1    
    45   22   24 1    
    46   22  145 1    
    47   23  146 1    
    48   23  147 1    
    49   23  148 1    
    50   24   25 am   BACKBONE|DICT|INTERRES
    51   24  149 1    
    52   25   26 2    
    53   25   27 1    
    54   27   28 1    
    55   27   29 1    
    56   27  150 1    
    57   28  151 1    
    58   28  152 1    
    59   28  153 1    
    60   29   30 am   BACKBONE|DICT|INTERRES
    61   29  154 1    
    62   30   31 2    
    63   30   32 1    
    64   32   33 1    
    65   32   34 1    
    66   32  155 1    
    67   33  156 1    
    68   33  157 1    
    69   33  158 1    
    70   34   35 am   BACKBONE|DICT|INTERRES
    71   34  159 1    
    72   35   36 2    
    73   35   37 1    
    74   37   38 1    
    75   37   39 1    
    76   37  160 1    
    77   38  161 1    
    78   38  162 1    
    79   38  163 1    
    80   39   40 am   BACKBONE|DICT|INTERRES
    81   39  164 1    
    82   40   41 2    
    83   40   42 1    
    84   42   43 1    
    85   42   44 1    
    86   42  165 1    
    87   43  166 1    
    88   43  167 1    
    89   43  168 1    
    90   44   45 am   BACKBONE|DICT|INTERRES
    91   44  169 1    
    92   45   46 2    
    93   45   47 1    
    94   47   48 1    
    95   47   49 1    
    96   47  170 1    
    97   48  171 1    
    98   48  172 1    
    99   48  173 1    
   100   49   50 am   BACKBONE|DICT|INTERRES
   101   49  174 1    
   102   50   51 2    
   103   50   52 1    
   104   52   53 1    
   105   52   54 1    
   106   52  175 1    
   107   53  176 1    
   108   53  177 1    
   109   53  178 1    
   110   54   55 am   BACKBONE|DICT|INTERRES
   111   54  179 1    
   112   55   56 2    
   113   55   57 1    
   114   57   58 1    
   115   57   59 1    
   116   57  180 1    
   117   58  181 1    
   118   58  182 1    
   119   58  183 1    
   120   59   60 am   BACKBONE|DICT|INTERRES
   121   59  184 1    
   122   60   61 2    
   123   60   62 1    
   124   62   63 1    
   125   62   64 1    
   126   62  185 1    
   127   63  186 1    
   128   63  187 1    
   129   63  188 1    
   130   64   65 am   BACKBONE|DICT|INTERRES
   131   64  189 1    
   132   65   66 2    
   133   67   68 2    
   134   67   69 am   BACKBONE|DICT|INTERRES
   135   69   70 1    
   136   69  190 1    
   137   70   71 1    
   138   70   72 1    
   139   70  191 1    
   140   71  192 1    
   141   71  193 1    
   142   71  194 1    
   143   72   73 2    
   144   72   74 am   BACKBONE|DICT|INTERRES
   145   74   75 1    
   146   74  195 1    
   147   75   76 1    
   148   75   77 1    
   149   75  196 1    
   150   76  197 1    
   151   76  198 1    
   152   76  199 1    
   153   77   78 2    
   154   77   79 am   BACKBONE|DICT|INTERRES
   155   79   80 1    
   156   79  200 1    
   157   80   81 1    
   158   80   82 1    
   159   80  201 1    
   160   81  202 1    
   161   81  203 1    
   162   81  204 1    
   163   82   83 2    
   164   82   84 am   BACKBONE|DICT|INTERRES
   165   84   85 1    
   166   84  205 1    
   167   85   86 1    
   168   85   87 1    
   169   85  206 1    
   170   86  207 1    
   171   86  208 1    
   172   86  209 1    
   173   87   88 2    
   174   87   89 am   BACKBONE|DICT|INTERRES
   175   89   90 1    
   176   89  210 1    
   177   90   91 1    
   178   90   92 1    
   179   90  211 1    
   180   91  212 1    
   181   91  213 1    
   182   91  214 1    
   183   92   93 2    
   184   92   94 am   BACKBONE|DICT|INTERRES
   185   94   95 1    
   186   94  215 1    
   187   95   96 1    
   188   95   97 1    
   189   95  216 1    
   190   96  217 1    
   191   96  218 1    
   192   96  219 1    
   193   97   98 2    
   194   97   99 am   BACKBONE|DICT|INTERRES
   195   99  100 1    
   196   99  220 1    
   197  100  101 1    
   198  100  102 1    
   199  100  221 1    
   200  101  222 1    
   201  101  223 1    
   202  101  224 1    
   203  102  103 2    
   204  102  104 am   BACKBONE|DICT|INTERRES
   205  104  105 1    
   206  104  225 1    
   207  105  106 1    
   208  105  107 1    
   209  105  226 1    
   210  106  227 1    
   211  106  228 1    
   212  106  229 1    
   213  107  108 2    
   214  107  109 am   BACKBONE|DICT|INTERRES
   215  109  110 1    
   216  109  230 1    
   217  110  111 1    
   218  110  112 1    
   219  110  231 1    
   220  111  232 1    
   221  111  233 1    
   222  111  234 1    
   223  112  113 2    
   224  112  114 am   BACKBONE|DICT|INTERRES
   225  114  115 1    
   226  114  235 1    
   227  115  116 1    
   228  115  117 1    
   229  115  236 1    
   230  116  237 1    
   231  116  238 1    
   232  116  239 1    
   233  117  118 2    
   234  117  119 am   BACKBONE|DICT|INTERRES
   235  119  120 1    
   236  119  240 1    
   237  120  121 1    
   238  120  124 1    
   239  120  241 1    
   240  121  122 am   BACKBONE|DICT|INTERRES
   241  121  123 2    
   242  122  242 1    
   243  122  243 1    
   244  124  125 1    
   245  124  244 1    
   246  124  245 1    
   247  125  126 1    
   248  126  246 1    
   249  126  247 1    
@<TRIPOS>SUBSTRUCTURE
     1 UNK         1 GROUP             0       ****    0 ROOT    
