@<TRIPOS>MOLECULE
3R540
247   249    1
SMALL
USER_CHARGES


@<TRIPOS>ATOM
      1 CA          8.4496  -14.2279  -44.6823 C.3       0 UNK        -0.1800 
      2 C           7.0343  -13.8899  -44.2360 C.2       0 UNK         0.5000 
      3 O           6.8523  -13.0384  -43.3662 O.2       0 UNK        -0.5000 
      4 N           6.0320  -14.5483  -44.8322 N.am      1 UNK        -0.5000 
      5 CA          4.6043  -14.3627  -44.5369 C.3       1 UNK         0.1400 
      6 C6          3.7904  -15.6433  -44.8371 C.3       23 UNK        -0.0398 
      7 S7          3.8739  -16.1962  -46.5768 S.3       23 UNK        -0.2404 
      8 C8          2.4716  -17.3437  -46.5616 C.3       23 UNK        -0.0205 
      9 C9          2.2232  -17.9699  -47.9213 C.ar      23 UNK        -0.0193 
     10 C10         1.4501  -17.2955  -48.8679 C.ar      23 UNK        -0.1150 
     11 C11         1.1661  -17.8839  -50.1011 C.ar      23 UNK        -0.0193 
     12 C12         1.6871  -19.1446  -50.3967 C.ar      23 UNK        -0.1150 
     13 C13         2.4494  -19.8411  -49.4514 C.ar      23 UNK        -0.0193 
     14 C14         2.7201  -19.2412  -48.2176 C.ar      23 UNK        -0.1150 
     15 C15         2.9879  -21.2392  -49.7379 C.3       23 UNK        -0.0205 
     16 S16         1.8682  -22.3039  -50.7115 S.3       23 UNK        -0.2404 
     17 C17         0.3149  -22.2817  -49.7504 C.3       23 UNK        -0.0398 
     18 CA          0.2952  -23.3785  -48.6639 C.3       11 UNK         0.1400 
     19 N           1.0353  -22.9823  -47.4642 N.am      11 UNK        -0.5000 
     20 C           1.5726  -23.8468  -46.5958 C.2       10 UNK         0.5000 
     21 O           1.4982  -25.0697  -46.7172 O.2       10 UNK        -0.5000 
     22 CA          2.2734  -23.2404  -45.3662 C.3       10 UNK         0.1400 
     23 CB          3.6739  -22.7245  -45.7288 C.3       10 UNK        -0.1800 
     24 N           1.5008  -22.1636  -44.7423 N.am      10 UNK        -0.5000 
     25 C           0.3265  -22.3526  -44.1264 C.2       9 UNK         0.5000 
     26 O          -0.2319  -23.4475  -44.0464 O.2       9 UNK        -0.5000 
     27 CA         -0.3535  -21.1136  -43.5121 C.3       9 UNK         0.1400 
     28 CB          0.3236  -20.7292  -42.1877 C.3       9 UNK        -0.1800 
     29 N          -0.4529  -19.9183  -44.3590 N.am      9 UNK        -0.5000 
     30 C          -0.7765  -19.8424  -45.6577 C.2       8 UNK         0.5000 
     31 O          -0.7768  -20.8097  -46.4162 O.2       8 UNK        -0.5000 
     32 CA         -1.2147  -18.4630  -46.2021 C.3       8 UNK         0.1400 
     33 CB         -2.2260  -18.6104  -47.3542 C.3       8 UNK        -0.1800 
     34 N          -1.7929  -17.5763  -45.1834 N.am      8 UNK        -0.5000 
     35 C          -1.1032  -16.8571  -44.2895 C.2       7 UNK         0.5000 
     36 O           0.1225  -16.9128  -44.1879 O.2       7 UNK        -0.5000 
     37 CA         -1.9326  -15.9476  -43.3639 C.3       7 UNK         0.1400 
     38 CB         -2.5775  -16.7465  -42.2137 C.3       7 UNK        -0.1800 
     39 N          -1.1628  -14.7924  -42.8848 N.am      7 UNK        -0.5000 
     40 C          -0.1873  -14.7396  -41.9626 C.2       6 UNK         0.5000 
     41 O           0.1240  -15.6835  -41.2349 O.2       6 UNK        -0.5000 
     42 CA          0.5893  -13.4069  -41.8382 C.3       6 UNK         0.1400 
     43 CB          2.0789  -13.6490  -41.5414 C.3       6 UNK        -0.1800 
     44 N           0.4860  -12.5891  -43.0496 N.am      6 UNK        -0.5000 
     45 C          -0.4304  -11.6368  -43.2699 C.2       5 UNK         0.5000 
     46 O          -1.2533  -11.2692  -42.4316 O.2       5 UNK        -0.5000 
     47 CA         -0.4756  -11.0472  -44.6937 C.3       5 UNK         0.1400 
     48 CB          0.4626   -9.8401  -44.8098 C.3       5 UNK        -0.1800 
     49 N          -0.1385  -12.0428  -45.7179 N.am      5 UNK        -0.5000 
     50 C          -0.8979  -13.1142  -45.9913 C.2       4 UNK         0.5000 
     51 O          -1.9893  -13.3103  -45.4549 O.2       4 UNK        -0.5000 
     52 CA         -0.3368  -14.1809  -46.9525 C.3       4 UNK         0.1400 
     53 CB         -1.4472  -14.8445  -47.7986 C.3       4 UNK        -0.1800 
     54 N           0.7881  -13.7260  -47.7764 N.am      4 UNK        -0.5000 
     55 C           0.7500  -12.8645  -48.8024 C.2       3 UNK         0.5000 
     56 O          -0.2709  -12.2998  -49.1977 O.2       3 UNK        -0.5000 
     57 CA          2.1085  -12.5968  -49.4829 C.3       3 UNK         0.1400 
     58 CB          2.0376  -11.5078  -50.5742 C.3       3 UNK        -0.1800 
     59 N           3.1746  -12.2982  -48.5178 N.am      3 UNK        -0.5000 
     60 C           3.2060  -11.2797  -47.6447 C.2       2 UNK         0.5000 
     61 O           2.2969  -10.4609  -47.5072 O.2       2 UNK        -0.5000 
     62 CA          4.4737  -11.1912  -46.7726 C.3       2 UNK         0.1400 
     63 CB          4.4617  -10.0114  -45.7795 C.3       2 UNK        -0.1800 
     64 N           4.7718  -12.4423  -46.0703 N.am      2 UNK        -0.5000 
     65 C           3.9872  -13.1155  -45.2128 C.2       1 UNK         0.5000 
     66 O           2.8234  -12.8035  -44.9468 O.2       1 UNK        -0.5000 
     67 C          -1.1411  -23.8159  -48.3213 C.2       11 UNK         0.5000 
     68 O          -1.6885  -24.6642  -49.0258 O.2       11 UNK        -0.5000 
     69 N          -1.7215  -23.2709  -47.2436 N.am      12 UNK        -0.5000 
     70 CA         -3.0016  -23.6919  -46.6746 C.3       12 UNK         0.1400 
     71 CB         -3.4324  -22.7226  -45.5655 C.3       12 UNK        -0.1800 
     72 C          -2.9567  -25.1427  -46.1679 C.2       12 UNK         0.5000 
     73 O          -3.8849  -25.9061  -46.4327 O.2       12 UNK        -0.5000 
     74 N          -1.8565  -25.5095  -45.4982 N.am      13 UNK        -0.5000 
     75 CA         -1.5792  -26.8777  -45.0685 C.3       13 UNK         0.1400 
     76 CB         -0.4071  -26.8719  -44.0753 C.3       13 UNK        -0.1800 
     77 C          -1.2904  -27.8227  -46.2506 C.2       13 UNK         0.5000 
     78 O          -1.7810  -28.9524  -46.2534 O.2       13 UNK        -0.5000 
     79 N          -0.4934  -27.3540  -47.2216 N.am      14 UNK        -0.5000 
     80 CA         -0.0286  -28.1576  -48.3519 C.3       14 UNK         0.1400 
     81 CB          1.2075  -27.4975  -48.9813 C.3       14 UNK        -0.1800 
     82 C          -1.0992  -28.4170  -49.4272 C.2       14 UNK         0.5000 
     83 O          -1.2084  -29.5509  -49.8966 O.2       14 UNK        -0.5000 
     84 N          -1.8350  -27.3736  -49.8348 N.am      15 UNK        -0.5000 
     85 CA         -2.6936  -27.3999  -51.0229 C.3       15 UNK         0.1400 
     86 CB         -1.8330  -27.1741  -52.2837 C.3       15 UNK        -0.1800 
     87 C          -3.8647  -26.4050  -50.9273 C.2       15 UNK         0.5000 
     88 O          -4.2887  -25.8607  -51.9498 O.2       15 UNK        -0.5000 
     89 N          -4.3622  -26.1640  -49.7040 N.am      16 UNK        -0.5000 
     90 CA         -5.5207  -25.3184  -49.3744 C.3       16 UNK         0.1400 
     91 CB         -6.8182  -25.9668  -49.9026 C.3       16 UNK        -0.1800 
     92 C          -5.3921  -23.8455  -49.8247 C.2       16 UNK         0.5000 
     93 O          -6.4098  -23.1726  -49.9904 O.2       16 UNK        -0.5000 
     94 N          -4.1542  -23.3749  -50.0483 N.am      17 UNK        -0.5000 
     95 CA         -3.7945  -22.0595  -50.5922 C.3       17 UNK         0.1400 
     96 CB         -4.0423  -20.9571  -49.5461 C.3       17 UNK        -0.1800 
     97 C          -4.4723  -21.7881  -51.9525 C.2       17 UNK         0.5000 
     98 O          -5.0316  -20.7103  -52.1741 O.2       17 UNK        -0.5000 
     99 N          -4.4651  -22.8251  -52.8058 N.am      18 UNK        -0.5000 
    100 CA        -5.1147  -22.9180  -54.1190 C.3       18 UNK         0.1400 
    101 CB        -4.5467  -21.8601  -55.0890 C.3       18 UNK        -0.1800 
    102 C         -6.6581  -22.8846  -54.0547 C.2       18 UNK         0.5000 
    103 O         -7.3005  -22.6683  -55.0829 O.2       18 UNK        -0.5000 
    104 N         -7.2233  -23.0810  -52.8517 N.am      19 UNK        -0.5000 
    105 CA        -8.6413  -22.9655  -52.4922 C.3       19 UNK         0.1400 
    106 CB        -9.4834  -24.0434  -53.2056 C.3       19 UNK        -0.1800 
    107 C         -9.2004  -21.5376  -52.6815 C.2       19 UNK         0.5000 
    108 O        -10.4126  -21.3702  -52.8277 O.2       19 UNK        -0.5000 
    109 N         -8.3104  -20.5356  -52.6812 N.am      20 UNK        -0.5000 
    110 CA        -8.6205  -19.1405  -52.9914 C.3       20 UNK         0.1400 
    111 CB        -8.3633  -18.9006  -54.4912 C.3       20 UNK        -0.1800 
    112 C         -7.8265  -18.1543  -52.1168 C.2       20 UNK         0.5000 
    113 O         -7.8084  -16.9636  -52.4317 O.2       20 UNK        -0.5000 
    114 N         -7.1597  -18.6496  -51.0606 N.am      21 UNK        -0.5000 
    115 CA        -6.2899  -17.8982  -50.1426 C.3       21 UNK         0.1400 
    116 CB        -7.1325  -16.9819  -49.2313 C.3       21 UNK        -0.1800 
    117 C         -5.1605  -17.1448  -50.8810 C.2       21 UNK         0.5000 
    118 O         -4.9198  -15.9669  -50.6120 O.2       21 UNK        -0.5000 
    119 N         -4.5332  -17.8416  -51.8382 N.am      22 UNK        -0.5000 
    120 CA        -3.5372  -17.3310  -52.7984 C.3       22 UNK         0.1400 
    121 C         -4.1202  -16.4231  -53.9258 C.2       22 UNK         0.5000 
    122 N         -5.4247  -16.1902  -54.0110 N.am      22 UNK        -0.7600 
    123 O         -3.3729  -15.9412  -54.7728 O.2       22 UNK        -0.5000 
    124 C124       -2.2858  -16.6828  -52.1370 C.3       23 UNK        -0.0398 
    125 S125       -1.4418  -17.7819  -50.9531 S.3       23 UNK        -0.2404 
    126 C126        0.2675  -17.1776  -51.0998 C.3       23 UNK        -0.0205 
    127 H127        9.0318  -14.5946  -43.8369 H         1 UNK         0.0600 
    128 H128        8.9416  -13.3386  -45.0762 H         1 UNK         0.0600 
    129 H129        8.4583  -14.9935  -45.4585 H         1 UNK         0.0600 
    130 H130        6.2386  -15.2378  -45.5422 H         1 UNK         0.3000 
    131 H131        4.5188  -14.1826  -43.4640 H         1 UNK         0.0600 
    132 H132        2.7455  -15.5012  -44.5527 H         1 UNK         0.0800 
    133 H133        4.1532  -16.4577  -44.2085 H         1 UNK         0.0800 
    134 H134        2.6333  -18.1155  -45.8074 H         1 UNK         0.0800 
    135 H135        1.5860  -16.7917  -46.2554 H         1 UNK         0.0800 
    136 H136        1.0571  -16.3187  -48.6368 H         1 UNK         0.1150 
    137 H137        1.4675  -19.5943  -51.3545 H         1 UNK         0.1150 
    138 H138        3.3135  -19.7643  -47.4818 H         1 UNK         0.1150 
    139 H139        3.9292  -21.1404  -50.2794 H         1 UNK         0.0800 
    140 H140        3.2242  -21.7556  -48.8075 H         1 UNK         0.0800 
    141 H141       -0.4758  -22.4493  -50.4820 H         1 UNK         0.0800 
    142 H142        0.1218  -21.2961  -49.3242 H         1 UNK         0.0800 
    143 H143        0.7787  -24.2623  -49.0826 H         1 UNK         0.0600 
    144 H144        1.0424  -21.9963  -47.2414 H         1 UNK         0.3000 
    145 H145        2.3908  -24.0398  -44.6312 H         1 UNK         0.0600 
    146 H146        4.2183  -22.4084  -44.8389 H         1 UNK         0.0600 
    147 H147        3.6292  -21.8766  -46.4113 H         1 UNK         0.0600 
    148 H148        4.2654  -23.5042  -46.2106 H         1 UNK         0.0600 
    149 H149        1.8849  -21.2314  -44.7809 H         1 UNK         0.3000 
    150 H150       -1.3790  -21.4042  -43.2793 H         1 UNK         0.0600 
    151 H151        0.3993  -21.5888  -41.5202 H         1 UNK         0.0600 
    152 H152       -0.2445  -19.9612  -41.6621 H         1 UNK         0.0600 
    153 H153        1.3324  -20.3470  -42.3484 H         1 UNK         0.0600 
    154 H154       -0.4011  -19.0357  -43.8681 H         1 UNK         0.3000 
    155 H155       -0.3267  -17.9868  -46.6126 H         1 UNK         0.0600 
    156 H156       -1.7977  -19.1795  -48.1806 H         1 UNK         0.0600 
    157 H157       -2.5197  -17.6428  -47.7590 H         1 UNK         0.0600 
    158 H158       -3.1302  -19.1278  -47.0320 H         1 UNK         0.0600 
    159 H159       -2.8008  -17.5128  -45.1816 H         1 UNK         0.3000 
    160 H160       -2.7396  -15.5255  -43.9648 H         1 UNK         0.0600 
    161 H161       -1.8410  -17.3100  -41.6403 H         1 UNK         0.0600 
    162 H162       -3.2998  -17.4668  -42.5992 H         1 UNK         0.0600 
    163 H163       -3.1107  -16.0901  -41.5259 H         1 UNK         0.0600 
    164 H164       -1.3202  -13.9507  -43.4238 H         1 UNK         0.3000 
    165 H165        0.1641  -12.8633  -40.9924 H         1 UNK         0.0600 
    166 H166        2.6425  -12.7158  -41.5370 H         1 UNK         0.0600 
    167 H167        2.2137  -14.1140  -40.5641 H         1 UNK         0.0600 
    168 H168        2.5252  -14.3111  -42.2821 H         1 UNK         0.0600 
    169 H169        1.1491  -12.7954  -43.7910 H         1 UNK         0.3000 
    170 H170       -1.4949  -10.7022  -44.8796 H         1 UNK         0.0600 
    171 H171        0.2062   -9.0728  -44.0783 H         1 UNK         0.0600 
    172 H172        1.4982  -10.1271  -44.6356 H         1 UNK         0.0600 
    173 H173        0.3997   -9.3831  -45.7974 H         1 UNK         0.0600 
    174 H174        0.7590  -11.9422  -46.1742 H         1 UNK         0.3000 
    175 H175        0.0780  -14.9541  -46.3067 H         1 UNK         0.0600 
    176 H176       -2.1882  -15.3242  -47.1591 H         1 UNK         0.0600 
    177 H177       -1.9814  -14.1189  -48.4120 H         1 UNK         0.0600 
    178 H178       -1.0541  -15.6128  -48.4617 H         1 UNK         0.0600 
    179 H179        1.6940  -14.0837  -47.5076 H         1 UNK         0.3000 
    180 H180        2.3894  -13.5302  -49.9733 H         1 UNK         0.0600 
    181 H181        1.7215  -10.5458  -50.1697 H         1 UNK         0.0600 
    182 H182        1.3267  -11.7831  -51.3541 H         1 UNK         0.0600 
    183 H183        3.0060  -11.3675  -51.0543 H         1 UNK         0.0600 
    184 H184        3.9628  -12.9306  -48.5284 H         1 UNK         0.3000 
    185 H185        5.2991  -11.0193  -47.4649 H         1 UNK         0.0600 
    186 H186        4.2486   -9.0692  -46.2858 H         1 UNK         0.0600 
    187 H187        3.7153  -10.1440  -44.9985 H         1 UNK         0.0600 
    188 H188        5.4307   -9.9040  -45.2921 H         1 UNK         0.0600 
    189 H189        5.6984  -12.8146  -46.2211 H         1 UNK         0.3000 
    190 H190       -1.2454  -22.5025  -46.7748 H         1 UNK         0.3000 
    191 H191       -3.7536  -23.6391  -47.4578 H         1 UNK         0.0600 
    192 H192       -3.4927  -21.6995  -45.9370 H         1 UNK         0.0600 
    193 H193       -4.4175  -22.9874  -45.1798 H         1 UNK         0.0600 
    194 H194       -2.7395  -22.7359  -44.7260 H         1 UNK         0.0600 
    195 H195       -1.1614  -24.8066  -45.2686 H         1 UNK         0.3000 
    196 H196       -2.4611  -27.2557  -44.5469 H         1 UNK         0.0600 
    197 H197       -0.1852  -27.8809  -43.7256 H         1 UNK         0.0600 
    198 H198       -0.6380  -26.2665  -43.1985 H         1 UNK         0.0600 
    199 H199        0.5020  -26.4715  -44.5254 H         1 UNK         0.0600 
    200 H200       -0.0821  -26.4340  -47.1150 H         1 UNK         0.3000 
    201 H201        0.2856  -29.1289  -47.9634 H         1 UNK         0.0600 
    202 H202        2.0024  -27.3637  -48.2474 H         1 UNK         0.0600 
    203 H203        0.9716  -26.5220  -49.4046 H         1 UNK         0.0600 
    204 H204        1.6102  -28.1130  -49.7867 H         1 UNK         0.0600 
    205 H205       -1.6994  -26.4591  -49.4074 H         1 UNK         0.3000 
    206 H206       -3.1604  -28.3836  -51.1027 H         1 UNK         0.0600 
    207 H207       -1.0483  -27.9255  -52.3710 H         1 UNK         0.0600 
    208 H208       -2.4340  -27.2360  -53.1917 H         1 UNK         0.0600 
    209 H209       -1.3565  -26.1932  -52.2680 H         1 UNK         0.0600 
    210 H210       -3.9262  -26.6247  -48.9162 H         1 UNK         0.3000 
    211 H211       -5.5916  -25.2930  -48.2877 H         1 UNK         0.0600 
    212 H212       -6.8621  -25.9569  -50.9924 H         1 UNK         0.0600 
    213 H213       -7.7000  -25.4395  -49.5367 H         1 UNK         0.0600 
    214 H214       -6.9041  -27.0021  -49.5728 H         1 UNK         0.0600 
    215 H215       -3.3778  -24.0047  -49.8713 H         1 UNK         0.3000 
    216 H216       -2.7245  -22.0852  -50.7934 H         1 UNK         0.0600 
    217 H217       -3.7004  -19.9877  -49.9098 H         1 UNK         0.0600 
    218 H218       -3.4983  -21.1651  -48.6249 H         1 UNK         0.0600 
    219 H219       -5.0993  -20.8694  -49.2963 H         1 UNK         0.0600 
    220 H220       -4.0536  -23.6934  -52.4820 H         1 UNK         0.3000 
    221 H221       -4.8530  -23.9015  -54.5119 H         1 UNK         0.0600 
    222 H222       -4.8526  -20.8500  -54.8150 H         1 UNK         0.0600 
    223 H223       -3.4574  -21.8876  -55.1099 H         1 UNK         0.0600 
    224 H224       -4.8932  -22.0378  -56.1077 H         1 UNK         0.0600 
    225 H225       -6.6077  -23.2235  -52.0594 H         1 UNK         0.3000 
    226 H226       -8.6987  -23.1665  -51.4219 H         1 UNK         0.0600 
    227 H227       -9.0604  -25.0367  -53.0548 H         1 UNK         0.0600 
    228 H228      -10.5020  -24.0643  -52.8170 H         1 UNK         0.0600 
    229 H229       -9.5486  -23.8646  -54.2790 H         1 UNK         0.0600 
    230 H230       -7.3289  -20.7622  -52.5756 H         1 UNK         0.3000 
    231 H231       -9.6734  -18.9395  -52.7845 H         1 UNK         0.0600 
    232 H232       -7.3128  -19.0506  -54.7440 H         1 UNK         0.0600 
    233 H233       -8.6321  -17.8849  -54.7839 H         1 UNK         0.0600 
    234 H234       -8.9542  -19.5793  -55.1065 H         1 UNK         0.0600 
    235 H235       -7.2227  -19.6422  -50.8870 H         1 UNK         0.3000 
    236 H236       -5.8004  -18.6297  -49.5009 H         1 UNK         0.0600 
    237 H237       -7.9001  -17.5487  -48.7046 H         1 UNK         0.0600 
    238 H238       -6.5089  -16.5022  -48.4759 H         1 UNK         0.0600 
    239 H239       -7.6277  -16.1919  -49.7967 H         1 UNK         0.0600 
    240 H240       -4.8099  -18.8091  -51.9833 H         1 UNK         0.3000 
    241 H241       -3.1899  -18.2205  -53.3252 H         1 UNK         0.0600 
    242 H242       -6.0774  -16.5406  -53.3189 H         1 UNK         0.3800 
    243 H243       -5.7673  -15.6094  -54.7594 H         1 UNK         0.3800 
    244 H244       -1.5646  -16.4034  -52.9068 H         1 UNK         0.0800 
    245 H245       -2.5474  -15.7563  -51.6250 H         1 UNK         0.0800 
    246 H246        0.6324  -17.3468  -52.1141 H         1 UNK         0.0800 
    247 H247        0.2888  -16.0993  -50.9333 H         1 UNK         0.0800 
@<TRIPOS>BOND
     1    1    2 1    
     2    1  127 1    
     3    1  128 1    
     4    1  129 1    
     5    2    3 2    
     6    2    4 am   BACKBONE|DICT|INTERRES
     7    4    5 1    
     8    4  130 1    
     9    5    6 1    
    10    5   65 1    
    11    5  131 1    
    12    6    7 1    
    13    6  132 1    
    14    6  133 1    
    15    7    8 1    
    16    8    9 1    
    17    8  134 1    
    18    8  135 1    
    19    9   10 ar   
    20    9   14 ar   
    21   10   11 ar   
    22   10  136 1    
    23   11   12 ar   
    24   11  126 1    
    25   12   13 ar   
    26   12  137 1    
    27   13   14 ar   
    28   13   15 1    
    29   14  138 1    
    30   15   16 1    
    31   15  139 1    
    32   15  140 1    
    33   16   17 1    
    34   17   18 1    
    35   17  141 1    
    36   17  142 1    
    37   18   19 1    
    38   18   67 1    
    39   18  143 1    
    40   19   20 am   BACKBONE|DICT|INTERRES
    41   19  144 1    
    42   20   21 2    
    43   20   22 1    
    44   22   23 1    
    45   22   24 1    
    46   22  145 1    
    47   23  146 1    
    48   23  147 1    
    49   23  148 1    
    50   24   25 am   BACKBONE|DICT|INTERRES
    51   24  149 1    
    52   25   26 2    
    53   25   27 1    
    54   27   28 1    
    55   27   29 1    
    56   27  150 1    
    57   28  151 1    
    58   28  152 1    
    59   28  153 1    
    60   29   30 am   BACKBONE|DICT|INTERRES
    61   29  154 1    
    62   30   31 2    
    63   30   32 1    
    64   32   33 1    
    65   32   34 1    
    66   32  155 1    
    67   33  156 1    
    68   33  157 1    
    69   33  158 1    
    70   34   35 am   BACKBONE|DICT|INTERRES
    71   34  159 1    
    72   35   36 2    
    73   35   37 1    
    74   37   38 1    
    75   37   39 1    
    76   37  160 1    
    77   38  161 1    
    78   38  162 1    
    79   38  163 1    
    80   39   40 am   BACKBONE|DICT|INTERRES
    81   39  164 1    
    82   40   41 2    
    83   40   42 1    
    84   42   43 1    
    85   42   44 1    
    86   42  165 1    
    87   43  166 1    
    88   43  167 1    
    89   43  168 1    
    90   44   45 am   BACKBONE|DICT|INTERRES
    91   44  169 1    
    92   45   46 2    
    93   45   47 1    
    94   47   48 1    
    95   47   49 1    
    96   47  170 1    
    97   48  171 1    
    98   48  172 1    
    99   48  173 1    
   100   49   50 am   BACKBONE|DICT|INTERRES
   101   49  174 1    
   102   50   51 2    
   103   50   52 1    
   104   52   53 1    
   105   52   54 1    
   106   52  175 1    
   107   53  176 1    
   108   53  177 1    
   109   53  178 1    
   110   54   55 am   BACKBONE|DICT|INTERRES
   111   54  179 1    
   112   55   56 2    
   113   55   57 1    
   114   57   58 1    
   115   57   59 1    
   116   57  180 1    
   117   58  181 1    
   118   58  182 1    
   119   58  183 1    
   120   59   60 am   BACKBONE|DICT|INTERRES
   121   59  184 1    
   122   60   61 2    
   123   60   62 1    
   124   62   63 1    
   125   62   64 1    
   126   62  185 1    
   127   63  186 1    
   128   63  187 1    
   129   63  188 1    
   130   64   65 am   BACKBONE|DICT|INTERRES
   131   64  189 1    
   132   65   66 2    
   133   67   68 2    
   134   67   69 am   BACKBONE|DICT|INTERRES
   135   69   70 1    
   136   69  190 1    
   137   70   71 1    
   138   70   72 1    
   139   70  191 1    
   140   71  192 1    
   141   71  193 1    
   142   71  194 1    
   143   72   73 2    
   144   72   74 am   BACKBONE|DICT|INTERRES
   145   74   75 1    
   146   74  195 1    
   147   75   76 1    
   148   75   77 1    
   149   75  196 1    
   150   76  197 1    
   151   76  198 1    
   152   76  199 1    
   153   77   78 2    
   154   77   79 am   BACKBONE|DICT|INTERRES
   155   79   80 1    
   156   79  200 1    
   157   80   81 1    
   158   80   82 1    
   159   80  201 1    
   160   81  202 1    
   161   81  203 1    
   162   81  204 1    
   163   82   83 2    
   164   82   84 am   BACKBONE|DICT|INTERRES
   165   84   85 1    
   166   84  205 1    
   167   85   86 1    
   168   85   87 1    
   169   85  206 1    
   170   86  207 1    
   171   86  208 1    
   172   86  209 1    
   173   87   88 2    
   174   87   89 am   BACKBONE|DICT|INTERRES
   175   89   90 1    
   176   89  210 1    
   177   90   91 1    
   178   90   92 1    
   179   90  211 1    
   180   91  212 1    
   181   91  213 1    
   182   91  214 1    
   183   92   93 2    
   184   92   94 am   BACKBONE|DICT|INTERRES
   185   94   95 1    
   186   94  215 1    
   187   95   96 1    
   188   95   97 1    
   189   95  216 1    
   190   96  217 1    
   191   96  218 1    
   192   96  219 1    
   193   97   98 2    
   194   97   99 am   BACKBONE|DICT|INTERRES
   195   99  100 1    
   196   99  220 1    
   197  100  101 1    
   198  100  102 1    
   199  100  221 1    
   200  101  222 1    
   201  101  223 1    
   202  101  224 1    
   203  102  103 2    
   204  102  104 am   BACKBONE|DICT|INTERRES
   205  104  105 1    
   206  104  225 1    
   207  105  106 1    
   208  105  107 1    
   209  105  226 1    
   210  106  227 1    
   211  106  228 1    
   212  106  229 1    
   213  107  108 2    
   214  107  109 am   BACKBONE|DICT|INTERRES
   215  109  110 1    
   216  109  230 1    
   217  110  111 1    
   218  110  112 1    
   219  110  231 1    
   220  111  232 1    
   221  111  233 1    
   222  111  234 1    
   223  112  113 2    
   224  112  114 am   BACKBONE|DICT|INTERRES
   225  114  115 1    
   226  114  235 1    
   227  115  116 1    
   228  115  117 1    
   229  115  236 1    
   230  116  237 1    
   231  116  238 1    
   232  116  239 1    
   233  117  118 2    
   234  117  119 am   BACKBONE|DICT|INTERRES
   235  119  120 1    
   236  119  240 1    
   237  120  121 1    
   238  120  124 1    
   239  120  241 1    
   240  121  122 am   BACKBONE|DICT|INTERRES
   241  121  123 2    
   242  122  242 1    
   243  122  243 1    
   244  124  125 1    
   245  124  244 1    
   246  124  245 1    
   247  125  126 1    
   248  126  246 1    
   249  126  247 1    
@<TRIPOS>SUBSTRUCTURE
     1 UNK         1 GROUP             0       ****    0 ROOT    
