@<TRIPOS>MOLECULE
3R540
247   249    1
SMALL
USER_CHARGES


@<TRIPOS>ATOM
      1 CA          1.7456  -16.0347  -50.8139 C.3       0 UNK        -0.1800 
      2 C           1.4422  -15.2561  -49.5423 C.2       0 UNK         0.5000 
      3 O           2.3627  -14.7718  -48.8829 O.2       0 UNK        -0.5000 
      4 N           0.1555  -15.1200  -49.2020 N.am      1 UNK        -0.5000 
      5 CA         -0.3653  -14.3976  -48.0368 C.3       1 UNK         0.1400 
      6 C6         -1.7652  -14.9105  -47.5923 C.3       23 UNK        -0.0398 
      7 S7         -2.9807  -15.1220  -48.9486 S.3       23 UNK        -0.2404 
      8 C8         -3.2839  -16.9191  -48.9271 C.3       23 UNK        -0.0205 
      9 C9         -2.1262  -17.7018  -49.5274 C.ar      23 UNK        -0.0193 
     10 C10        -2.1221  -18.0307  -50.8864 C.ar      23 UNK        -0.1150 
     11 C11        -1.0733  -18.7768  -51.4316 C.ar      23 UNK        -0.0193 
     12 C12         0.0030  -19.1468  -50.6206 C.ar      23 UNK        -0.1150 
     13 C13         0.0175  -18.8068  -49.2659 C.ar      23 UNK        -0.0193 
     14 C14        -1.0632  -18.1127  -48.7202 C.ar      23 UNK        -0.1150 
     15 C15         1.1954  -19.1844  -48.3818 C.3       23 UNK        -0.0205 
     16 S16         1.3674  -20.9819  -48.1812 S.3       23 UNK        -0.2404 
     17 C17        -0.3197  -21.4282  -47.6636 C.3       23 UNK        -0.0398 
     18 CA         -0.3640  -22.8336  -47.0367 C.3       11 UNK         0.1400 
     19 N           0.3511  -22.8922  -45.7637 N.am      11 UNK        -0.5000 
     20 C           0.7585  -24.0204  -45.1719 C.2       10 UNK         0.5000 
     21 O           0.5785  -25.1429  -45.6425 O.2       10 UNK        -0.5000 
     22 CA          1.4383  -23.8587  -43.8009 C.3       10 UNK         0.1400 
     23 CB          2.9328  -23.5489  -43.9716 C.3       10 UNK        -0.1800 
     24 N           0.8124  -22.8090  -42.9923 N.am      10 UNK        -0.5000 
     25 C          -0.4359  -22.8808  -42.5105 C.2       9 UNK         0.5000 
     26 O          -1.1768  -23.8510  -42.6769 O.2       9 UNK        -0.5000 
     27 CA         -0.9557  -21.6426  -41.7568 C.3       9 UNK         0.1400 
     28 CB         -0.4300  -21.6273  -40.3134 C.3       9 UNK        -0.1800 
     29 N          -0.6430  -20.3611  -42.4039 N.am      9 UNK        -0.5000 
     30 C          -1.0602  -20.0019  -43.6272 C.2       8 UNK         0.5000 
     31 O          -1.6125  -20.7678  -44.4133 O.2       8 UNK        -0.5000 
     32 CA         -0.8073  -18.5505  -44.0491 C.3       8 UNK         0.1400 
     33 CB         -1.6269  -17.5719  -43.1843 C.3       8 UNK        -0.1800 
     34 N           0.6234  -18.2542  -44.0083 N.am      8 UNK        -0.5000 
     35 C           1.1963  -17.1663  -44.5358 C.2       7 UNK         0.5000 
     36 O           0.5729  -16.2494  -45.0738 O.2       7 UNK        -0.5000 
     37 CA          2.7292  -17.1217  -44.5051 C.3       7 UNK         0.1400 
     38 CB          3.3074  -17.5872  -45.8560 C.3       7 UNK        -0.1800 
     39 N           3.1719  -15.7664  -44.1909 N.am      7 UNK        -0.5000 
     40 C           4.4136  -15.4405  -43.8073 C.2       6 UNK         0.5000 
     41 O           5.3413  -16.2467  -43.7237 O.2       6 UNK        -0.5000 
     42 CA          4.6528  -13.9784  -43.4005 C.3       6 UNK         0.1400 
     43 CB          4.6595  -13.0435  -44.6222 C.3       6 UNK        -0.1800 
     44 N           3.6496  -13.5455  -42.4287 N.am      6 UNK        -0.5000 
     45 C           3.7036  -13.8343  -41.1185 C.2       5 UNK         0.5000 
     46 O           4.6451  -14.4286  -40.5916 O.2       5 UNK        -0.5000 
     47 CA          2.5213  -13.3854  -40.2360 C.3       5 UNK         0.1400 
     48 CB          2.8631  -12.0754  -39.5093 C.3       5 UNK        -0.1800 
     49 N           1.2827  -13.1963  -40.9879 N.am      5 UNK        -0.5000 
     50 C           0.5275  -14.1835  -41.4893 C.2       4 UNK         0.5000 
     51 O           0.7427  -15.3796  -41.2942 O.2       4 UNK        -0.5000 
     52 CA         -0.6426  -13.7516  -42.3962 C.3       4 UNK         0.1400 
     53 CB         -1.9516  -13.6726  -41.5975 C.3       4 UNK        -0.1800 
     54 N          -0.4050  -12.4715  -43.0762 N.am      4 UNK        -0.5000 
     55 C           0.5540  -12.2906  -43.9918 C.2       3 UNK         0.5000 
     56 O           1.3329  -13.1816  -44.3424 O.2       3 UNK        -0.5000 
     57 CA          0.7106  -10.8865  -44.5862 C.3       3 UNK         0.1400 
     58 CB          1.7454  -10.0640  -43.8006 C.3       3 UNK        -0.1800 
     59 N           1.1571  -11.0804  -45.9546 N.am      3 UNK        -0.5000 
     60 C           0.9353  -10.2753  -46.9971 C.2       2 UNK         0.5000 
     61 O           0.4869   -9.1319  -46.9070 O.2       2 UNK        -0.5000 
     62 CA          1.2101  -10.8953  -48.3829 C.3       2 UNK         0.1400 
     63 CB          2.6730  -10.6771  -48.7970 C.3       2 UNK        -0.1800 
     64 N           0.9106  -12.3318  -48.4067 N.am      2 UNK        -0.5000 
     65 C          -0.3073  -12.8647  -48.2318 C.2       1 UNK         0.5000 
     66 O          -1.3370  -12.1885  -48.1976 O.2       1 UNK        -0.5000 
     67 C          -1.8138  -23.3310  -46.9070 C.2       11 UNK         0.5000 
     68 O          -2.3276  -23.9118  -47.8605 O.2       11 UNK        -0.5000 
     69 N          -2.4504  -23.1200  -45.7488 N.am      12 UNK        -0.5000 
     70 CA         -3.7682  -23.6637  -45.4223 C.3       12 UNK         0.1400 
     71 CB         -4.3117  -22.9873  -44.1556 C.3       12 UNK        -0.1800 
     72 C          -3.7329  -25.1937  -45.2741 C.2       12 UNK         0.5000 
     73 O          -4.6217  -25.8700  -45.7914 O.2       12 UNK        -0.5000 
     74 N          -2.6793  -25.7129  -44.6271 N.am      13 UNK        -0.5000 
     75 CA         -2.4132  -27.1472  -44.4954 C.3       13 UNK         0.1400 
     76 CB         -1.2702  -27.3659  -43.4925 C.3       13 UNK        -0.1800 
     77 C          -2.1014  -27.8233  -45.8460 C.2       13 UNK         0.5000 
     78 O          -2.5748  -28.9325  -46.0943 O.2       13 UNK        -0.5000 
     79 N          -1.3379  -27.1320  -46.7039 N.am      14 UNK        -0.5000 
     80 CA         -0.9855  -27.5726  -48.0572 C.3       14 UNK         0.1400 
     81 CB          0.2548  -26.7912  -48.5192 C.3       14 UNK        -0.1800 
     82 C          -2.1241  -27.4110  -49.0872 C.2       14 UNK         0.5000 
     83 O          -2.0065  -27.9400  -50.1926 O.2       14 UNK        -0.5000 
     84 N          -3.1752  -26.6595  -48.7264 N.am      15 UNK        -0.5000 
     85 CA         -4.3216  -26.2435  -49.5464 C.3       15 UNK         0.1400 
     86 CB         -5.1066  -27.4539  -50.0909 C.3       15 UNK        -0.1800 
     87 C          -3.9688  -25.2198  -50.6494 C.2       15 UNK         0.5000 
     88 O          -4.8024  -24.9324  -51.5093 O.2       15 UNK        -0.5000 
     89 N          -2.7727  -24.6238  -50.5732 N.am      16 UNK        -0.5000 
     90 CA         -2.3239  -23.5224  -51.4230 C.3       16 UNK         0.1400 
     91 CB         -0.8149  -23.3110  -51.2304 C.3       16 UNK        -0.1800 
     92 C          -3.1003  -22.2253  -51.1384 C.2       16 UNK         0.5000 
     93 O          -3.4312  -21.5008  -52.0754 O.2       16 UNK        -0.5000 
     94 N          -3.4331  -21.9841  -49.8614 N.am      17 UNK        -0.5000 
     95 CA         -4.2648  -20.8523  -49.4415 C.3       17 UNK         0.1400 
     96 CB         -4.0676  -20.5786  -47.9434 C.3       17 UNK        -0.1800 
     97 C          -5.7558  -21.0558  -49.7679 C.2       17 UNK         0.5000 
     98 O          -6.4800  -20.0698  -49.8976 O.2       17 UNK        -0.5000 
     99 N          -6.1849  -22.3188  -49.9109 N.am      18 UNK        -0.5000 
    100 CA        -7.5262  -22.6832  -50.3690 C.3       18 UNK         0.1400 
    101 CB        -7.8440  -24.1309  -49.9631 C.3       18 UNK        -0.1800 
    102 C         -7.6728  -22.4812  -51.8883 C.2       18 UNK         0.5000 
    103 O         -8.7128  -21.9964  -52.3352 O.2       18 UNK        -0.5000 
    104 N         -6.6190  -22.8198  -52.6483 N.am      19 UNK        -0.5000 
    105 CA        -6.4960  -22.5219  -54.0774 C.3       19 UNK         0.1400 
    106 CB        -5.2878  -23.2732  -54.6573 C.3       19 UNK        -0.1800 
    107 C         -6.3822  -21.0080  -54.3419 C.2       19 UNK         0.5000 
    108 O         -7.0236  -20.5003  -55.2623 O.2       19 UNK        -0.5000 
    109 N         -5.5883  -20.3225  -53.5062 N.am      20 UNK        -0.5000 
    110 CA        -5.3986  -18.8746  -53.3591 C.3       20 UNK         0.1400 
    111 CB        -6.7231  -18.1765  -53.0000 C.3       20 UNK        -0.1800 
    112 C         -4.7123  -18.1634  -54.5406 C.2       20 UNK         0.5000 
    113 O         -3.8946  -17.2719  -54.3123 O.2       20 UNK        -0.5000 
    114 N         -5.0419  -18.5536  -55.7753 N.am      21 UNK        -0.5000 
    115 CA        -4.6037  -17.9413  -57.0305 C.3       21 UNK         0.1400 
    116 CB        -5.6358  -18.2859  -58.1200 C.3       21 UNK        -0.1800 
    117 C         -3.1605  -18.3173  -57.4372 C.2       21 UNK         0.5000 
    118 O         -2.9226  -18.6825  -58.5904 O.2       21 UNK        -0.5000 
    119 N         -2.2171  -18.2183  -56.4935 N.am      22 UNK        -0.5000 
    120 CA        -0.7763  -18.4234  -56.7206 C.3       22 UNK         0.1400 
    121 C         -0.0205  -17.1736  -57.2635 C.2       22 UNK         0.5000 
    122 N         -0.6430  -16.0045  -57.3585 N.am      22 UNK        -0.7600 
    123 O          1.1486  -17.2712  -57.6271 O.2       22 UNK        -0.5000 
    124 C124       -0.0743  -19.0487  -55.4883 C.3       23 UNK        -0.0398 
    125 S125       -0.1932  -18.0609  -53.9536 S.3       23 UNK        -0.2404 
    126 C126       -1.1083  -19.2116  -52.8862 C.3       23 UNK        -0.0205 
    127 H127        2.3288  -15.4214  -51.5006 H         1 UNK         0.0600 
    128 H128        0.8337  -16.3424  -51.3264 H         1 UNK         0.0600 
    129 H129        2.3224  -16.9289  -50.5793 H         1 UNK         0.0600 
    130 H130       -0.5561  -15.5378  -49.7861 H         1 UNK         0.3000 
    131 H131        0.3080  -14.6027  -47.2014 H         1 UNK         0.0600 
    132 H132       -2.2008  -14.2470  -46.8431 H         1 UNK         0.0800 
    133 H133       -1.6448  -15.8544  -47.0644 H         1 UNK         0.0800 
    134 H134       -4.1962  -17.1260  -49.4890 H         1 UNK         0.0800 
    135 H135       -3.4795  -17.2504  -47.9061 H         1 UNK         0.0800 
    136 H136       -2.9421  -17.7192  -51.5167 H         1 UNK         0.1150 
    137 H137        0.8269  -19.7064  -51.0408 H         1 UNK         0.1150 
    138 H138       -1.0628  -17.8774  -47.6666 H         1 UNK         0.1150 
    139 H139        1.0872  -18.7312  -47.3962 H         1 UNK         0.0800 
    140 H140        2.1142  -18.7813  -48.8090 H         1 UNK         0.0800 
    141 H141       -0.9546  -21.3749  -48.5491 H         1 UNK         0.0800 
    142 H142       -0.6965  -20.6798  -46.9648 H         1 UNK         0.0800 
    143 H143        0.1343  -23.5176  -47.7265 H         1 UNK         0.0600 
    144 H144        0.5051  -22.0141  -45.2925 H         1 UNK         0.3000 
    145 H145        1.3421  -24.8065  -43.2668 H         1 UNK         0.0600 
    146 H146        3.4270  -24.3259  -44.5565 H         1 UNK         0.0600 
    147 H147        3.4380  -23.4994  -43.0069 H         1 UNK         0.0600 
    148 H148        3.0936  -22.5999  -44.4849 H         1 UNK         0.0600 
    149 H149        1.3592  -21.9820  -42.8052 H         1 UNK         0.3000 
    150 H150       -2.0437  -21.7270  -41.7154 H         1 UNK         0.0600 
    151 H151        0.6517  -21.4926  -40.2785 H         1 UNK         0.0600 
    152 H152       -0.6613  -22.5633  -39.8030 H         1 UNK         0.0600 
    153 H153       -0.8872  -20.8236  -39.7360 H         1 UNK         0.0600 
    154 H154       -0.2034  -19.6638  -41.8206 H         1 UNK         0.3000 
    155 H155       -1.1448  -18.4565  -45.0838 H         1 UNK         0.0600 
    156 H156       -1.2022  -17.4568  -42.1865 H         1 UNK         0.0600 
    157 H157       -2.6564  -17.9136  -43.0689 H         1 UNK         0.0600 
    158 H158       -1.6741  -16.5863  -43.6444 H         1 UNK         0.0600 
    159 H159        1.2093  -18.9748  -43.6111 H         1 UNK         0.3000 
    160 H160        3.0831  -17.7879  -43.7153 H         1 UNK         0.0600 
    161 H161        4.3964  -17.5555  -45.8659 H         1 UNK         0.0600 
    162 H162        2.9494  -16.9676  -46.6799 H         1 UNK         0.0600 
    163 H163        3.0223  -18.6186  -46.0636 H         1 UNK         0.0600 
    164 H164        2.4503  -15.0526  -44.2419 H         1 UNK         0.3000 
    165 H165        5.6402  -13.9136  -42.9376 H         1 UNK         0.0600 
    166 H166        5.4749  -13.3028  -45.2984 H         1 UNK         0.0600 
    167 H167        3.7365  -13.1033  -45.1973 H         1 UNK         0.0600 
    168 H168        4.8035  -12.0050  -44.3244 H         1 UNK         0.0600 
    169 H169        2.8125  -13.1227  -42.8069 H         1 UNK         0.3000 
    170 H170        2.3552  -14.1610  -39.4853 H         1 UNK         0.0600 
    171 H171        2.0624  -11.7794  -38.8313 H         1 UNK         0.0600 
    172 H172        3.0300  -11.2571  -40.2111 H         1 UNK         0.0600 
    173 H173        3.7690  -12.1849  -38.9116 H         1 UNK         0.0600 
    174 H174        1.0164  -12.2440  -41.1888 H         1 UNK         0.3000 
    175 H175       -0.7555  -14.5176  -43.1651 H         1 UNK         0.0600 
    176 H176       -2.1657  -14.6227  -41.1061 H         1 UNK         0.0600 
    177 H177       -1.9062  -12.9048  -40.8242 H         1 UNK         0.0600 
    178 H178       -2.7972  -13.4474  -42.2475 H         1 UNK         0.0600 
    179 H179       -1.0096  -11.7020  -42.8251 H         1 UNK         0.3000 
    180 H180       -0.2572  -10.3807  -44.5809 H         1 UNK         0.0600 
    181 H181        2.7197  -10.5539  -43.7827 H         1 UNK         0.0600 
    182 H182        1.4287   -9.9207  -42.7670 H         1 UNK         0.0600 
    183 H183        1.8778   -9.0752  -44.2398 H         1 UNK         0.0600 
    184 H184        1.5141  -12.0121  -46.1268 H         1 UNK         0.3000 
    185 H185        0.5646  -10.3980  -49.1097 H         1 UNK         0.0600 
    186 H186        2.9215   -9.6150  -48.8061 H         1 UNK         0.0600 
    187 H187        3.3637  -11.1710  -48.1122 H         1 UNK         0.0600 
    188 H188        2.8606  -11.0635  -49.7990 H         1 UNK         0.0600 
    189 H189        1.6961  -12.9726  -48.4762 H         1 UNK         0.3000 
    190 H190       -2.0080  -22.5338  -45.0472 H         1 UNK         0.3000 
    191 H191       -4.4484  -23.4346  -46.2443 H         1 UNK         0.0600 
    192 H192       -4.3733  -21.9063  -44.2839 H         1 UNK         0.0600 
    193 H193       -5.3147  -23.3463  -43.9224 H         1 UNK         0.0600 
    194 H194       -3.6829  -23.1847  -43.2878 H         1 UNK         0.0600 
    195 H195       -2.0137  -25.0809  -44.1957 H         1 UNK         0.3000 
    196 H196       -3.3117  -27.6171  -44.0901 H         1 UNK         0.0600 
    197 H197       -1.0795  -28.4295  -43.3445 H         1 UNK         0.0600 
    198 H198       -1.5137  -26.9398  -42.5191 H         1 UNK         0.0600 
    199 H199       -0.3401  -26.9102  -43.8321 H         1 UNK         0.0600 
    200 H200       -0.9153  -26.2658  -46.3853 H         1 UNK         0.3000 
    201 H201       -0.7258  -28.6325  -48.0202 H         1 UNK         0.0600 
    202 H202        0.5921  -27.1321  -49.4989 H         1 UNK         0.0600 
    203 H203        1.0864  -26.9235  -47.8268 H         1 UNK         0.0600 
    204 H204        0.0495  -25.7237  -48.5972 H         1 UNK         0.0600 
    205 H205       -3.1478  -26.2531  -47.8006 H         1 UNK         0.3000 
    206 H206       -4.9848  -25.7138  -48.8610 H         1 UNK         0.0600 
    207 H207       -5.3465  -28.1586  -49.2947 H         1 UNK         0.0600 
    208 H208       -6.0497  -27.1386  -50.5383 H         1 UNK         0.0600 
    209 H209       -4.5493  -27.9896  -50.8594 H         1 UNK         0.0600 
    210 H210       -2.2010  -24.8385  -49.7667 H         1 UNK         0.3000 
    211 H211       -2.5023  -23.7967  -52.4648 H         1 UNK         0.0600 
    212 H212       -0.2542  -24.1981  -51.5255 H         1 UNK         0.0600 
    213 H213       -0.5650  -23.0906  -50.1931 H         1 UNK         0.0600 
    214 H214       -0.4539  -22.4808  -51.8386 H         1 UNK         0.0600 
    215 H215       -3.1432  -22.6461  -49.1495 H         1 UNK         0.3000 
    216 H216       -3.9385  -19.9660  -49.9872 H         1 UNK         0.0600 
    217 H217       -3.0289  -20.3482  -47.7133 H         1 UNK         0.0600 
    218 H218       -4.3721  -21.4280  -47.3352 H         1 UNK         0.0600 
    219 H219       -4.6616  -19.7214  -47.6241 H         1 UNK         0.0600 
    220 H220       -5.5192  -23.0679  -49.8054 H         1 UNK         0.3000 
    221 H221       -8.2498  -22.0326  -49.8728 H         1 UNK         0.0600 
    222 H222       -7.1970  -24.8489  -50.4650 H         1 UNK         0.0600 
    223 H223       -7.7353  -24.2736  -48.8879 H         1 UNK         0.0600 
    224 H224       -8.8720  -24.3865  -50.2223 H         1 UNK         0.0600 
    225 H225       -5.8355  -23.2940  -52.2136 H         1 UNK         0.3000 
    226 H226       -7.3959  -22.8841  -54.5787 H         1 UNK         0.0600 
    227 H227       -5.1950  -23.0936  -55.7291 H         1 UNK         0.0600 
    228 H228       -4.3533  -22.9616  -54.1903 H         1 UNK         0.0600 
    229 H229       -5.3883  -24.3493  -54.5143 H         1 UNK         0.0600 
    230 H230       -5.0128  -20.8721  -52.8729 H         1 UNK         0.3000 
    231 H231       -4.7343  -18.7660  -52.5018 H         1 UNK         0.0600 
    232 H232       -7.4421  -18.2213  -53.8185 H         1 UNK         0.0600 
    233 H233       -6.5573  -17.1235  -52.7688 H         1 UNK         0.0600 
    234 H234       -7.1851  -18.6324  -52.1245 H         1 UNK         0.0600 
    235 H235       -5.7313  -19.2972  -55.8489 H         1 UNK         0.3000 
    236 H236       -4.6162  -16.8572  -56.9013 H         1 UNK         0.0600 
    237 H237       -5.6751  -19.3594  -58.3092 H         1 UNK         0.0600 
    238 H238       -6.6358  -17.9607  -57.8324 H         1 UNK         0.0600 
    239 H239       -5.3961  -17.7917  -59.0624 H         1 UNK         0.0600 
    240 H240       -2.4896  -17.8857  -55.5737 H         1 UNK         0.3000 
    241 H241       -0.6760  -19.1630  -57.5173 H         1 UNK         0.0600 
    242 H242       -1.5987  -15.9064  -57.0565 H         1 UNK         0.3800 
    243 H243       -0.1458  -15.2051  -57.7188 H         1 UNK         0.3800 
    244 H244       -0.4935  -20.0404  -55.3147 H         1 UNK         0.0800 
    245 H245        0.9826  -19.2212  -55.6986 H         1 UNK         0.0800 
    246 H246       -2.1382  -19.2922  -53.2356 H         1 UNK         0.0800 
    247 H247       -0.6794  -20.2111  -52.9683 H         1 UNK         0.0800 
@<TRIPOS>BOND
     1    1    2 1    
     2    1  127 1    
     3    1  128 1    
     4    1  129 1    
     5    2    3 2    
     6    2    4 am   BACKBONE|DICT|INTERRES
     7    4    5 1    
     8    4  130 1    
     9    5    6 1    
    10    5   65 1    
    11    5  131 1    
    12    6    7 1    
    13    6  132 1    
    14    6  133 1    
    15    7    8 1    
    16    8    9 1    
    17    8  134 1    
    18    8  135 1    
    19    9   10 ar   
    20    9   14 ar   
    21   10   11 ar   
    22   10  136 1    
    23   11   12 ar   
    24   11  126 1    
    25   12   13 ar   
    26   12  137 1    
    27   13   14 ar   
    28   13   15 1    
    29   14  138 1    
    30   15   16 1    
    31   15  139 1    
    32   15  140 1    
    33   16   17 1    
    34   17   18 1    
    35   17  141 1    
    36   17  142 1    
    37   18   19 1    
    38   18   67 1    
    39   18  143 1    
    40   19   20 am   BACKBONE|DICT|INTERRES
    41   19  144 1    
    42   20   21 2    
    43   20   22 1    
    44   22   23 1    
    45   22   24 1    
    46   22  145 1    
    47   23  146 1    
    48   23  147 1    
    49   23  148 1    
    50   24   25 am   BACKBONE|DICT|INTERRES
    51   24  149 1    
    52   25   26 2    
    53   25   27 1    
    54   27   28 1    
    55   27   29 1    
    56   27  150 1    
    57   28  151 1    
    58   28  152 1    
    59   28  153 1    
    60   29   30 am   BACKBONE|DICT|INTERRES
    61   29  154 1    
    62   30   31 2    
    63   30   32 1    
    64   32   33 1    
    65   32   34 1    
    66   32  155 1    
    67   33  156 1    
    68   33  157 1    
    69   33  158 1    
    70   34   35 am   BACKBONE|DICT|INTERRES
    71   34  159 1    
    72   35   36 2    
    73   35   37 1    
    74   37   38 1    
    75   37   39 1    
    76   37  160 1    
    77   38  161 1    
    78   38  162 1    
    79   38  163 1    
    80   39   40 am   BACKBONE|DICT|INTERRES
    81   39  164 1    
    82   40   41 2    
    83   40   42 1    
    84   42   43 1    
    85   42   44 1    
    86   42  165 1    
    87   43  166 1    
    88   43  167 1    
    89   43  168 1    
    90   44   45 am   BACKBONE|DICT|INTERRES
    91   44  169 1    
    92   45   46 2    
    93   45   47 1    
    94   47   48 1    
    95   47   49 1    
    96   47  170 1    
    97   48  171 1    
    98   48  172 1    
    99   48  173 1    
   100   49   50 am   BACKBONE|DICT|INTERRES
   101   49  174 1    
   102   50   51 2    
   103   50   52 1    
   104   52   53 1    
   105   52   54 1    
   106   52  175 1    
   107   53  176 1    
   108   53  177 1    
   109   53  178 1    
   110   54   55 am   BACKBONE|DICT|INTERRES
   111   54  179 1    
   112   55   56 2    
   113   55   57 1    
   114   57   58 1    
   115   57   59 1    
   116   57  180 1    
   117   58  181 1    
   118   58  182 1    
   119   58  183 1    
   120   59   60 am   BACKBONE|DICT|INTERRES
   121   59  184 1    
   122   60   61 2    
   123   60   62 1    
   124   62   63 1    
   125   62   64 1    
   126   62  185 1    
   127   63  186 1    
   128   63  187 1    
   129   63  188 1    
   130   64   65 am   BACKBONE|DICT|INTERRES
   131   64  189 1    
   132   65   66 2    
   133   67   68 2    
   134   67   69 am   BACKBONE|DICT|INTERRES
   135   69   70 1    
   136   69  190 1    
   137   70   71 1    
   138   70   72 1    
   139   70  191 1    
   140   71  192 1    
   141   71  193 1    
   142   71  194 1    
   143   72   73 2    
   144   72   74 am   BACKBONE|DICT|INTERRES
   145   74   75 1    
   146   74  195 1    
   147   75   76 1    
   148   75   77 1    
   149   75  196 1    
   150   76  197 1    
   151   76  198 1    
   152   76  199 1    
   153   77   78 2    
   154   77   79 am   BACKBONE|DICT|INTERRES
   155   79   80 1    
   156   79  200 1    
   157   80   81 1    
   158   80   82 1    
   159   80  201 1    
   160   81  202 1    
   161   81  203 1    
   162   81  204 1    
   163   82   83 2    
   164   82   84 am   BACKBONE|DICT|INTERRES
   165   84   85 1    
   166   84  205 1    
   167   85   86 1    
   168   85   87 1    
   169   85  206 1    
   170   86  207 1    
   171   86  208 1    
   172   86  209 1    
   173   87   88 2    
   174   87   89 am   BACKBONE|DICT|INTERRES
   175   89   90 1    
   176   89  210 1    
   177   90   91 1    
   178   90   92 1    
   179   90  211 1    
   180   91  212 1    
   181   91  213 1    
   182   91  214 1    
   183   92   93 2    
   184   92   94 am   BACKBONE|DICT|INTERRES
   185   94   95 1    
   186   94  215 1    
   187   95   96 1    
   188   95   97 1    
   189   95  216 1    
   190   96  217 1    
   191   96  218 1    
   192   96  219 1    
   193   97   98 2    
   194   97   99 am   BACKBONE|DICT|INTERRES
   195   99  100 1    
   196   99  220 1    
   197  100  101 1    
   198  100  102 1    
   199  100  221 1    
   200  101  222 1    
   201  101  223 1    
   202  101  224 1    
   203  102  103 2    
   204  102  104 am   BACKBONE|DICT|INTERRES
   205  104  105 1    
   206  104  225 1    
   207  105  106 1    
   208  105  107 1    
   209  105  226 1    
   210  106  227 1    
   211  106  228 1    
   212  106  229 1    
   213  107  108 2    
   214  107  109 am   BACKBONE|DICT|INTERRES
   215  109  110 1    
   216  109  230 1    
   217  110  111 1    
   218  110  112 1    
   219  110  231 1    
   220  111  232 1    
   221  111  233 1    
   222  111  234 1    
   223  112  113 2    
   224  112  114 am   BACKBONE|DICT|INTERRES
   225  114  115 1    
   226  114  235 1    
   227  115  116 1    
   228  115  117 1    
   229  115  236 1    
   230  116  237 1    
   231  116  238 1    
   232  116  239 1    
   233  117  118 2    
   234  117  119 am   BACKBONE|DICT|INTERRES
   235  119  120 1    
   236  119  240 1    
   237  120  121 1    
   238  120  124 1    
   239  120  241 1    
   240  121  122 am   BACKBONE|DICT|INTERRES
   241  121  123 2    
   242  122  242 1    
   243  122  243 1    
   244  124  125 1    
   245  124  244 1    
   246  124  245 1    
   247  125  126 1    
   248  126  246 1    
   249  126  247 1    
@<TRIPOS>SUBSTRUCTURE
     1 UNK         1 GROUP             0       ****    0 ROOT    
