@<TRIPOS>MOLECULE
3R540
247   249    1
SMALL
USER_CHARGES


@<TRIPOS>ATOM
      1 CA          6.6994  -18.5557  -45.6929 C.3       0 UNK        -0.1800 
      2 C           5.4722  -17.7068  -45.3943 C.2       0 UNK         0.5000 
      3 O           4.9575  -17.7458  -44.2764 O.2       0 UNK        -0.5000 
      4 N           4.9992  -16.9446  -46.3883 N.am      1 UNK        -0.5000 
      5 CA          3.8323  -16.0595  -46.3065 C.3       1 UNK         0.1400 
      6 C6          3.2480  -15.7392  -47.7040 C.3       23 UNK        -0.0398 
      7 S7          2.5090  -17.2045  -48.4909 S.3       23 UNK        -0.2404 
      8 C8          1.7865  -16.4236  -49.9675 C.3       23 UNK        -0.0205 
      9 C9          1.0540  -17.4319  -50.8381 C.ar      23 UNK        -0.0193 
     10 C10        -0.3151  -17.2946  -51.0877 C.ar      23 UNK        -0.1150 
     11 C11        -0.9852  -18.2173  -51.8973 C.ar      23 UNK        -0.0193 
     12 C12        -0.2766  -19.2872  -52.4480 C.ar      23 UNK        -0.1150 
     13 C13         1.0819  -19.4559  -52.1754 C.ar      23 UNK        -0.0193 
     14 C14         1.7483  -18.5093  -51.3943 C.ar      23 UNK        -0.1150 
     15 C15         1.8143  -20.6976  -52.6600 C.3       23 UNK        -0.0205 
     16 S16         1.3344  -22.1806  -51.7086 S.3       23 UNK        -0.2404 
     17 C17         1.5663  -21.6174  -49.9848 C.3       23 UNK        -0.0398 
     18 CA          1.1743  -22.6807  -48.9255 C.3       11 UNK         0.1400 
     19 N           1.6253  -22.3177  -47.5764 N.am      11 UNK        -0.5000 
     20 C           1.2438  -21.2513  -46.8571 C.2       10 UNK         0.5000 
     21 O           0.3816  -20.4495  -47.2179 O.2       10 UNK        -0.5000 
     22 CA          1.9719  -21.0393  -45.5211 C.3       10 UNK         0.1400 
     23 CB          3.4456  -20.6641  -45.7669 C.3       10 UNK        -0.1800 
     24 N           1.3192  -19.9819  -44.7488 N.am      10 UNK        -0.5000 
     25 C           1.4521  -19.8030  -43.4269 C.2       9 UNK         0.5000 
     26 O           2.0839  -20.5696  -42.6986 O.2       9 UNK        -0.5000 
     27 CA          0.7842  -18.5629  -42.8031 C.3       9 UNK         0.1400 
     28 CB          1.7416  -17.3620  -42.8767 C.3       9 UNK        -0.1800 
     29 N          -0.4852  -18.2310  -43.4548 N.am      9 UNK        -0.5000 
     30 C          -1.6690  -18.7475  -43.0862 C.2       8 UNK         0.5000 
     31 O          -1.7984  -19.5092  -42.1272 O.2       8 UNK        -0.5000 
     32 CA         -2.9234  -18.3846  -43.9097 C.3       8 UNK         0.1400 
     33 CB         -3.9828  -17.6723  -43.0525 C.3       8 UNK        -0.1800 
     34 N          -2.6171  -17.5616  -45.0789 N.am      8 UNK        -0.5000 
     35 C          -2.3191  -18.0584  -46.2877 C.2       7 UNK         0.5000 
     36 O          -2.3731  -19.2568  -46.5529 O.2       7 UNK        -0.5000 
     37 CA         -1.8799  -17.0663  -47.3859 C.3       7 UNK         0.1400 
     38 CB         -3.0434  -16.7972  -48.3538 C.3       7 UNK        -0.1800 
     39 N          -1.3852  -15.7832  -46.8777 N.am      7 UNK        -0.5000 
     40 C          -0.3208  -15.6240  -46.0803 C.2       6 UNK         0.5000 
     41 O           0.3804  -16.5577  -45.6936 O.2       6 UNK        -0.5000 
     42 CA         -0.0099  -14.1989  -45.5799 C.3       6 UNK         0.1400 
     43 CB         -0.7820  -13.0844  -46.3191 C.3       6 UNK        -0.1800 
     44 N          -0.2006  -14.0725  -44.1316 N.am      6 UNK        -0.5000 
     45 C          -1.3089  -14.3485  -43.4281 C.2       5 UNK         0.5000 
     46 O          -2.3363  -14.7958  -43.9396 O.2       5 UNK        -0.5000 
     47 CA         -1.3032  -14.0642  -41.9133 C.3       5 UNK         0.1400 
     48 CB         -1.1691  -15.3499  -41.0776 C.3       5 UNK        -0.1800 
     49 N          -0.2850  -13.0982  -41.4874 N.am      5 UNK        -0.5000 
     50 C          -0.4628  -12.2180  -40.4900 C.2       4 UNK         0.5000 
     51 O          -1.5159  -12.1089  -39.8597 O.2       4 UNK        -0.5000 
     52 CA          0.7236  -11.3083  -40.1047 C.3       4 UNK         0.1400 
     53 CB          1.4400  -11.8643  -38.8641 C.3       4 UNK        -0.1800 
     54 N           1.7076  -11.1299  -41.1707 N.am      4 UNK        -0.5000 
     55 C           1.4943  -10.4724  -42.3171 C.2       3 UNK         0.5000 
     56 O           0.4544   -9.8624  -42.5683 O.2       3 UNK        -0.5000 
     57 CA          2.6195  -10.5141  -43.3728 C.3       3 UNK         0.1400 
     58 CB          3.3543   -9.1654  -43.4224 C.3       3 UNK        -0.1800 
     59 N           3.6144  -11.5853  -43.2157 N.am      3 UNK        -0.5000 
     60 C           3.3597  -12.8997  -43.1841 C.2       2 UNK         0.5000 
     61 O           2.2267  -13.3781  -43.1018 O.2       2 UNK        -0.5000 
     62 CA          4.5718  -13.8453  -43.2352 C.3       2 UNK         0.1400 
     63 CB          4.8350  -14.4519  -41.8491 C.3       2 UNK        -0.1800 
     64 N           4.3566  -14.9283  -44.1943 N.am      2 UNK        -0.5000 
     65 C           4.1631  -14.7780  -45.5108 C.2       1 UNK         0.5000 
     66 O           4.2537  -13.6948  -46.0922 O.2       1 UNK        -0.5000 
     67 C          -0.3216  -23.0640  -48.9267 C.2       11 UNK         0.5000 
     68 O          -0.6428  -24.2304  -48.6908 O.2       11 UNK        -0.5000 
     69 N          -1.2170  -22.0891  -49.1379 N.am      12 UNK        -0.5000 
     70 CA         -2.6711  -22.2549  -49.0600 C.3       12 UNK         0.1400 
     71 CB         -3.3531  -20.9628  -49.5246 C.3       12 UNK        -0.1800 
     72 C          -3.1569  -22.6811  -47.6591 C.2       12 UNK         0.5000 
     73 O          -4.1642  -23.3784  -47.5537 O.2       12 UNK        -0.5000 
     74 N          -2.3806  -22.3465  -46.6189 N.am      13 UNK        -0.5000 
     75 CA         -2.5428  -22.8230  -45.2426 C.3       13 UNK         0.1400 
     76 CB         -1.4726  -22.1573  -44.3692 C.3       13 UNK        -0.1800 
     77 C          -2.4397  -24.3567  -45.1024 C.2       13 UNK         0.5000 
     78 O          -3.0763  -24.9296  -44.2183 O.2       13 UNK        -0.5000 
     79 N          -1.6522  -24.9866  -45.9845 N.am      14 UNK        -0.5000 
     80 CA         -1.4783  -26.4354  -46.0960 C.3       14 UNK         0.1400 
     81 CB          0.0234  -26.7264  -46.2626 C.3       14 UNK        -0.1800 
     82 C          -2.2875  -27.0178  -47.2745 C.2       14 UNK         0.5000 
     83 O          -2.1208  -28.1946  -47.5965 O.2       14 UNK        -0.5000 
     84 N          -3.1257  -26.1841  -47.9109 N.am      15 UNK        -0.5000 
     85 CA         -3.9367  -26.4490  -49.1022 C.3       15 UNK         0.1400 
     86 CB         -5.0023  -27.5281  -48.8214 C.3       15 UNK        -0.1800 
     87 C          -3.1128  -26.7407  -50.3749 C.2       15 UNK         0.5000 
     88 O          -3.6551  -27.3007  -51.3291 O.2       15 UNK        -0.5000 
     89 N          -1.8370  -26.3219  -50.4060 N.am      16 UNK        -0.5000 
     90 CA         -0.9297  -26.5138  -51.5448 C.3       16 UNK         0.1400 
     91 CB          0.5112  -26.2066  -51.1111 C.3       16 UNK        -0.1800 
     92 C          -1.3201  -25.6698  -52.7744 C.2       16 UNK         0.5000 
     93 O          -1.0075  -26.0535  -53.9017 O.2       16 UNK        -0.5000 
     94 N          -2.0291  -24.5628  -52.5276 N.am      17 UNK        -0.5000 
     95 CA         -2.6653  -23.7081  -53.5265 C.3       17 UNK         0.1400 
     96 CB         -1.9977  -22.3254  -53.5013 C.3       17 UNK        -0.1800 
     97 C          -4.1790  -23.6328  -53.2577 C.2       17 UNK         0.5000 
     98 O          -4.7794  -22.5699  -53.4270 O.2       17 UNK        -0.5000 
     99 N          -4.7622  -24.7578  -52.8123 N.am      18 UNK        -0.5000 
    100 CA        -6.1717  -24.9410  -52.4519 C.3       18 UNK         0.1400 
    101 CB        -7.0405  -24.9662  -53.7292 C.3       18 UNK        -0.1800 
    102 C         -6.6435  -23.9152  -51.3968 C.2       18 UNK         0.5000 
    103 O         -5.8629  -23.5444  -50.5172 O.2       18 UNK        -0.5000 
    104 N         -7.8907  -23.4438  -51.5120 N.am      19 UNK        -0.5000 
    105 CA        -8.4783  -22.3849  -50.6901 C.3       19 UNK         0.1400 
    106 CB       -10.0072  -22.5659  -50.6744 C.3       19 UNK        -0.1800 
    107 C         -8.0446  -20.9851  -51.1805 C.2       19 UNK         0.5000 
    108 O         -8.8938  -20.1479  -51.4903 O.2       19 UNK        -0.5000 
    109 N         -6.7229  -20.7748  -51.2538 N.am      20 UNK        -0.5000 
    110 CA        -6.0282  -19.5677  -51.7083 C.3       20 UNK         0.1400 
    111 CB        -6.2424  -18.4006  -50.7230 C.3       20 UNK        -0.1800 
    112 C         -6.3582  -19.2059  -53.1699 C.2       20 UNK         0.5000 
    113 O         -6.8573  -18.1153  -53.4544 O.2       20 UNK        -0.5000 
    114 N         -6.0386  -20.1335  -54.0826 N.am      21 UNK        -0.5000 
    115 CA        -6.2134  -20.0006  -55.5339 C.3       21 UNK         0.1400 
    116 CB        -6.0124  -21.3785  -56.1850 C.3       21 UNK        -0.1800 
    117 C         -5.2962  -18.9475  -56.1962 C.2       21 UNK         0.5000 
    118 O         -5.4644  -18.6649  -57.3833 O.2       21 UNK        -0.5000 
    119 N         -4.3534  -18.3835  -55.4298 N.am      22 UNK        -0.5000 
    120 CA        -3.4797  -17.2663  -55.8183 C.3       22 UNK         0.1400 
    121 C         -4.2129  -15.9219  -56.1179 C.2       22 UNK         0.5000 
    122 N         -5.4512  -15.7266  -55.6776 N.am      22 UNK        -0.7600 
    123 O         -3.6485  -15.0471  -56.7694 O.2       22 UNK        -0.5000 
    124 C124       -2.3286  -17.0717  -54.7954 C.3       23 UNK        -0.0398 
    125 S125       -2.9016  -16.6135  -53.1168 S.3       23 UNK        -0.2404 
    126 C126       -2.4811  -18.0884  -52.1405 C.3       23 UNK        -0.0205 
    127 H127        7.0366  -18.4339  -46.7225 H         1 UNK         0.0600 
    128 H128        6.4734  -19.6097  -45.5318 H         1 UNK         0.0600 
    129 H129        7.5185  -18.2763  -45.0303 H         1 UNK         0.0600 
    130 H130        5.4723  -16.9527  -47.2804 H         1 UNK         0.3000 
    131 H131        3.0532  -16.5810  -45.7527 H         1 UNK         0.0600 
    132 H132        2.4652  -14.9827  -47.6273 H         1 UNK         0.0800 
    133 H133        4.0144  -15.3253  -48.3616 H         1 UNK         0.0800 
    134 H134        1.1112  -15.6257  -49.6546 H         1 UNK         0.0800 
    135 H135        2.5773  -15.9543  -50.5544 H         1 UNK         0.0800 
    136 H136       -0.8615  -16.4678  -50.6574 H         1 UNK         0.1150 
    137 H137       -0.7863  -20.0104  -53.0634 H         1 UNK         0.1150 
    138 H138        2.8009  -18.6317  -51.1807 H         1 UNK         0.1150 
    139 H139        2.8943  -20.5611  -52.5877 H         1 UNK         0.0800 
    140 H140        1.5944  -20.8635  -53.7155 H         1 UNK         0.0800 
    141 H141        1.0110  -20.6946  -49.8185 H         1 UNK         0.0800 
    142 H142        2.6183  -21.3545  -49.8659 H         1 UNK         0.0800 
    143 H143        1.7186  -23.5934  -49.1734 H         1 UNK         0.0600 
    144 H144        2.3213  -22.9346  -47.1819 H         1 UNK         0.3000 
    145 H145        1.9216  -21.9745  -44.9601 H         1 UNK         0.0600 
    146 H146        3.9752  -21.4504  -46.3054 H         1 UNK         0.0600 
    147 H147        3.9794  -20.5041  -44.8301 H         1 UNK         0.0600 
    148 H148        3.5249  -19.7508  -46.3579 H         1 UNK         0.0600 
    149 H149        0.7524  -19.3465  -45.2975 H         1 UNK         0.3000 
    150 H150        0.6016  -18.7697  -41.7464 H         1 UNK         0.0600 
    151 H151        2.1389  -17.2339  -43.8797 H         1 UNK         0.0600 
    152 H152        2.5944  -17.5050  -42.2122 H         1 UNK         0.0600 
    153 H153        1.2591  -16.4280  -42.5979 H         1 UNK         0.0600 
    154 H154       -0.4263  -17.6296  -44.2709 H         1 UNK         0.3000 
    155 H155       -3.3620  -19.3301  -44.2357 H         1 UNK         0.0600 
    156 H156       -4.8999  -17.5130  -43.6197 H         1 UNK         0.0600 
    157 H157       -3.6413  -16.7013  -42.6989 H         1 UNK         0.0600 
    158 H158       -4.2452  -18.2665  -42.1763 H         1 UNK         0.0600 
    159 H159       -2.5505  -16.5608  -44.9199 H         1 UNK         0.3000 
    160 H160       -1.0674  -17.5398  -47.9421 H         1 UNK         0.0600 
    161 H161       -3.8754  -16.3024  -47.8515 H         1 UNK         0.0600 
    162 H162       -3.4257  -17.7266  -48.7763 H         1 UNK         0.0600 
    163 H163       -2.7322  -16.1665  -49.1862 H         1 UNK         0.0600 
    164 H164       -1.9315  -14.9676  -47.1126 H         1 UNK         0.3000 
    165 H165        1.0533  -14.0384  -45.7624 H         1 UNK         0.0600 
    166 H166       -0.4500  -12.1008  -45.9861 H         1 UNK         0.0600 
    167 H167       -0.6099  -13.1313  -47.3952 H         1 UNK         0.0600 
    168 H168       -1.8574  -13.1411  -46.1470 H         1 UNK         0.0600 
    169 H169        0.6396  -13.7831  -43.6346 H         1 UNK         0.3000 
    170 H170       -2.2923  -13.6459  -41.7145 H         1 UNK         0.0600 
    171 H171       -1.4891  -15.1773  -40.0500 H         1 UNK         0.0600 
    172 H172       -0.1409  -15.7045  -41.0406 H         1 UNK         0.0600 
    173 H173       -1.7833  -16.1572  -41.4725 H         1 UNK         0.0600 
    174 H174        0.6107  -13.1251  -41.9626 H         1 UNK         0.3000 
    175 H175        0.3156  -10.3270  -39.8533 H         1 UNK         0.0600 
    176 H176        0.7455  -11.9833  -38.0314 H         1 UNK         0.0600 
    177 H177        1.8859  -12.8401  -39.0615 H         1 UNK         0.0600 
    178 H178        2.2319  -11.1932  -38.5309 H         1 UNK         0.0600 
    179 H179        2.5905  -11.6049  -41.0566 H         1 UNK         0.3000 
    180 H180        2.1338  -10.6707  -44.3382 H         1 UNK         0.0600 
    181 H181        3.8957   -8.9699  -42.4958 H         1 UNK         0.0600 
    182 H182        2.6554   -8.3415  -43.5741 H         1 UNK         0.0600 
    183 H183        4.0702   -9.1346  -44.2440 H         1 UNK         0.0600 
    184 H184        4.5789  -11.2882  -43.2517 H         1 UNK         0.3000 
    185 H185        5.4545  -13.2850  -43.5493 H         1 UNK         0.0600 
    186 H186        5.0225  -13.6726  -41.1093 H         1 UNK         0.0600 
    187 H187        3.9849  -15.0400  -41.4997 H         1 UNK         0.0600 
    188 H188        5.7089  -15.1036  -41.8635 H         1 UNK         0.0600 
    189 H189        4.3287  -15.8719  -43.8227 H         1 UNK         0.3000 
    190 H190       -0.8777  -21.1417  -49.2323 H         1 UNK         0.3000 
    191 H191       -2.9544  -23.0505  -49.7520 H         1 UNK         0.0600 
    192 H192       -3.1030  -20.7430  -50.5616 H         1 UNK         0.0600 
    193 H193       -4.4378  -21.0486  -49.4552 H         1 UNK         0.0600 
    194 H194       -3.0506  -20.1090  -48.9207 H         1 UNK         0.0600 
    195 H195       -1.6189  -21.7013  -46.7911 H         1 UNK         0.3000 
    196 H196       -3.5291  -22.5081  -44.8964 H         1 UNK         0.0600 
    197 H197       -1.6925  -22.2900  -43.3093 H         1 UNK         0.0600 
    198 H198       -1.4187  -21.0889  -44.5658 H         1 UNK         0.0600 
    199 H199       -0.4828  -22.5750  -44.5539 H         1 UNK         0.0600 
    200 H200       -1.1998  -24.4428  -46.7104 H         1 UNK         0.3000 
    201 H201       -1.8246  -26.9311  -45.1871 H         1 UNK         0.0600 
    202 H202        0.2164  -27.7996  -46.2871 H         1 UNK         0.0600 
    203 H203        0.5986  -26.3144  -45.4334 H         1 UNK         0.0600 
    204 H204        0.4162  -26.3012  -47.1871 H         1 UNK         0.0600 
    205 H205       -3.2147  -25.2427  -47.5473 H         1 UNK         0.3000 
    206 H206       -4.4678  -25.5193  -49.3067 H         1 UNK         0.0600 
    207 H207       -5.5765  -27.2905  -47.9259 H         1 UNK         0.0600 
    208 H208       -5.7108  -27.6034  -49.6471 H         1 UNK         0.0600 
    209 H209       -4.5564  -28.5134  -48.6841 H         1 UNK         0.0600 
    210 H210       -1.4610  -25.8213  -49.6069 H         1 UNK         0.3000 
    211 H211       -0.9780  -27.5650  -51.8366 H         1 UNK         0.0600 
    212 H212        0.6492  -25.1483  -50.8938 H         1 UNK         0.0600 
    213 H213        1.2172  -26.4687  -51.8999 H         1 UNK         0.0600 
    214 H214        0.7892  -26.7733  -50.2222 H         1 UNK         0.0600 
    215 H215       -2.2353  -24.3461  -51.5640 H         1 UNK         0.3000 
    216 H216       -2.5479  -24.1283  -54.5272 H         1 UNK         0.0600 
    217 H217       -2.4435  -21.6533  -54.2358 H         1 UNK         0.0600 
    218 H218       -0.9368  -22.4027  -53.7378 H         1 UNK         0.0600 
    219 H219       -2.0919  -21.8600  -52.5199 H         1 UNK         0.0600 
    220 H220       -4.1763  -25.5705  -52.6677 H         1 UNK         0.3000 
    221 H221       -6.2421  -25.9209  -51.9776 H         1 UNK         0.0600 
    222 H222       -7.0846  -23.9881  -54.2094 H         1 UNK         0.0600 
    223 H223       -6.6418  -25.6724  -54.4576 H         1 UNK         0.0600 
    224 H224       -8.0618  -25.2809  -53.5124 H         1 UNK         0.0600 
    225 H225       -8.4544  -23.7686  -52.2841 H         1 UNK         0.3000 
    226 H226       -8.1230  -22.4908  -49.6628 H         1 UNK         0.0600 
    227 H227      -10.2837  -23.5459  -50.2851 H         1 UNK         0.0600 
    228 H228      -10.4356  -22.4685  -51.6728 H         1 UNK         0.0600 
    229 H229      -10.4834  -21.8198  -50.0370 H         1 UNK         0.0600 
    230 H230       -6.1294  -21.5630  -51.0161 H         1 UNK         0.3000 
    231 H231       -4.9666  -19.8100  -51.6950 H         1 UNK         0.0600 
    232 H232       -7.2867  -18.0904  -50.6796 H         1 UNK         0.0600 
    233 H233       -5.6552  -17.5299  -51.0177 H         1 UNK         0.0600 
    234 H234       -5.9310  -18.6746  -49.7150 H         1 UNK         0.0600 
    235 H235       -5.6238  -21.0111  -53.7693 H         1 UNK         0.3000 
    236 H236       -7.2428  -19.6864  -55.7167 H         1 UNK         0.0600 
    237 H237       -4.9932  -21.7417  -56.0475 H         1 UNK         0.0600 
    238 H238       -6.6924  -22.1177  -55.7621 H         1 UNK         0.0600 
    239 H239       -6.2047  -21.3391  -57.2578 H         1 UNK         0.0600 
    240 H240       -4.3047  -18.6642  -54.4638 H         1 UNK         0.3000 
    241 H241       -3.0162  -17.5585  -56.7625 H         1 UNK         0.0600 
    242 H242       -5.9193  -14.8572  -55.8786 H         1 UNK         0.3800 
    243 H243       -5.9129  -16.4289  -55.1180 H         1 UNK         0.3800 
    244 H244       -1.6417  -16.2977  -55.1419 H         1 UNK         0.0800 
    245 H245       -1.7309  -17.9822  -54.7417 H         1 UNK         0.0800 
    246 H246       -2.9896  -18.0281  -51.1782 H         1 UNK         0.0800 
    247 H247       -2.8716  -18.9765  -52.6386 H         1 UNK         0.0800 
@<TRIPOS>BOND
     1    1    2 1    
     2    1  127 1    
     3    1  128 1    
     4    1  129 1    
     5    2    3 2    
     6    2    4 am   BACKBONE|DICT|INTERRES
     7    4    5 1    
     8    4  130 1    
     9    5    6 1    
    10    5   65 1    
    11    5  131 1    
    12    6    7 1    
    13    6  132 1    
    14    6  133 1    
    15    7    8 1    
    16    8    9 1    
    17    8  134 1    
    18    8  135 1    
    19    9   10 ar   
    20    9   14 ar   
    21   10   11 ar   
    22   10  136 1    
    23   11   12 ar   
    24   11  126 1    
    25   12   13 ar   
    26   12  137 1    
    27   13   14 ar   
    28   13   15 1    
    29   14  138 1    
    30   15   16 1    
    31   15  139 1    
    32   15  140 1    
    33   16   17 1    
    34   17   18 1    
    35   17  141 1    
    36   17  142 1    
    37   18   19 1    
    38   18   67 1    
    39   18  143 1    
    40   19   20 am   BACKBONE|DICT|INTERRES
    41   19  144 1    
    42   20   21 2    
    43   20   22 1    
    44   22   23 1    
    45   22   24 1    
    46   22  145 1    
    47   23  146 1    
    48   23  147 1    
    49   23  148 1    
    50   24   25 am   BACKBONE|DICT|INTERRES
    51   24  149 1    
    52   25   26 2    
    53   25   27 1    
    54   27   28 1    
    55   27   29 1    
    56   27  150 1    
    57   28  151 1    
    58   28  152 1    
    59   28  153 1    
    60   29   30 am   BACKBONE|DICT|INTERRES
    61   29  154 1    
    62   30   31 2    
    63   30   32 1    
    64   32   33 1    
    65   32   34 1    
    66   32  155 1    
    67   33  156 1    
    68   33  157 1    
    69   33  158 1    
    70   34   35 am   BACKBONE|DICT|INTERRES
    71   34  159 1    
    72   35   36 2    
    73   35   37 1    
    74   37   38 1    
    75   37   39 1    
    76   37  160 1    
    77   38  161 1    
    78   38  162 1    
    79   38  163 1    
    80   39   40 am   BACKBONE|DICT|INTERRES
    81   39  164 1    
    82   40   41 2    
    83   40   42 1    
    84   42   43 1    
    85   42   44 1    
    86   42  165 1    
    87   43  166 1    
    88   43  167 1    
    89   43  168 1    
    90   44   45 am   BACKBONE|DICT|INTERRES
    91   44  169 1    
    92   45   46 2    
    93   45   47 1    
    94   47   48 1    
    95   47   49 1    
    96   47  170 1    
    97   48  171 1    
    98   48  172 1    
    99   48  173 1    
   100   49   50 am   BACKBONE|DICT|INTERRES
   101   49  174 1    
   102   50   51 2    
   103   50   52 1    
   104   52   53 1    
   105   52   54 1    
   106   52  175 1    
   107   53  176 1    
   108   53  177 1    
   109   53  178 1    
   110   54   55 am   BACKBONE|DICT|INTERRES
   111   54  179 1    
   112   55   56 2    
   113   55   57 1    
   114   57   58 1    
   115   57   59 1    
   116   57  180 1    
   117   58  181 1    
   118   58  182 1    
   119   58  183 1    
   120   59   60 am   BACKBONE|DICT|INTERRES
   121   59  184 1    
   122   60   61 2    
   123   60   62 1    
   124   62   63 1    
   125   62   64 1    
   126   62  185 1    
   127   63  186 1    
   128   63  187 1    
   129   63  188 1    
   130   64   65 am   BACKBONE|DICT|INTERRES
   131   64  189 1    
   132   65   66 2    
   133   67   68 2    
   134   67   69 am   BACKBONE|DICT|INTERRES
   135   69   70 1    
   136   69  190 1    
   137   70   71 1    
   138   70   72 1    
   139   70  191 1    
   140   71  192 1    
   141   71  193 1    
   142   71  194 1    
   143   72   73 2    
   144   72   74 am   BACKBONE|DICT|INTERRES
   145   74   75 1    
   146   74  195 1    
   147   75   76 1    
   148   75   77 1    
   149   75  196 1    
   150   76  197 1    
   151   76  198 1    
   152   76  199 1    
   153   77   78 2    
   154   77   79 am   BACKBONE|DICT|INTERRES
   155   79   80 1    
   156   79  200 1    
   157   80   81 1    
   158   80   82 1    
   159   80  201 1    
   160   81  202 1    
   161   81  203 1    
   162   81  204 1    
   163   82   83 2    
   164   82   84 am   BACKBONE|DICT|INTERRES
   165   84   85 1    
   166   84  205 1    
   167   85   86 1    
   168   85   87 1    
   169   85  206 1    
   170   86  207 1    
   171   86  208 1    
   172   86  209 1    
   173   87   88 2    
   174   87   89 am   BACKBONE|DICT|INTERRES
   175   89   90 1    
   176   89  210 1    
   177   90   91 1    
   178   90   92 1    
   179   90  211 1    
   180   91  212 1    
   181   91  213 1    
   182   91  214 1    
   183   92   93 2    
   184   92   94 am   BACKBONE|DICT|INTERRES
   185   94   95 1    
   186   94  215 1    
   187   95   96 1    
   188   95   97 1    
   189   95  216 1    
   190   96  217 1    
   191   96  218 1    
   192   96  219 1    
   193   97   98 2    
   194   97   99 am   BACKBONE|DICT|INTERRES
   195   99  100 1    
   196   99  220 1    
   197  100  101 1    
   198  100  102 1    
   199  100  221 1    
   200  101  222 1    
   201  101  223 1    
   202  101  224 1    
   203  102  103 2    
   204  102  104 am   BACKBONE|DICT|INTERRES
   205  104  105 1    
   206  104  225 1    
   207  105  106 1    
   208  105  107 1    
   209  105  226 1    
   210  106  227 1    
   211  106  228 1    
   212  106  229 1    
   213  107  108 2    
   214  107  109 am   BACKBONE|DICT|INTERRES
   215  109  110 1    
   216  109  230 1    
   217  110  111 1    
   218  110  112 1    
   219  110  231 1    
   220  111  232 1    
   221  111  233 1    
   222  111  234 1    
   223  112  113 2    
   224  112  114 am   BACKBONE|DICT|INTERRES
   225  114  115 1    
   226  114  235 1    
   227  115  116 1    
   228  115  117 1    
   229  115  236 1    
   230  116  237 1    
   231  116  238 1    
   232  116  239 1    
   233  117  118 2    
   234  117  119 am   BACKBONE|DICT|INTERRES
   235  119  120 1    
   236  119  240 1    
   237  120  121 1    
   238  120  124 1    
   239  120  241 1    
   240  121  122 am   BACKBONE|DICT|INTERRES
   241  121  123 2    
   242  122  242 1    
   243  122  243 1    
   244  124  125 1    
   245  124  244 1    
   246  124  245 1    
   247  125  126 1    
   248  126  246 1    
   249  126  247 1    
@<TRIPOS>SUBSTRUCTURE
     1 UNK         1 GROUP             0       ****    0 ROOT    
