@<TRIPOS>MOLECULE
3R540
247   249    1
SMALL
USER_CHARGES


@<TRIPOS>ATOM
      1 CA          4.8006  -10.6739  -49.9020 C.3       0 UNK        -0.1800 
      2 C           4.9347  -12.1734  -49.6774 C.2       0 UNK         0.5000 
      3 O           6.0218  -12.6494  -49.3499 O.2       0 UNK        -0.5000 
      4 N           3.8350  -12.9175  -49.8512 N.am      1 UNK        -0.5000 
      5 CA          3.7675  -14.3757  -49.6781 C.3       1 UNK         0.1400 
      6 C6          2.4741  -14.9704  -50.2851 C.3       23 UNK        -0.0398 
      7 S7          2.3660  -14.7246  -52.0896 S.3       23 UNK        -0.2404 
      8 C8          2.9941  -16.3166  -52.7155 C.3       23 UNK        -0.0205 
      9 C9          2.0501  -17.4721  -52.4123 C.ar      23 UNK        -0.0193 
     10 C10         0.8465  -17.5956  -53.1094 C.ar      23 UNK        -0.1150 
     11 C11        -0.0236  -18.6573  -52.8473 C.ar      23 UNK        -0.0193 
     12 C12         0.3159  -19.6003  -51.8698 C.ar      23 UNK        -0.1150 
     13 C13         1.5264  -19.4971  -51.1724 C.ar      23 UNK        -0.0193 
     14 C14         2.3888  -18.4319  -51.4546 C.ar      23 UNK        -0.1150 
     15 C15         1.9430  -20.5850  -50.1872 C.3       23 UNK        -0.0205 
     16 S16         2.5744  -19.9556  -48.5913 S.3       23 UNK        -0.2404 
     17 C17         1.0649  -19.8084  -47.5776 C.3       23 UNK        -0.0398 
     18 CA          0.6333  -21.1732  -46.9644 C.3       11 UNK         0.1400 
     19 N           0.4715  -21.1455  -45.5056 N.am      11 UNK        -0.5000 
     20 C           0.2582  -22.2344  -44.7482 C.2       10 UNK         0.5000 
     21 O           0.2401  -23.3827  -45.1914 O.2       10 UNK        -0.5000 
     22 CA         -0.0537  -22.0069  -43.2578 C.3       10 UNK         0.1400 
     23 CB          1.2311  -21.7802  -42.4482 C.3       10 UNK        -0.1800 
     24 N          -0.9875  -20.9000  -43.0479 N.am      10 UNK        -0.5000 
     25 C          -2.2525  -20.8907  -43.4940 C.2       9 UNK         0.5000 
     26 O          -2.7811  -21.8451  -44.0647 O.2       9 UNK        -0.5000 
     27 CA         -3.0450  -19.5824  -43.3213 C.3       9 UNK         0.1400 
     28 CB         -3.6526  -19.4939  -41.9138 C.3       9 UNK        -0.1800 
     29 N          -2.2360  -18.3919  -43.5854 N.am      9 UNK        -0.5000 
     30 C          -1.6762  -18.0922  -44.7666 C.2       8 UNK         0.5000 
     31 O          -1.8210  -18.7670  -45.7855 O.2       8 UNK        -0.5000 
     32 CA         -0.7439  -16.8685  -44.7981 C.3       8 UNK         0.1400 
     33 CB         -1.5474  -15.5613  -44.8621 C.3       8 UNK        -0.1800 
     34 N           0.1646  -16.8423  -43.6506 N.am      8 UNK        -0.5000 
     35 C           1.1107  -17.7633  -43.4162 C.2       7 UNK         0.5000 
     36 O           1.3511  -18.6997  -44.1771 O.2       7 UNK        -0.5000 
     37 CA          1.8802  -17.6534  -42.0879 C.3       7 UNK         0.1400 
     38 CB          3.0941  -16.7191  -42.2086 C.3       7 UNK        -0.1800 
     39 N           1.0197  -17.2076  -40.9933 N.am      7 UNK        -0.5000 
     40 C           0.0587  -17.9594  -40.4387 C.2       6 UNK         0.5000 
     41 O          -0.1680  -19.1255  -40.7611 O.2       6 UNK        -0.5000 
     42 CA         -0.8248  -17.2734  -39.3806 C.3       6 UNK         0.1400 
     43 CB         -0.1336  -17.2791  -38.0090 C.3       6 UNK        -0.1800 
     44 N          -1.1680  -15.8977  -39.7469 N.am      6 UNK        -0.5000 
     45 C          -1.9420  -15.5654  -40.7899 C.2       5 UNK         0.5000 
     46 O          -2.4835  -16.3897  -41.5248 O.2       5 UNK        -0.5000 
     47 CA         -2.1028  -14.0632  -41.0915 C.3       5 UNK         0.1400 
     48 CB         -3.3058  -13.4885  -40.3294 C.3       5 UNK        -0.1800 
     49 N          -0.9096  -13.2687  -40.7850 N.am      5 UNK        -0.5000 
     50 C           0.2887  -13.4302  -41.3609 C.2       4 UNK         0.5000 
     51 O           0.5358  -14.2980  -42.2032 O.2       4 UNK        -0.5000 
     52 CA          1.4044  -12.4974  -40.8745 C.3       4 UNK         0.1400 
     53 CB          1.9159  -12.9402  -39.4907 C.3       4 UNK        -0.1800 
     54 N           2.5038  -12.5191  -41.8336 N.am      4 UNK        -0.5000 
     55 C           3.4255  -11.5599  -41.9817 C.2       3 UNK         0.5000 
     56 O           3.4219  -10.5121  -41.3337 O.2       3 UNK        -0.5000 
     57 CA          4.5561  -11.8053  -43.0009 C.3       3 UNK         0.1400 
     58 CB          5.8844  -12.0566  -42.2683 C.3       3 UNK        -0.1800 
     59 N           4.2948  -12.9430  -43.8858 N.am      3 UNK        -0.5000 
     60 C           3.7028  -12.8560  -45.0820 C.2       2 UNK         0.5000 
     61 O           3.2993  -11.8033  -45.5833 O.2       2 UNK        -0.5000 
     62 CA          3.5154  -14.1779  -45.8348 C.3       2 UNK         0.1400 
     63 CB          2.1846  -14.8412  -45.4523 C.3       2 UNK        -0.1800 
     64 N           3.5283  -13.9270  -47.2689 N.am      2 UNK        -0.5000 
     65 C           3.8917  -14.8128  -48.2030 C.2       1 UNK         0.5000 
     66 O           4.2973  -15.9467  -47.9443 O.2       1 UNK        -0.5000 
     67 C          -0.6310  -21.7125  -47.6583 C.2       11 UNK         0.5000 
     68 O          -0.5214  -22.5871  -48.5151 O.2       11 UNK        -0.5000 
     69 N          -1.8071  -21.2135  -47.2517 N.am      12 UNK        -0.5000 
     70 CA         -3.1075  -21.6370  -47.7680 C.3       12 UNK         0.1400 
     71 CB         -4.2251  -20.7805  -47.1568 C.3       12 UNK        -0.1800 
     72 C          -3.3844  -23.1350  -47.5600 C.2       12 UNK         0.5000 
     73 O          -3.8749  -23.7882  -48.4821 O.2       12 UNK        -0.5000 
     74 N          -3.0281  -23.6539  -46.3780 N.am      13 UNK        -0.5000 
     75 CA         -3.0890  -25.0749  -46.0461 C.3       13 UNK         0.1400 
     76 CB         -2.8478  -25.2628  -44.5405 C.3       13 UNK        -0.1800 
     77 C          -2.0984  -25.9116  -46.8762 C.2       13 UNK         0.5000 
     78 O          -2.5041  -26.9093  -47.4737 O.2       13 UNK        -0.5000 
     79 N          -0.8300  -25.4776  -46.9252 N.am      14 UNK        -0.5000 
     80 CA          0.2561  -26.1423  -47.6524 C.3       14 UNK         0.1400 
     81 CB          1.5868  -25.4408  -47.3411 C.3       14 UNK        -0.1800 
     82 C           0.0262  -26.2088  -49.1733 C.2       14 UNK         0.5000 
     83 O           0.3161  -27.2348  -49.7893 O.2       14 UNK        -0.5000 
     84 N          -0.5210  -25.1279  -49.7414 N.am      15 UNK        -0.5000 
     85 CA         -0.8772  -25.0038  -51.1539 C.3       15 UNK         0.1400 
     86 CB         -0.7184  -23.5347  -51.5803 C.3       15 UNK        -0.1800 
     87 C          -2.2842  -25.5476  -51.4815 C.2       15 UNK         0.5000 
     88 O          -2.7559  -25.3163  -52.5938 O.2       15 UNK        -0.5000 
     89 N          -2.9248  -26.2538  -50.5357 N.am      16 UNK        -0.5000 
     90 CA         -4.1975  -26.9722  -50.6667 C.3       16 UNK         0.1400 
     91 CB         -4.0245  -28.1959  -51.5901 C.3       16 UNK        -0.1800 
     92 C          -5.3606  -26.0571  -51.0999 C.2       16 UNK         0.5000 
     93 O          -5.8513  -26.1621  -52.2253 O.2       16 UNK        -0.5000 
     94 N          -5.7529  -25.1618  -50.1847 N.am      17 UNK        -0.5000 
     95 CA         -6.7329  -24.0832  -50.3525 C.3       17 UNK         0.1400 
     96 CB         -8.1145  -24.6004  -50.8078 C.3       17 UNK        -0.1800 
     97 C          -6.1730  -22.9477  -51.2289 C.2       17 UNK         0.5000 
     98 O          -6.8664  -22.4292  -52.1072 O.2       17 UNK        -0.5000 
     99 N          -4.9145  -22.5791  -50.9427 N.am      18 UNK        -0.5000 
    100 CA        -4.1687  -21.4579  -51.5198 C.3       18 UNK         0.1400 
    101 CB        -4.7493  -20.1257  -51.0039 C.3       18 UNK        -0.1800 
    102 C         -4.0788  -21.5276  -53.0556 C.2       18 UNK         0.5000 
    103 O         -4.4026  -20.5510  -53.7338 O.2       18 UNK        -0.5000 
    104 N         -3.6825  -22.7003  -53.5718 N.am      19 UNK        -0.5000 
    105 CA        -3.5591  -23.0910  -54.9816 C.3       19 UNK         0.1400 
    106 CB        -2.5589  -22.1917  -55.7357 C.3       19 UNK        -0.1800 
    107 C         -4.9127  -23.1835  -55.7110 C.2       19 UNK         0.5000 
    108 O         -5.2491  -24.2403  -56.2463 O.2       19 UNK        -0.5000 
    109 N         -5.6633  -22.0810  -55.7006 N.am      20 UNK        -0.5000 
    110 CA        -7.0020  -21.9196  -56.2529 C.3       20 UNK         0.1400 
    111 CB        -6.9516  -21.8829  -57.7952 C.3       20 UNK        -0.1800 
    112 C         -7.6303  -20.6573  -55.6375 C.2       20 UNK         0.5000 
    113 O         -8.1433  -19.8084  -56.3686 O.2       20 UNK        -0.5000 
    114 N         -7.5423  -20.5421  -54.3021 N.am      21 UNK        -0.5000 
    115 CA        -7.9777  -19.4061  -53.4837 C.3       21 UNK         0.1400 
    116 CB        -9.5173  -19.2953  -53.4837 C.3       21 UNK        -0.1800 
    117 C         -7.2698  -18.0886  -53.8724 C.2       21 UNK         0.5000 
    118 O         -7.9384  -17.0982  -54.1754 O.2       21 UNK        -0.5000 
    119 N         -5.9275  -18.1073  -53.8849 N.am      22 UNK        -0.5000 
    120 CA        -5.0759  -16.9773  -54.3039 C.3       22 UNK         0.1400 
    121 C         -5.1721  -15.6763  -53.4472 C.2       22 UNK         0.5000 
    122 N         -5.7189  -15.7121  -52.2378 N.am      22 UNK        -0.7600 
    123 O         -4.7523  -14.6131  -53.8966 O.2       22 UNK        -0.5000 
    124 C124       -3.6036  -17.4121  -54.5511 C.3       23 UNK        -0.0398 
    125 S125       -2.5940  -17.6606  -53.0438 S.3       23 UNK        -0.2404 
    126 C126       -1.3063  -18.7890  -53.6556 C.3       23 UNK        -0.0205 
    127 H127        5.0449  -10.1347  -48.9867 H         1 UNK         0.0600 
    128 H128        3.7890  -10.3971  -50.2000 H         1 UNK         0.0600 
    129 H129        5.4863  -10.3487  -50.6844 H         1 UNK         0.0600 
    130 H130        2.9765  -12.4725  -50.1436 H         1 UNK         0.3000 
    131 H131        4.6183  -14.8128  -50.2056 H         1 UNK         0.0600 
    132 H132        2.3963  -16.0354  -50.0638 H         1 UNK         0.0800 
    133 H133        1.5949  -14.5119  -49.8290 H         1 UNK         0.0800 
    134 H134        3.9848  -16.5032  -52.2979 H         1 UNK         0.0800 
    135 H135        3.1292  -16.2409  -53.7954 H         1 UNK         0.0800 
    136 H136        0.5865  -16.8624  -53.8603 H         1 UNK         0.1150 
    137 H137       -0.3487  -20.4302  -51.6747 H         1 UNK         0.1150 
    138 H138        3.3319  -18.3559  -50.9317 H         1 UNK         0.1150 
    139 H139        1.1257  -21.2824  -50.0123 H         1 UNK         0.0800 
    140 H140        2.7358  -21.1696  -50.6554 H         1 UNK         0.0800 
    141 H141        0.2797  -19.3356  -48.1721 H         1 UNK         0.0800 
    142 H142        1.2898  -19.0900  -46.7892 H         1 UNK         0.0800 
    143 H143        1.4206  -21.9065  -47.1521 H         1 UNK         0.0600 
    144 H144        0.5227  -20.2373  -45.0535 H         1 UNK         0.3000 
    145 H145       -0.5301  -22.9137  -42.8792 H         1 UNK         0.0600 
    146 H146        1.0128  -21.6588  -41.3871 H         1 UNK         0.0600 
    147 H147        1.9059  -22.6314  -42.5464 H         1 UNK         0.0600 
    148 H148        1.7722  -20.8961  -42.7822 H         1 UNK         0.0600 
    149 H149       -0.6418  -20.0981  -42.5325 H         1 UNK         0.3000 
    150 H150       -3.8639  -19.5923  -44.0430 H         1 UNK         0.0600 
    151 H151       -4.2753  -20.3638  -41.7015 H         1 UNK         0.0600 
    152 H152       -4.2826  -18.6101  -41.8123 H         1 UNK         0.0600 
    153 H153       -2.8822  -19.4445  -41.1441 H         1 UNK         0.0600 
    154 H154       -2.1106  -17.7487  -42.8083 H         1 UNK         0.3000 
    155 H155       -0.1361  -16.9360  -45.7025 H         1 UNK         0.0600 
    156 H156       -2.2435  -15.4722  -44.0292 H         1 UNK         0.0600 
    157 H157       -2.1328  -15.5130  -45.7808 H         1 UNK         0.0600 
    158 H158       -0.8933  -14.6897  -44.8450 H         1 UNK         0.0600 
    159 H159        0.0698  -16.0663  -43.0037 H         1 UNK         0.3000 
    160 H160        2.2533  -18.6506  -41.8457 H         1 UNK         0.0600 
    161 H161        2.7990  -15.6762  -42.3092 H         1 UNK         0.0600 
    162 H162        3.7044  -16.9772  -43.0751 H         1 UNK         0.0600 
    163 H163        3.7321  -16.7959  -41.3282 H         1 UNK         0.0600 
    164 H164        1.1039  -16.2420  -40.7129 H         1 UNK         0.3000 
    165 H165       -1.7515  -17.8455  -39.2990 H         1 UNK         0.0600 
    166 H166       -0.7842  -16.8651  -37.2384 H         1 UNK         0.0600 
    167 H167        0.1218  -18.2953  -37.7056 H         1 UNK         0.0600 
    168 H168        0.7889  -16.6972  -38.0181 H         1 UNK         0.0600 
    169 H169       -0.7657  -15.1589  -39.1897 H         1 UNK         0.3000 
    170 H170       -2.2994  -13.9621  -42.1603 H         1 UNK         0.0600 
    171 H171       -4.2149  -14.0473  -40.5563 H         1 UNK         0.0600 
    172 H172       -3.1562  -13.5291  -39.2497 H         1 UNK         0.0600 
    173 H173       -3.4881  -12.4496  -40.6051 H         1 UNK         0.0600 
    174 H174       -1.0244  -12.5404  -40.0948 H         1 UNK         0.3000 
    175 H175        0.9975  -11.4859  -40.8123 H         1 UNK         0.0600 
    176 H176        2.3339  -13.9473  -39.5214 H         1 UNK         0.0600 
    177 H177        2.6920  -12.2694  -39.1220 H         1 UNK         0.0600 
    178 H178        1.1142  -12.9382  -38.7514 H         1 UNK         0.0600 
    179 H179        2.5107  -13.3240  -42.4449 H         1 UNK         0.3000 
    180 H180        4.6652  -10.8943  -43.5933 H         1 UNK         0.0600 
    181 H181        5.8376  -12.9492  -41.6431 H         1 UNK         0.0600 
    182 H182        6.1410  -11.2163  -41.6217 H         1 UNK         0.0600 
    183 H183        6.7059  -12.1829  -42.9738 H         1 UNK         0.0600 
    184 H184        4.6044  -13.8450  -43.5532 H         1 UNK         0.3000 
    185 H185        4.3423  -14.8410  -45.5703 H         1 UNK         0.0600 
    186 H186        2.0869  -14.9316  -44.3727 H         1 UNK         0.0600 
    187 H187        1.3321  -14.2612  -45.8066 H         1 UNK         0.0600 
    188 H188        2.1089  -15.8436  -45.8737 H         1 UNK         0.0600 
    189 H189        3.2603  -12.9898  -47.5409 H         1 UNK         0.3000 
    190 H190       -1.8106  -20.4595  -46.5682 H         1 UNK         0.3000 
    191 H191       -3.0902  -21.4545  -48.8410 H         1 UNK         0.0600 
    192 H192       -4.2887  -20.9100  -46.0771 H         1 UNK         0.0600 
    193 H193       -5.1956  -21.0497  -47.5754 H         1 UNK         0.0600 
    194 H194       -4.0655  -19.7210  -47.3581 H         1 UNK         0.0600 
    195 H195       -2.6814  -23.0288  -45.6563 H         1 UNK         0.3000 
    196 H196       -4.0965  -25.4297  -46.2730 H         1 UNK         0.0600 
    197 H197       -2.9018  -26.3164  -44.2642 H         1 UNK         0.0600 
    198 H198       -3.5984  -24.7328  -43.9538 H         1 UNK         0.0600 
    199 H199       -1.8680  -24.8924  -44.2375 H         1 UNK         0.0600 
    200 H200       -0.5731  -24.6486  -46.3954 H         1 UNK         0.3000 
    201 H201        0.3191  -27.1681  -47.2840 H         1 UNK         0.0600 
    202 H202        1.8075  -25.4702  -46.2740 H         1 UNK         0.0600 
    203 H203        1.5712  -24.3953  -47.6510 H         1 UNK         0.0600 
    204 H204        2.4160  -25.9253  -47.8581 H         1 UNK         0.0600 
    205 H205       -0.6791  -24.3021  -49.1664 H         1 UNK         0.3000 
    206 H206       -0.1745  -25.5914  -51.7480 H         1 UNK         0.0600 
    207 H207        0.3025  -23.1899  -51.4167 H         1 UNK         0.0600 
    208 H208       -0.9368  -23.3961  -52.6398 H         1 UNK         0.0600 
    209 H209       -1.3818  -22.8850  -51.0137 H         1 UNK         0.0600 
    210 H210       -2.4743  -26.3458  -49.6335 H         1 UNK         0.3000 
    211 H211       -4.4444  -27.3477  -49.6724 H         1 UNK         0.0600 
    212 H212       -3.7627  -27.9053  -52.6081 H         1 UNK         0.0600 
    213 H213       -4.9459  -28.7770  -51.6428 H         1 UNK         0.0600 
    214 H214       -3.2425  -28.8593  -51.2205 H         1 UNK         0.0600 
    215 H215       -5.2079  -25.1020  -49.3308 H         1 UNK         0.3000 
    216 H216       -6.8673  -23.6516  -49.3595 H         1 UNK         0.0600 
    217 H217       -8.8612  -23.8079  -50.7460 H         1 UNK         0.0600 
    218 H218       -8.4578  -25.4202  -50.1769 H         1 UNK         0.0600 
    219 H219       -8.1042  -24.9497  -51.8402 H         1 UNK         0.0600 
    220 H220       -4.4444  -23.0936  -50.2036 H         1 UNK         0.3000 
    221 H221       -3.1458  -21.5271  -51.1553 H         1 UNK         0.0600 
    222 H222       -5.7582  -19.9543  -51.3709 H         1 UNK         0.0600 
    223 H223       -4.7902  -20.1021  -49.9165 H         1 UNK         0.0600 
    224 H224       -4.1379  -19.2818  -51.3163 H         1 UNK         0.0600 
    225 H225       -3.5014  -23.4675  -52.9326 H         1 UNK         0.3000 
    226 H226       -3.1407  -24.0985  -54.9730 H         1 UNK         0.0600 
    227 H227       -1.5879  -22.1843  -55.2406 H         1 UNK         0.0600 
    228 H228       -2.4030  -22.5556  -56.7518 H         1 UNK         0.0600 
    229 H229       -2.9030  -21.1600  -55.8116 H         1 UNK         0.0600 
    230 H230       -5.3004  -21.2856  -55.1790 H         1 UNK         0.3000 
    231 H231       -7.6147  -22.7676  -55.9410 H         1 UNK         0.0600 
    232 H232       -6.5477  -22.8080  -58.2056 H         1 UNK         0.0600 
    233 H233       -6.3332  -21.0597  -58.1547 H         1 UNK         0.0600 
    234 H234       -7.9494  -21.7561  -58.2169 H         1 UNK         0.0600 
    235 H235       -7.1225  -21.3022  -53.7742 H         1 UNK         0.3000 
    236 H236       -7.6796  -19.6293  -52.4604 H         1 UNK         0.0600 
    237 H237       -9.8514  -18.5176  -52.7961 H         1 UNK         0.0600 
    238 H238       -9.9102  -19.0490  -54.4705 H         1 UNK         0.0600 
    239 H239       -9.9778  -20.2299  -53.1634 H         1 UNK         0.0600 
    240 H240       -5.4366  -18.9715  -53.6703 H         1 UNK         0.3000 
    241 H241       -5.4645  -16.6862  -55.2818 H         1 UNK         0.0600 
    242 H242       -5.7814  -14.8652  -51.6957 H         1 UNK         0.3800 
    243 H243       -6.0644  -16.5790  -51.8607 H         1 UNK         0.3800 
    244 H244       -3.5880  -18.3267  -55.1458 H         1 UNK         0.0800 
    245 H245       -3.0995  -16.6603  -55.1603 H         1 UNK         0.0800 
    246 H246       -1.0911  -18.5684  -54.7022 H         1 UNK         0.0800 
    247 H247       -1.6772  -19.8138  -53.6291 H         1 UNK         0.0800 
@<TRIPOS>BOND
     1    1    2 1    
     2    1  127 1    
     3    1  128 1    
     4    1  129 1    
     5    2    3 2    
     6    2    4 am   BACKBONE|DICT|INTERRES
     7    4    5 1    
     8    4  130 1    
     9    5    6 1    
    10    5   65 1    
    11    5  131 1    
    12    6    7 1    
    13    6  132 1    
    14    6  133 1    
    15    7    8 1    
    16    8    9 1    
    17    8  134 1    
    18    8  135 1    
    19    9   10 ar   
    20    9   14 ar   
    21   10   11 ar   
    22   10  136 1    
    23   11   12 ar   
    24   11  126 1    
    25   12   13 ar   
    26   12  137 1    
    27   13   14 ar   
    28   13   15 1    
    29   14  138 1    
    30   15   16 1    
    31   15  139 1    
    32   15  140 1    
    33   16   17 1    
    34   17   18 1    
    35   17  141 1    
    36   17  142 1    
    37   18   19 1    
    38   18   67 1    
    39   18  143 1    
    40   19   20 am   BACKBONE|DICT|INTERRES
    41   19  144 1    
    42   20   21 2    
    43   20   22 1    
    44   22   23 1    
    45   22   24 1    
    46   22  145 1    
    47   23  146 1    
    48   23  147 1    
    49   23  148 1    
    50   24   25 am   BACKBONE|DICT|INTERRES
    51   24  149 1    
    52   25   26 2    
    53   25   27 1    
    54   27   28 1    
    55   27   29 1    
    56   27  150 1    
    57   28  151 1    
    58   28  152 1    
    59   28  153 1    
    60   29   30 am   BACKBONE|DICT|INTERRES
    61   29  154 1    
    62   30   31 2    
    63   30   32 1    
    64   32   33 1    
    65   32   34 1    
    66   32  155 1    
    67   33  156 1    
    68   33  157 1    
    69   33  158 1    
    70   34   35 am   BACKBONE|DICT|INTERRES
    71   34  159 1    
    72   35   36 2    
    73   35   37 1    
    74   37   38 1    
    75   37   39 1    
    76   37  160 1    
    77   38  161 1    
    78   38  162 1    
    79   38  163 1    
    80   39   40 am   BACKBONE|DICT|INTERRES
    81   39  164 1    
    82   40   41 2    
    83   40   42 1    
    84   42   43 1    
    85   42   44 1    
    86   42  165 1    
    87   43  166 1    
    88   43  167 1    
    89   43  168 1    
    90   44   45 am   BACKBONE|DICT|INTERRES
    91   44  169 1    
    92   45   46 2    
    93   45   47 1    
    94   47   48 1    
    95   47   49 1    
    96   47  170 1    
    97   48  171 1    
    98   48  172 1    
    99   48  173 1    
   100   49   50 am   BACKBONE|DICT|INTERRES
   101   49  174 1    
   102   50   51 2    
   103   50   52 1    
   104   52   53 1    
   105   52   54 1    
   106   52  175 1    
   107   53  176 1    
   108   53  177 1    
   109   53  178 1    
   110   54   55 am   BACKBONE|DICT|INTERRES
   111   54  179 1    
   112   55   56 2    
   113   55   57 1    
   114   57   58 1    
   115   57   59 1    
   116   57  180 1    
   117   58  181 1    
   118   58  182 1    
   119   58  183 1    
   120   59   60 am   BACKBONE|DICT|INTERRES
   121   59  184 1    
   122   60   61 2    
   123   60   62 1    
   124   62   63 1    
   125   62   64 1    
   126   62  185 1    
   127   63  186 1    
   128   63  187 1    
   129   63  188 1    
   130   64   65 am   BACKBONE|DICT|INTERRES
   131   64  189 1    
   132   65   66 2    
   133   67   68 2    
   134   67   69 am   BACKBONE|DICT|INTERRES
   135   69   70 1    
   136   69  190 1    
   137   70   71 1    
   138   70   72 1    
   139   70  191 1    
   140   71  192 1    
   141   71  193 1    
   142   71  194 1    
   143   72   73 2    
   144   72   74 am   BACKBONE|DICT|INTERRES
   145   74   75 1    
   146   74  195 1    
   147   75   76 1    
   148   75   77 1    
   149   75  196 1    
   150   76  197 1    
   151   76  198 1    
   152   76  199 1    
   153   77   78 2    
   154   77   79 am   BACKBONE|DICT|INTERRES
   155   79   80 1    
   156   79  200 1    
   157   80   81 1    
   158   80   82 1    
   159   80  201 1    
   160   81  202 1    
   161   81  203 1    
   162   81  204 1    
   163   82   83 2    
   164   82   84 am   BACKBONE|DICT|INTERRES
   165   84   85 1    
   166   84  205 1    
   167   85   86 1    
   168   85   87 1    
   169   85  206 1    
   170   86  207 1    
   171   86  208 1    
   172   86  209 1    
   173   87   88 2    
   174   87   89 am   BACKBONE|DICT|INTERRES
   175   89   90 1    
   176   89  210 1    
   177   90   91 1    
   178   90   92 1    
   179   90  211 1    
   180   91  212 1    
   181   91  213 1    
   182   91  214 1    
   183   92   93 2    
   184   92   94 am   BACKBONE|DICT|INTERRES
   185   94   95 1    
   186   94  215 1    
   187   95   96 1    
   188   95   97 1    
   189   95  216 1    
   190   96  217 1    
   191   96  218 1    
   192   96  219 1    
   193   97   98 2    
   194   97   99 am   BACKBONE|DICT|INTERRES
   195   99  100 1    
   196   99  220 1    
   197  100  101 1    
   198  100  102 1    
   199  100  221 1    
   200  101  222 1    
   201  101  223 1    
   202  101  224 1    
   203  102  103 2    
   204  102  104 am   BACKBONE|DICT|INTERRES
   205  104  105 1    
   206  104  225 1    
   207  105  106 1    
   208  105  107 1    
   209  105  226 1    
   210  106  227 1    
   211  106  228 1    
   212  106  229 1    
   213  107  108 2    
   214  107  109 am   BACKBONE|DICT|INTERRES
   215  109  110 1    
   216  109  230 1    
   217  110  111 1    
   218  110  112 1    
   219  110  231 1    
   220  111  232 1    
   221  111  233 1    
   222  111  234 1    
   223  112  113 2    
   224  112  114 am   BACKBONE|DICT|INTERRES
   225  114  115 1    
   226  114  235 1    
   227  115  116 1    
   228  115  117 1    
   229  115  236 1    
   230  116  237 1    
   231  116  238 1    
   232  116  239 1    
   233  117  118 2    
   234  117  119 am   BACKBONE|DICT|INTERRES
   235  119  120 1    
   236  119  240 1    
   237  120  121 1    
   238  120  124 1    
   239  120  241 1    
   240  121  122 am   BACKBONE|DICT|INTERRES
   241  121  123 2    
   242  122  242 1    
   243  122  243 1    
   244  124  125 1    
   245  124  244 1    
   246  124  245 1    
   247  125  126 1    
   248  126  246 1    
   249  126  247 1    
@<TRIPOS>SUBSTRUCTURE
     1 UNK         1 GROUP             0       ****    0 ROOT    
