@<TRIPOS>MOLECULE
3R540
247   249    1
SMALL
USER_CHARGES


@<TRIPOS>ATOM
      1 CA          3.7495  -11.6395  -48.6555 C.3       0 UNK        -0.1800 
      2 C           2.5597  -12.2574  -47.9375 C.2       0 UNK         0.5000 
      3 O           2.0598  -11.6791  -46.9732 O.2       0 UNK        -0.5000 
      4 N           2.0886  -13.4164  -48.4165 N.am      1 UNK        -0.5000 
      5 CA          0.9771  -14.2078  -47.8628 C.3       1 UNK         0.1400 
      6 C6          0.8187  -15.5613  -48.6030 C.3       23 UNK        -0.0398 
      7 S7          0.4936  -15.3649  -50.3938 S.3       23 UNK        -0.2404 
      8 C8          1.9792  -16.0908  -51.1495 C.3       23 UNK        -0.0205 
      9 C9          1.8169  -17.5836  -51.3885 C.ar      23 UNK        -0.0193 
     10 C10         1.0862  -18.0332  -52.4922 C.ar      23 UNK        -0.1150 
     11 C11         0.9681  -19.3995  -52.7580 C.ar      23 UNK        -0.0193 
     12 C12         1.5822  -20.3200  -51.9034 C.ar      23 UNK        -0.1150 
     13 C13         2.3058  -19.8861  -50.7888 C.ar      23 UNK        -0.0193 
     14 C14         2.4215  -18.5142  -50.5377 C.ar      23 UNK        -0.1150 
     15 C15         3.0050  -20.8986  -49.8897 C.3       23 UNK        -0.0205 
     16 S16         2.3792  -20.8748  -48.1803 S.3       23 UNK        -0.2404 
     17 C17         0.7188  -21.6181  -48.3469 C.3       23 UNK        -0.0398 
     18 CA          0.5075  -22.8144  -47.3883 C.3       11 UNK         0.1400 
     19 N           0.6030  -22.4143  -45.9794 N.am      11 UNK        -0.5000 
     20 C           0.6972  -23.2649  -44.9494 C.2       10 UNK         0.5000 
     21 O           0.7335  -24.4871  -45.0786 O.2       10 UNK        -0.5000 
     22 CA          0.7017  -22.6571  -43.5354 C.3       10 UNK         0.1400 
     23 CB          2.0817  -22.0825  -43.1830 C.3       10 UNK        -0.1800 
     24 N          -0.3298  -21.6330  -43.3639 N.am      10 UNK        -0.5000 
     25 C          -1.6466  -21.8801  -43.4134 C.2       9 UNK         0.5000 
     26 O          -2.1212  -23.0055  -43.5618 O.2       9 UNK        -0.5000 
     27 CA         -2.5963  -20.6723  -43.3186 C.3       9 UNK         0.1400 
     28 CB         -2.8192  -20.2688  -41.8538 C.3       9 UNK        -0.1800 
     29 N          -2.1285  -19.5157  -44.0810 N.am      9 UNK        -0.5000 
     30 C          -1.9663  -19.4904  -45.4119 C.2       8 UNK         0.5000 
     31 O          -2.2348  -20.4320  -46.1558 O.2       8 UNK        -0.5000 
     32 CA         -1.3431  -18.2143  -46.0045 C.3       8 UNK         0.1400 
     33 CB         -2.3951  -17.1012  -46.0967 C.3       8 UNK        -0.1800 
     34 N          -0.1811  -17.7497  -45.2405 N.am      8 UNK        -0.5000 
     35 C           0.9183  -18.4887  -45.0230 C.2       7 UNK         0.5000 
     36 O           1.0858  -19.6143  -45.4852 O.2       7 UNK        -0.5000 
     37 CA          1.9727  -17.9114  -44.0679 C.3       7 UNK         0.1400 
     38 CB          2.8870  -16.9082  -44.7885 C.3       7 UNK        -0.1800 
     39 N           1.3412  -17.2909  -42.9036 N.am      7 UNK        -0.5000 
     40 C           0.7601  -17.9848  -41.9127 C.2       6 UNK         0.5000 
     41 O           0.7548  -19.2143  -41.8561 O.2       6 UNK        -0.5000 
     42 CA          0.0303  -17.1768  -40.8220 C.3       6 UNK         0.1400 
     43 CB          1.0084  -16.7625  -39.7129 C.3       6 UNK        -0.1800 
     44 N          -0.6363  -15.9851  -41.3476 N.am      6 UNK        -0.5000 
     45 C          -1.6731  -16.0057  -42.1973 C.2       5 UNK         0.5000 
     46 O          -2.2284  -17.0400  -42.5652 O.2       5 UNK        -0.5000 
     47 CA         -2.1288  -14.6500  -42.7756 C.3       5 UNK         0.1400 
     48 CB         -3.2556  -14.0511  -41.9219 C.3       5 UNK        -0.1800 
     49 N          -1.0465  -13.6684  -42.9049 N.am      5 UNK        -0.5000 
     50 C           0.0667  -13.8453  -43.6274 C.2       4 UNK         0.5000 
     51 O           0.2975  -14.8657  -44.2787 O.2       4 UNK        -0.5000 
     52 CA          1.0918  -12.6993  -43.5912 C.3       4 UNK         0.1400 
     53 CB          2.5118  -13.1771  -43.9435 C.3       4 UNK        -0.1800 
     54 N           0.7077  -11.6347  -44.5106 N.am      4 UNK        -0.5000 
     55 C          -0.2125  -10.6925  -44.2676 C.2       3 UNK         0.5000 
     56 O          -0.8418  -10.6097  -43.2116 O.2       3 UNK        -0.5000 
     57 CA         -0.4791   -9.6838  -45.3963 C.3       3 UNK         0.1400 
     58 CB          0.6571   -8.6523  -45.4824 C.3       3 UNK        -0.1800 
     59 N          -0.6023  -10.3724  -46.6796 N.am      3 UNK        -0.5000 
     60 C          -1.7620  -10.6507  -47.2909 C.2       2 UNK         0.5000 
     61 O          -2.8610  -10.2753  -46.8806 O.2       2 UNK        -0.5000 
     62 CA         -1.6900  -11.5009  -48.5769 C.3       2 UNK         0.1400 
     63 CB         -1.6456  -10.5988  -49.8193 C.3       2 UNK        -0.1800 
     64 N          -0.5413  -12.4072  -48.6066 N.am      2 UNK        -0.5000 
     65 C          -0.3687  -13.4468  -47.7776 C.2       1 UNK         0.5000 
     66 O          -1.2105  -13.7930  -46.9513 O.2       1 UNK        -0.5000 
     67 C          -0.8121  -23.5678  -47.6827 C.2       11 UNK         0.5000 
     68 O          -0.8016  -24.5500  -48.4316 O.2       11 UNK        -0.5000 
     69 N          -1.9143  -23.1431  -47.0448 N.am      12 UNK        -0.5000 
     70 CA         -3.2061  -23.8290  -47.0671 C.3       12 UNK         0.1400 
     71 CB         -4.2821  -22.9688  -46.3892 C.3       12 UNK        -0.1800 
     72 C          -3.1394  -25.2251  -46.4239 C.2       12 UNK         0.5000 
     73 O          -3.6114  -26.1896  -47.0239 O.2       12 UNK        -0.5000 
     74 N          -2.5229  -25.3226  -45.2392 N.am      13 UNK        -0.5000 
     75 CA         -2.3083  -26.5842  -44.5283 C.3       13 UNK         0.1400 
     76 CB         -1.7608  -26.2939  -43.1227 C.3       13 UNK        -0.1800 
     77 C          -1.3805  -27.5537  -45.2856 C.2       13 UNK         0.5000 
     78 O          -1.6135  -28.7628  -45.2547 O.2       13 UNK        -0.5000 
     79 N          -0.3543  -27.0070  -45.9505 N.am      14 UNK        -0.5000 
     80 CA          0.6326  -27.7574  -46.7198 C.3       14 UNK         0.1400 
     81 CB          1.8326  -26.8539  -47.0452 C.3       14 UNK        -0.1800 
     82 C           0.0648  -28.3816  -48.0055 C.2       14 UNK         0.5000 
     83 O           0.3009  -29.5677  -48.2426 O.2       14 UNK        -0.5000 
     84 N          -0.6305  -27.5823  -48.8293 N.am      15 UNK        -0.5000 
     85 CA         -0.9814  -27.9783  -50.1985 C.3       15 UNK         0.1400 
     86 CB          0.2255  -27.7091  -51.1227 C.3       15 UNK        -0.1800 
     87 C          -2.2679  -27.3244  -50.7349 C.2       15 UNK         0.5000 
     88 O          -2.4473  -27.2840  -51.9530 O.2       15 UNK        -0.5000 
     89 N          -3.1354  -26.8071  -49.8496 N.am      16 UNK        -0.5000 
     90 CA         -4.3728  -26.0698  -50.1685 C.3       16 UNK         0.1400 
     91 CB         -5.3914  -26.9694  -50.8994 C.3       16 UNK        -0.1800 
     92 C          -4.1231  -24.7349  -50.9064 C.2       16 UNK         0.5000 
     93 O          -5.0415  -24.1733  -51.5058 O.2       16 UNK        -0.5000 
     94 N          -2.8862  -24.2319  -50.8283 N.am      17 UNK        -0.5000 
     95 CA         -2.4009  -23.0304  -51.4924 C.3       17 UNK         0.1400 
     96 CB         -0.9074  -23.2412  -51.7916 C.3       17 UNK        -0.1800 
     97 C          -2.6921  -21.7897  -50.6283 C.2       17 UNK         0.5000 
     98 O          -1.7738  -21.1217  -50.1550 O.2       17 UNK        -0.5000 
     99 N          -3.9829  -21.5259  -50.4006 N.am      18 UNK        -0.5000 
    100 CA        -4.4976  -20.4691  -49.5317 C.3       18 UNK         0.1400 
    101 CB        -5.9389  -20.8335  -49.1307 C.3       18 UNK        -0.1800 
    102 C         -4.3936  -19.0613  -50.1587 C.2       18 UNK         0.5000 
    103 O         -5.4194  -18.4226  -50.4006 O.2       18 UNK        -0.5000 
    104 N         -3.1565  -18.6061  -50.4013 N.am      19 UNK        -0.5000 
    105 CA        -2.7477  -17.2663  -50.8411 C.3       19 UNK         0.1400 
    106 CB        -2.8922  -16.2630  -49.6780 C.3       19 UNK        -0.1800 
    107 C         -3.4595  -16.7932  -52.1234 C.2       19 UNK         0.5000 
    108 O         -3.0098  -17.1104  -53.2235 O.2       19 UNK        -0.5000 
    109 N         -4.5788  -16.0716  -51.9721 N.am      20 UNK        -0.5000 
    110 CA        -5.4475  -15.6059  -53.0575 C.3       20 UNK         0.1400 
    111 CB        -6.5565  -14.7262  -52.4611 C.3       20 UNK        -0.1800 
    112 C         -6.0554  -16.7431  -53.9065 C.2       20 UNK         0.5000 
    113 O         -6.4361  -16.5033  -55.0527 O.2       20 UNK        -0.5000 
    114 N         -6.1097  -17.9600  -53.3464 N.am      21 UNK        -0.5000 
    115 CA        -6.5074  -19.1864  -54.0374 C.3       21 UNK         0.1400 
    116 CB        -6.7467  -20.2855  -52.9908 C.3       21 UNK        -0.1800 
    117 C         -5.4893  -19.6726  -55.0924 C.2       21 UNK         0.5000 
    118 O         -5.8609  -20.4900  -55.9358 O.2       21 UNK        -0.5000 
    119 N         -4.2396  -19.1938  -55.0286 N.am      22 UNK        -0.5000 
    120 CA        -3.1314  -19.6076  -55.9058 C.3       22 UNK         0.1400 
    121 C         -2.3169  -18.4297  -56.5092 C.2       22 UNK         0.5000 
    122 N         -2.2782  -17.2546  -55.8957 N.am      22 UNK        -0.7600 
    123 O         -1.7224  -18.5803  -57.5732 O.2       22 UNK        -0.5000 
    124 C124       -2.2156  -20.6532  -55.2186 C.3       23 UNK        -0.0398 
    125 S125       -1.5605  -20.1014  -53.6045 S.3       23 UNK        -0.2404 
    126 C126        0.2007  -19.8746  -53.9823 C.3       23 UNK        -0.0205 
    127 H127        4.5842  -11.5251  -47.9641 H         1 UNK         0.0600 
    128 H128        3.4849  -10.6539  -49.0381 H         1 UNK         0.0600 
    129 H129        4.0819  -12.2531  -49.4930 H         1 UNK         0.0600 
    130 H130        2.5261  -13.8145  -49.2346 H         1 UNK         0.3000 
    131 H131        1.2502  -14.4375  -46.8316 H         1 UNK         0.0600 
    132 H132        1.7162  -16.1635  -48.4578 H         1 UNK         0.0800 
    133 H133        0.0117  -16.1473  -48.1615 H         1 UNK         0.0800 
    134 H134        2.1572  -15.5960  -52.1055 H         1 UNK         0.0800 
    135 H135        2.8589  -15.8853  -50.5382 H         1 UNK         0.0800 
    136 H136        0.6150  -17.3173  -53.1515 H         1 UNK         0.1150 
    137 H137        1.5110  -21.3766  -52.1141 H         1 UNK         0.1150 
    138 H138        2.9934  -18.1747  -49.6856 H         1 UNK         0.1150 
    139 H139        2.9177  -21.9097  -50.2906 H         1 UNK         0.0800 
    140 H140        4.0713  -20.6697  -49.8723 H         1 UNK         0.0800 
    141 H141       -0.0243  -20.8410  -48.1594 H         1 UNK         0.0800 
    142 H142        0.5843  -21.9312  -49.3815 H         1 UNK         0.0800 
    143 H143        1.3148  -23.5254  -47.5745 H         1 UNK         0.0600 
    144 H144        0.6308  -21.4135  -45.7953 H         1 UNK         0.3000 
    145 H145        0.4872  -23.4628  -42.8302 H         1 UNK         0.0600 
    146 H146        2.1022  -21.7056  -42.1603 H         1 UNK         0.0600 
    147 H147        2.8534  -22.8490  -43.2630 H         1 UNK         0.0600 
    148 H148        2.3636  -21.2653  -43.8463 H         1 UNK         0.0600 
    149 H149       -0.0109  -20.6850  -43.2018 H         1 UNK         0.3000 
    150 H150       -3.5588  -20.9743  -43.7359 H         1 UNK         0.0600 
    151 H151       -3.1921  -21.1106  -41.2690 H         1 UNK         0.0600 
    152 H152       -3.5527  -19.4663  -41.7734 H         1 UNK         0.0600 
    153 H153       -1.8964  -19.9259  -41.3854 H         1 UNK         0.0600 
    154 H154       -1.9366  -18.6705  -43.5504 H         1 UNK         0.3000 
    155 H155       -1.0005  -18.4465  -47.0153 H         1 UNK         0.0600 
    156 H156       -2.8208  -16.8591  -45.1242 H         1 UNK         0.0600 
    157 H157       -3.2195  -17.3998  -46.7454 H         1 UNK         0.0600 
    158 H158       -1.9686  -16.1892  -46.5077 H         1 UNK         0.0600 
    159 H159       -0.2300  -16.8226  -44.8323 H         1 UNK         0.3000 
    160 H160        2.5977  -18.7357  -43.7176 H         1 UNK         0.0600 
    161 H161        2.3265  -16.0944  -45.2458 H         1 UNK         0.0600 
    162 H162        3.4439  -17.4018  -45.5859 H         1 UNK         0.0600 
    163 H163        3.6153  -16.4732  -44.1042 H         1 UNK         0.0600 
    164 H164        1.2238  -16.2873  -42.9383 H         1 UNK         0.3000 
    165 H165       -0.7311  -17.8244  -40.3822 H         1 UNK         0.0600 
    166 H166        0.4899  -16.2558  -38.8987 H         1 UNK         0.0600 
    167 H167        1.5063  -17.6345  -39.2867 H         1 UNK         0.0600 
    168 H168        1.7833  -16.0923  -40.0874 H         1 UNK         0.0600 
    169 H169       -0.2457  -15.0911  -41.0898 H         1 UNK         0.3000 
    170 H170       -2.5203  -14.8361  -43.7775 H         1 UNK         0.0600 
    171 H171       -4.0888  -14.7493  -41.8295 H         1 UNK         0.0600 
    172 H172       -2.9135  -13.8119  -40.9142 H         1 UNK         0.0600 
    173 H173       -3.6468  -13.1375  -42.3701 H         1 UNK         0.0600 
    174 H174       -1.1828  -12.7749  -42.4494 H         1 UNK         0.3000 
    175 H175        1.1213  -12.3021  -42.5744 H         1 UNK         0.0600 
    176 H176        2.5712  -13.5639  -44.9608 H         1 UNK         0.0600 
    177 H177        3.2323  -12.3638  -43.8563 H         1 UNK         0.0600 
    178 H178        2.8352  -13.9720  -43.2705 H         1 UNK         0.0600 
    179 H179        1.1817  -11.6370  -45.4115 H         1 UNK         0.3000 
    180 H180       -1.4007   -9.1487  -45.1581 H         1 UNK         0.0600 
    181 H181        1.6126   -9.1191  -45.7254 H         1 UNK         0.0600 
    182 H182        0.7792   -8.1262  -44.5348 H         1 UNK         0.0600 
    183 H183        0.4486   -7.9028  -46.2460 H         1 UNK         0.0600 
    184 H184        0.2530  -10.7603  -47.0616 H         1 UNK         0.3000 
    185 H185       -2.5982  -12.1055  -48.6246 H         1 UNK         0.0600 
    186 H186       -2.5041   -9.9263  -49.8443 H         1 UNK         0.0600 
    187 H187       -0.7454   -9.9831  -49.8375 H         1 UNK         0.0600 
    188 H188       -1.6691  -11.1883  -50.7360 H         1 UNK         0.0600 
    189 H189        0.1931  -12.1950  -49.2656 H         1 UNK         0.3000 
    190 H190       -1.8677  -22.2847  -46.5023 H         1 UNK         0.3000 
    191 H191       -3.4924  -23.9509  -48.1108 H         1 UNK         0.0600 
    192 H192       -4.0842  -22.8314  -45.3271 H         1 UNK         0.0600 
    193 H193       -5.2648  -23.4327  -46.4808 H         1 UNK         0.0600 
    194 H194       -4.3455  -21.9813  -46.8425 H         1 UNK         0.0600 
    195 H195       -2.1984  -24.4770  -44.7771 H         1 UNK         0.3000 
    196 H196       -3.2781  -27.0739  -44.4191 H         1 UNK         0.0600 
    197 H197       -1.6093  -27.2176  -42.5630 H         1 UNK         0.0600 
    198 H198       -2.4532  -25.6763  -42.5504 H         1 UNK         0.0600 
    199 H199       -0.8040  -25.7726  -43.1631 H         1 UNK         0.0600 
    200 H200       -0.1881  -26.0100  -45.8484 H         1 UNK         0.3000 
    201 H201        0.9946  -28.5726  -46.0897 H         1 UNK         0.0600 
    202 H202        2.3140  -26.4953  -46.1354 H         1 UNK         0.0600 
    203 H203        1.5359  -25.9845  -47.6322 H         1 UNK         0.0600 
    204 H204        2.5863  -27.3952  -47.6185 H         1 UNK         0.0600 
    205 H205       -0.7627  -26.6058  -48.5824 H         1 UNK         0.3000 
    206 H206       -1.1889  -29.0501  -50.2188 H         1 UNK         0.0600 
    207 H207        1.1165  -28.2351  -50.7798 H         1 UNK         0.0600 
    208 H208        0.0328  -28.0467  -52.1417 H         1 UNK         0.0600 
    209 H209        0.4615  -26.6450  -51.1661 H         1 UNK         0.0600 
    210 H210       -2.9390  -26.8925  -48.8578 H         1 UNK         0.3000 
    211 H211       -4.8275  -25.7951  -49.2178 H         1 UNK         0.0600 
    212 H212       -5.0719  -27.2108  -51.9133 H         1 UNK         0.0600 
    213 H213       -6.3615  -26.4770  -50.9757 H         1 UNK         0.0600 
    214 H214       -5.5465  -27.9055  -50.3631 H         1 UNK         0.0600 
    215 H215       -2.2098  -24.7173  -50.2535 H         1 UNK         0.3000 
    216 H216       -2.9185  -22.8990  -52.4450 H         1 UNK         0.0600 
    217 H217       -0.4825  -22.3748  -52.2908 H         1 UNK         0.0600 
    218 H218       -0.7584  -24.0961  -52.4514 H         1 UNK         0.0600 
    219 H219       -0.3300  -23.4196  -50.8857 H         1 UNK         0.0600 
    220 H220       -4.6682  -22.1390  -50.8256 H         1 UNK         0.3000 
    221 H221       -3.8958  -20.4519  -48.6205 H         1 UNK         0.0600 
    222 H222       -6.6042  -20.8607  -49.9940 H         1 UNK         0.0600 
    223 H223       -5.9829  -21.8103  -48.6497 H         1 UNK         0.0600 
    224 H224       -6.3438  -20.1064  -48.4258 H         1 UNK         0.0600 
    225 H225       -2.3991  -19.2701  -50.2617 H         1 UNK         0.3000 
    226 H226       -1.6882  -17.3384  -51.0909 H         1 UNK         0.0600 
    227 H227       -2.2157  -16.5256  -48.8680 H         1 UNK         0.0600 
    228 H228       -2.6339  -15.2505  -49.9918 H         1 UNK         0.0600 
    229 H229       -3.9026  -16.2383  -49.2690 H         1 UNK         0.0600 
    230 H230       -4.9110  -15.9103  -51.0324 H         1 UNK         0.3000 
    231 H231       -4.8412  -14.9911  -53.7256 H         1 UNK         0.0600 
    232 H232       -7.2090  -14.3350  -53.2430 H         1 UNK         0.0600 
    233 H233       -6.1394  -13.8705  -51.9298 H         1 UNK         0.0600 
    234 H234       -7.1797  -15.2859  -51.7624 H         1 UNK         0.0600 
    235 H235       -5.8069  -18.0582  -52.3824 H         1 UNK         0.3000 
    236 H236       -7.4500  -18.9941  -54.5537 H         1 UNK         0.0600 
    237 H237       -7.4784  -19.9716  -52.2462 H         1 UNK         0.0600 
    238 H238       -7.1272  -21.1950  -53.4574 H         1 UNK         0.0600 
    239 H239       -5.8255  -20.5470  -52.4702 H         1 UNK         0.0600 
    240 H240       -3.9984  -18.5212  -54.3100 H         1 UNK         0.3000 
    241 H241       -3.5572  -20.1016  -56.7811 H         1 UNK         0.0600 
    242 H242       -1.7566  -16.5012  -56.3128 H         1 UNK         0.3800 
    243 H243       -2.6432  -17.1465  -54.9510 H         1 UNK         0.3800 
    244 H244       -2.7864  -21.5656  -55.0423 H         1 UNK         0.0800 
    245 H245       -1.3968  -20.9461  -55.8779 H         1 UNK         0.0800 
    246 H246        0.6191  -20.8147  -54.3450 H         1 UNK         0.0800 
    247 H247        0.3070  -19.1523  -54.7932 H         1 UNK         0.0800 
@<TRIPOS>BOND
     1    1    2 1    
     2    1  127 1    
     3    1  128 1    
     4    1  129 1    
     5    2    3 2    
     6    2    4 am   BACKBONE|DICT|INTERRES
     7    4    5 1    
     8    4  130 1    
     9    5    6 1    
    10    5   65 1    
    11    5  131 1    
    12    6    7 1    
    13    6  132 1    
    14    6  133 1    
    15    7    8 1    
    16    8    9 1    
    17    8  134 1    
    18    8  135 1    
    19    9   10 ar   
    20    9   14 ar   
    21   10   11 ar   
    22   10  136 1    
    23   11   12 ar   
    24   11  126 1    
    25   12   13 ar   
    26   12  137 1    
    27   13   14 ar   
    28   13   15 1    
    29   14  138 1    
    30   15   16 1    
    31   15  139 1    
    32   15  140 1    
    33   16   17 1    
    34   17   18 1    
    35   17  141 1    
    36   17  142 1    
    37   18   19 1    
    38   18   67 1    
    39   18  143 1    
    40   19   20 am   BACKBONE|DICT|INTERRES
    41   19  144 1    
    42   20   21 2    
    43   20   22 1    
    44   22   23 1    
    45   22   24 1    
    46   22  145 1    
    47   23  146 1    
    48   23  147 1    
    49   23  148 1    
    50   24   25 am   BACKBONE|DICT|INTERRES
    51   24  149 1    
    52   25   26 2    
    53   25   27 1    
    54   27   28 1    
    55   27   29 1    
    56   27  150 1    
    57   28  151 1    
    58   28  152 1    
    59   28  153 1    
    60   29   30 am   BACKBONE|DICT|INTERRES
    61   29  154 1    
    62   30   31 2    
    63   30   32 1    
    64   32   33 1    
    65   32   34 1    
    66   32  155 1    
    67   33  156 1    
    68   33  157 1    
    69   33  158 1    
    70   34   35 am   BACKBONE|DICT|INTERRES
    71   34  159 1    
    72   35   36 2    
    73   35   37 1    
    74   37   38 1    
    75   37   39 1    
    76   37  160 1    
    77   38  161 1    
    78   38  162 1    
    79   38  163 1    
    80   39   40 am   BACKBONE|DICT|INTERRES
    81   39  164 1    
    82   40   41 2    
    83   40   42 1    
    84   42   43 1    
    85   42   44 1    
    86   42  165 1    
    87   43  166 1    
    88   43  167 1    
    89   43  168 1    
    90   44   45 am   BACKBONE|DICT|INTERRES
    91   44  169 1    
    92   45   46 2    
    93   45   47 1    
    94   47   48 1    
    95   47   49 1    
    96   47  170 1    
    97   48  171 1    
    98   48  172 1    
    99   48  173 1    
   100   49   50 am   BACKBONE|DICT|INTERRES
   101   49  174 1    
   102   50   51 2    
   103   50   52 1    
   104   52   53 1    
   105   52   54 1    
   106   52  175 1    
   107   53  176 1    
   108   53  177 1    
   109   53  178 1    
   110   54   55 am   BACKBONE|DICT|INTERRES
   111   54  179 1    
   112   55   56 2    
   113   55   57 1    
   114   57   58 1    
   115   57   59 1    
   116   57  180 1    
   117   58  181 1    
   118   58  182 1    
   119   58  183 1    
   120   59   60 am   BACKBONE|DICT|INTERRES
   121   59  184 1    
   122   60   61 2    
   123   60   62 1    
   124   62   63 1    
   125   62   64 1    
   126   62  185 1    
   127   63  186 1    
   128   63  187 1    
   129   63  188 1    
   130   64   65 am   BACKBONE|DICT|INTERRES
   131   64  189 1    
   132   65   66 2    
   133   67   68 2    
   134   67   69 am   BACKBONE|DICT|INTERRES
   135   69   70 1    
   136   69  190 1    
   137   70   71 1    
   138   70   72 1    
   139   70  191 1    
   140   71  192 1    
   141   71  193 1    
   142   71  194 1    
   143   72   73 2    
   144   72   74 am   BACKBONE|DICT|INTERRES
   145   74   75 1    
   146   74  195 1    
   147   75   76 1    
   148   75   77 1    
   149   75  196 1    
   150   76  197 1    
   151   76  198 1    
   152   76  199 1    
   153   77   78 2    
   154   77   79 am   BACKBONE|DICT|INTERRES
   155   79   80 1    
   156   79  200 1    
   157   80   81 1    
   158   80   82 1    
   159   80  201 1    
   160   81  202 1    
   161   81  203 1    
   162   81  204 1    
   163   82   83 2    
   164   82   84 am   BACKBONE|DICT|INTERRES
   165   84   85 1    
   166   84  205 1    
   167   85   86 1    
   168   85   87 1    
   169   85  206 1    
   170   86  207 1    
   171   86  208 1    
   172   86  209 1    
   173   87   88 2    
   174   87   89 am   BACKBONE|DICT|INTERRES
   175   89   90 1    
   176   89  210 1    
   177   90   91 1    
   178   90   92 1    
   179   90  211 1    
   180   91  212 1    
   181   91  213 1    
   182   91  214 1    
   183   92   93 2    
   184   92   94 am   BACKBONE|DICT|INTERRES
   185   94   95 1    
   186   94  215 1    
   187   95   96 1    
   188   95   97 1    
   189   95  216 1    
   190   96  217 1    
   191   96  218 1    
   192   96  219 1    
   193   97   98 2    
   194   97   99 am   BACKBONE|DICT|INTERRES
   195   99  100 1    
   196   99  220 1    
   197  100  101 1    
   198  100  102 1    
   199  100  221 1    
   200  101  222 1    
   201  101  223 1    
   202  101  224 1    
   203  102  103 2    
   204  102  104 am   BACKBONE|DICT|INTERRES
   205  104  105 1    
   206  104  225 1    
   207  105  106 1    
   208  105  107 1    
   209  105  226 1    
   210  106  227 1    
   211  106  228 1    
   212  106  229 1    
   213  107  108 2    
   214  107  109 am   BACKBONE|DICT|INTERRES
   215  109  110 1    
   216  109  230 1    
   217  110  111 1    
   218  110  112 1    
   219  110  231 1    
   220  111  232 1    
   221  111  233 1    
   222  111  234 1    
   223  112  113 2    
   224  112  114 am   BACKBONE|DICT|INTERRES
   225  114  115 1    
   226  114  235 1    
   227  115  116 1    
   228  115  117 1    
   229  115  236 1    
   230  116  237 1    
   231  116  238 1    
   232  116  239 1    
   233  117  118 2    
   234  117  119 am   BACKBONE|DICT|INTERRES
   235  119  120 1    
   236  119  240 1    
   237  120  121 1    
   238  120  124 1    
   239  120  241 1    
   240  121  122 am   BACKBONE|DICT|INTERRES
   241  121  123 2    
   242  122  242 1    
   243  122  243 1    
   244  124  125 1    
   245  124  244 1    
   246  124  245 1    
   247  125  126 1    
   248  126  246 1    
   249  126  247 1    
@<TRIPOS>SUBSTRUCTURE
     1 UNK         1 GROUP             0       ****    0 ROOT    
