@<TRIPOS>MOLECULE
3R540
247   249    1
SMALL
USER_CHARGES


@<TRIPOS>ATOM
      1 CA         -0.9254  -14.6104  -54.3245 C.3       0 UNK        -0.1800 
      2 C          -0.0564  -13.7793  -53.3916 C.2       0 UNK         0.5000 
      3 O          -0.0261  -12.5533  -53.5054 O.2       0 UNK        -0.5000 
      4 N           0.6403  -14.4359  -52.4569 N.am      1 UNK        -0.5000 
      5 CA          1.5327  -13.8287  -51.4608 C.3       1 UNK         0.1400 
      6 C6          2.6389  -14.8089  -50.9818 C.3       23 UNK        -0.0398 
      7 S7          3.5751  -15.5706  -52.3527 S.3       23 UNK        -0.2404 
      8 C8          4.1338  -17.1379  -51.5910 C.3       23 UNK        -0.0205 
      9 C9          3.0404  -18.1244  -51.1678 C.ar      23 UNK        -0.0193 
     10 C10         1.7110  -18.0229  -51.6012 C.ar      23 UNK        -0.1150 
     11 C11         0.7361  -18.9232  -51.1580 C.ar      23 UNK        -0.0193 
     12 C12         1.1189  -19.9806  -50.3292 C.ar      23 UNK        -0.1150 
     13 C13         2.4452  -20.1217  -49.9151 C.ar      23 UNK        -0.0193 
     14 C14         3.3946  -19.1820  -50.3237 C.ar      23 UNK        -0.1150 
     15 C15         2.8531  -21.3139  -49.0635 C.3       23 UNK        -0.0205 
     16 S16         2.5219  -21.0423  -47.2938 S.3       23 UNK        -0.2404 
     17 C17         2.6741  -22.7534  -46.6664 C.3       23 UNK        -0.0398 
     18 CA          1.3319  -23.4726  -46.3731 C.3       11 UNK         0.1400 
     19 N           0.6132  -22.9009  -45.2313 N.am      11 UNK        -0.5000 
     20 C          -0.4028  -23.5092  -44.6002 C.2       10 UNK         0.5000 
     21 O          -0.8556  -24.6009  -44.9525 O.2       10 UNK        -0.5000 
     22 CA         -1.0374  -22.7611  -43.4100 C.3       10 UNK         0.1400 
     23 CB         -1.6697  -23.7109  -42.3727 C.3       10 UNK        -0.1800 
     24 N          -0.1236  -21.8113  -42.7698 N.am      10 UNK        -0.5000 
     25 C           1.0229  -22.0661  -42.1224 C.2       9 UNK         0.5000 
     26 O           1.4708  -23.1960  -41.9258 O.2       9 UNK        -0.5000 
     27 CA          1.8215  -20.8414  -41.6330 C.3       9 UNK         0.1400 
     28 CB          2.9687  -20.5407  -42.6107 C.3       9 UNK        -0.1800 
     29 N           0.9974  -19.6389  -41.4844 N.am      9 UNK        -0.5000 
     30 C           0.0831  -19.4527  -40.5216 C.2       8 UNK         0.5000 
     31 O          -0.1037  -20.2407  -39.5939 O.2       8 UNK        -0.5000 
     32 CA         -0.7978  -18.1943  -40.6391 C.3       8 UNK         0.1400 
     33 CB         -0.0684  -16.9610  -40.0855 C.3       8 UNK        -0.1800 
     34 N          -1.2284  -17.9312  -42.0140 N.am      8 UNK        -0.5000 
     35 C          -2.0391  -18.7241  -42.7308 C.2       7 UNK         0.5000 
     36 O          -2.5476  -19.7571  -42.2970 O.2       7 UNK        -0.5000 
     37 CA         -2.2916  -18.3164  -44.1914 C.3       7 UNK         0.1400 
     38 CB         -3.3858  -17.2408  -44.2772 C.3       7 UNK        -0.1800 
     39 N          -1.0681  -17.8409  -44.8350 N.am      7 UNK        -0.5000 
     40 C          -0.0528  -18.6331  -45.2084 C.2       6 UNK         0.5000 
     41 O          -0.0580  -19.8596  -45.0875 O.2       6 UNK        -0.5000 
     42 CA          1.1993  -17.9306  -45.7676 C.3       6 UNK         0.1400 
     43 CB          1.0639  -17.6907  -47.2762 C.3       6 UNK        -0.1800 
     44 N           1.4763  -16.6521  -45.1144 N.am      6 UNK        -0.5000 
     45 C           1.8379  -16.5075  -43.8326 C.2       5 UNK         0.5000 
     46 O           2.0187  -17.4479  -43.0611 O.2       5 UNK        -0.5000 
     47 CA          1.9567  -15.0620  -43.3162 C.3       5 UNK         0.1400 
     48 CB          3.3457  -14.4852  -43.6266 C.3       5 UNK        -0.1800 
     49 N           0.9312  -14.1835  -43.8820 N.am      5 UNK        -0.5000 
     50 C          -0.3872  -14.3152  -43.6818 C.2       4 UNK         0.5000 
     51 O          -0.8691  -15.1840  -42.9551 O.2       4 UNK        -0.5000 
     52 CA         -1.3351  -13.3831  -44.4622 C.3       4 UNK         0.1400 
     53 CB         -2.2194  -12.5415  -43.5213 C.3       4 UNK        -0.1800 
     54 N          -0.6736  -12.5620  -45.4872 N.am      4 UNK        -0.5000 
     55 C           0.1157  -11.4872  -45.3215 C.2       3 UNK         0.5000 
     56 O           0.3925  -11.0049  -44.2238 O.2       3 UNK        -0.5000 
     57 CA          0.7491  -10.8714  -46.5852 C.3       3 UNK         0.1400 
     58 CB          2.2709  -11.0925  -46.5815 C.3       3 UNK        -0.1800 
     59 N           0.2084  -11.4484  -47.8138 N.am      3 UNK        -0.5000 
     60 C          -0.8425  -10.9986  -48.5029 C.2       2 UNK         0.5000 
     61 O          -1.4457   -9.9646  -48.2105 O.2       2 UNK        -0.5000 
     62 CA         -1.3039  -11.8594  -49.7044 C.3       2 UNK         0.1400 
     63 CB         -2.3338  -11.1353  -50.5898 C.3       2 UNK        -0.1800 
     64 N          -0.2366  -12.3759  -50.5708 N.am      2 UNK        -0.5000 
     65 C           0.7037  -13.2848  -50.2764 C.2       1 UNK         0.5000 
     66 O           0.8961  -13.7243  -49.1422 O.2       1 UNK        -0.5000 
     67 C           0.4259  -23.5806  -47.6157 C.2       11 UNK         0.5000 
     68 O           0.5360  -24.5468  -48.3682 O.2       11 UNK        -0.5000 
     69 N          -0.4869  -22.6115  -47.7750 N.am      12 UNK        -0.5000 
     70 CA         -1.4805  -22.5689  -48.8433 C.3       12 UNK         0.1400 
     71 CB         -2.2025  -21.2191  -48.7990 C.3       12 UNK        -0.1800 
     72 C          -2.5048  -23.7087  -48.7494 C.2       12 UNK         0.5000 
     73 O          -2.9168  -24.2324  -49.7831 O.2       12 UNK        -0.5000 
     74 N          -2.8789  -24.0818  -47.5182 N.am      13 UNK        -0.5000 
     75 CA         -3.7788  -25.1978  -47.2358 C.3       13 UNK         0.1400 
     76 CB         -4.2982  -25.0897  -45.7940 C.3       13 UNK        -0.1800 
     77 C          -3.0919  -26.5519  -47.4775 C.2       13 UNK         0.5000 
     78 O          -3.7125  -27.4520  -48.0429 O.2       13 UNK        -0.5000 
     79 N          -1.8153  -26.6563  -47.0801 N.am      14 UNK        -0.5000 
     80 CA         -0.9717  -27.8327  -47.2945 C.3       14 UNK         0.1400 
     81 CB          0.3280  -27.6809  -46.4892 C.3       14 UNK        -0.1800 
     82 C          -0.6697  -28.0848  -48.7844 C.2       14 UNK         0.5000 
     83 O          -0.7481  -29.2276  -49.2367 O.2       14 UNK        -0.5000 
     84 N          -0.3490  -27.0127  -49.5211 N.am      15 UNK        -0.5000 
     85 CA         -0.0634  -27.0428  -50.9569 C.3       15 UNK         0.1400 
     86 CB          0.7250  -25.7766  -51.3290 C.3       15 UNK        -0.1800 
     87 C          -1.3242  -27.1505  -51.8365 C.2       15 UNK         0.5000 
     88 O          -1.2022  -27.5135  -53.0070 O.2       15 UNK        -0.5000 
     89 N          -2.4926  -26.8024  -51.2747 N.am      16 UNK        -0.5000 
     90 CA         -3.7854  -26.6212  -51.9468 C.3       16 UNK         0.1400 
     91 CB         -4.3233  -27.9579  -52.4980 C.3       16 UNK        -0.1800 
     92 C          -3.7176  -25.4979  -53.0052 C.2       16 UNK         0.5000 
     93 O          -4.1735  -25.6673  -54.1375 O.2       16 UNK        -0.5000 
     94 N          -3.1075  -24.3735  -52.6085 N.am      17 UNK        -0.5000 
     95 CA         -2.8156  -23.2211  -53.4618 C.3       17 UNK         0.1400 
     96 CB         -1.6739  -22.4126  -52.8239 C.3       17 UNK        -0.1800 
     97 C          -4.0333  -22.3110  -53.7063 C.2       17 UNK         0.5000 
     98 O          -4.0180  -21.5441  -54.6699 O.2       17 UNK        -0.5000 
     99 N          -5.0461  -22.3984  -52.8294 N.am      18 UNK        -0.5000 
    100 CA        -6.2337  -21.5400  -52.7681 C.3       18 UNK         0.1400 
    101 CB        -7.1406  -21.7545  -54.0012 C.3       18 UNK        -0.1800 
    102 C         -5.8350  -20.0712  -52.5060 C.2       18 UNK         0.5000 
    103 O         -5.0959  -19.8281  -51.5508 O.2       18 UNK        -0.5000 
    104 N         -6.3280  -19.1295  -53.3267 N.am      19 UNK        -0.5000 
    105 CA        -5.9978  -17.6957  -53.3280 C.3       19 UNK         0.1400 
    106 CB        -4.5483  -17.4883  -53.8166 C.3       19 UNK        -0.1800 
    107 C         -6.2756  -16.9997  -51.9774 C.2       19 UNK         0.5000 
    108 O         -5.4511  -16.2187  -51.4992 O.2       19 UNK        -0.5000 
    109 N         -7.4182  -17.3429  -51.3597 N.am      20 UNK        -0.5000 
    110 CA        -7.8588  -16.9152  -50.0217 C.3       20 UNK         0.1400 
    111 CB        -8.2072  -15.4121  -50.0169 C.3       20 UNK        -0.1800 
    112 C         -6.8565  -17.3020  -48.9095 C.2       20 UNK         0.5000 
    113 O         -6.6687  -16.5541  -47.9479 O.2       20 UNK        -0.5000 
    114 N         -6.1892  -18.4493  -49.1070 N.am      21 UNK        -0.5000 
    115 CA        -5.0837  -19.0039  -48.3210 C.3       21 UNK         0.1400 
    116 CB        -5.5395  -19.3526  -46.8887 C.3       21 UNK        -0.1800 
    117 C         -3.8085  -18.1335  -48.3327 C.2       21 UNK         0.5000 
    118 O         -2.9212  -18.3676  -47.5135 O.2       21 UNK        -0.5000 
    119 N         -3.7305  -17.1471  -49.2388 N.am      22 UNK        -0.5000 
    120 CA        -2.6862  -16.1127  -49.2817 C.3       22 UNK         0.1400 
    121 C         -2.6234  -15.2469  -47.9815 C.2       22 UNK         0.5000 
    122 N         -3.7500  -15.0107  -47.3165 N.am      22 UNK        -0.7600 
    123 O         -1.5718  -14.7587  -47.5780 O.2       22 UNK        -0.5000 
    124 C124       -1.3186  -16.6721  -49.7644 C.3       23 UNK        -0.0398 
    125 S125       -1.3523  -17.0765  -51.5446 S.3       23 UNK        -0.2404 
    126 C126       -0.7214  -18.7883  -51.5953 C.3       23 UNK        -0.0205 
    127 H127       -0.6933  -15.6732  -54.2520 H         1 UNK         0.0600 
    128 H128       -1.9781  -14.4729  -54.0778 H         1 UNK         0.0600 
    129 H129       -0.7714  -14.3017  -55.3584 H         1 UNK         0.0600 
    130 H130        0.5270  -15.4362  -52.3813 H         1 UNK         0.3000 
    131 H131        2.0343  -12.9739  -51.9194 H         1 UNK         0.0600 
    132 H132        2.2047  -15.5990  -50.3676 H         1 UNK         0.0800 
    133 H133        3.3503  -14.2879  -50.3389 H         1 UNK         0.0800 
    134 H134        4.7489  -16.8910  -50.7242 H         1 UNK         0.0800 
    135 H135        4.7911  -17.6431  -52.2997 H         1 UNK         0.0800 
    136 H136        1.4209  -17.2365  -52.2793 H         1 UNK         0.1150 
    137 H137        0.3895  -20.7083  -50.0120 H         1 UNK         0.1150 
    138 H138        4.4200  -19.2854  -49.9970 H         1 UNK         0.1150 
    139 H139        2.3149  -22.1968  -49.4111 H         1 UNK         0.0800 
    140 H140        3.9135  -21.5321  -49.1989 H         1 UNK         0.0800 
    141 H141        3.2711  -22.7197  -45.7541 H         1 UNK         0.0800 
    142 H142        3.2628  -23.3443  -47.3702 H         1 UNK         0.0800 
    143 H143        1.5869  -24.4970  -46.0932 H         1 UNK         0.0600 
    144 H144        0.8692  -21.9637  -44.9469 H         1 UNK         0.3000 
    145 H145       -1.8414  -22.1580  -43.8338 H         1 UNK         0.0600 
    146 H146       -2.1105  -23.1524  -41.5468 H         1 UNK         0.0600 
    147 H147       -2.4655  -24.3067  -42.8209 H         1 UNK         0.0600 
    148 H148       -0.9380  -24.4046  -41.9580 H         1 UNK         0.0600 
    149 H149       -0.3716  -20.8390  -42.8949 H         1 UNK         0.3000 
    150 H150        2.2516  -21.0899  -40.6606 H         1 UNK         0.0600 
    151 H151        3.6207  -21.4069  -42.7303 H         1 UNK         0.0600 
    152 H152        3.5859  -19.7166  -42.2527 H         1 UNK         0.0600 
    153 H153        2.5938  -20.2725  -43.5996 H         1 UNK         0.0600 
    154 H154        1.1505  -18.8990  -42.1649 H         1 UNK         0.3000 
    155 H155       -1.6934  -18.3576  -40.0362 H         1 UNK         0.0600 
    156 H156        0.8383  -16.7420  -40.6492 H         1 UNK         0.0600 
    157 H157        0.2207  -17.1134  -39.0450 H         1 UNK         0.0600 
    158 H158       -0.7054  -16.0770  -40.1210 H         1 UNK         0.0600 
    159 H159       -0.9056  -17.0638  -42.4326 H         1 UNK         0.3000 
    160 H160       -2.6424  -19.1973  -44.7339 H         1 UNK         0.0600 
    161 H161       -3.5969  -16.9760  -45.3121 H         1 UNK         0.0600 
    162 H162       -3.1089  -16.3293  -43.7483 H         1 UNK         0.0600 
    163 H163       -4.3180  -17.6016  -43.8414 H         1 UNK         0.0600 
    164 H164       -0.9773  -16.8446  -44.9593 H         1 UNK         0.3000 
    165 H165        2.0503  -18.5926  -45.5969 H         1 UNK         0.0600 
    166 H166        2.0193  -17.4123  -47.7213 H         1 UNK         0.0600 
    167 H167        0.7154  -18.5873  -47.7898 H         1 UNK         0.0600 
    168 H168        0.3532  -16.8911  -47.4816 H         1 UNK         0.0600 
    169 H169        1.3405  -15.8217  -45.6717 H         1 UNK         0.3000 
    170 H170        1.8259  -15.0809  -42.2325 H         1 UNK         0.0600 
    171 H171        4.1313  -15.1110  -43.2011 H         1 UNK         0.0600 
    172 H172        3.4613  -13.4871  -43.2035 H         1 UNK         0.0600 
    173 H173        3.5248  -14.4172  -44.7005 H         1 UNK         0.0600 
    174 H174        1.2474  -13.4316  -44.4751 H         1 UNK         0.3000 
    175 H175       -2.0025  -14.0472  -45.0111 H         1 UNK         0.0600 
    176 H176       -2.8951  -11.8977  -44.0843 H         1 UNK         0.0600 
    177 H177       -2.8343  -13.1851  -42.8910 H         1 UNK         0.0600 
    178 H178       -1.6283  -11.9122  -42.8559 H         1 UNK         0.0600 
    179 H179       -0.7985  -12.9051  -46.4326 H         1 UNK         0.3000 
    180 H180        0.5557   -9.7970  -46.5643 H         1 UNK         0.0600 
    181 H181        2.5242  -12.1535  -46.5975 H         1 UNK         0.0600 
    182 H182        2.7305  -10.6569  -45.6933 H         1 UNK         0.0600 
    183 H183        2.7376  -10.6249  -47.4487 H         1 UNK         0.0600 
    184 H184        0.6235  -12.3230  -48.1346 H         1 UNK         0.3000 
    185 H185       -1.8097  -12.7235  -49.2745 H         1 UNK         0.0600 
    186 H186       -1.9040  -10.2503  -51.0606 H         1 UNK         0.0600 
    187 H187       -2.7040  -11.7892  -51.3799 H         1 UNK         0.0600 
    188 H188       -3.1997  -10.8142  -50.0093 H         1 UNK         0.0600 
    189 H189       -0.2927  -12.0956  -51.5445 H         1 UNK         0.3000 
    190 H190       -0.4934  -21.8500  -47.1102 H         1 UNK         0.3000 
    191 H191       -0.9553  -22.6626  -49.7952 H         1 UNK         0.0600 
    192 H192       -1.5022  -20.3847  -48.7982 H         1 UNK         0.0600 
    193 H193       -2.8139  -21.1270  -47.9006 H         1 UNK         0.0600 
    194 H194       -2.8590  -21.0985  -49.6618 H         1 UNK         0.0600 
    195 H195       -2.4597  -23.6228  -46.7237 H         1 UNK         0.3000 
    196 H196       -4.6352  -25.1296  -47.9104 H         1 UNK         0.0600 
    197 H197       -5.0065  -25.8899  -45.5758 H         1 UNK         0.0600 
    198 H198       -4.8160  -24.1444  -45.6309 H         1 UNK         0.0600 
    199 H199       -3.4913  -25.1606  -45.0644 H         1 UNK         0.0600 
    200 H200       -1.3959  -25.8787  -46.5831 H         1 UNK         0.3000 
    201 H201       -1.5077  -28.7034  -46.9110 H         1 UNK         0.0600 
    202 H202        0.1207  -27.5490  -45.4270 H         1 UNK         0.0600 
    203 H203        0.9130  -26.8241  -46.8238 H         1 UNK         0.0600 
    204 H204        0.9557  -28.5668  -46.5917 H         1 UNK         0.0600 
    205 H205       -0.2323  -26.1144  -49.0580 H         1 UNK         0.3000 
    206 H206        0.5640  -27.9106  -51.1704 H         1 UNK         0.0600 
    207 H207        1.6544  -25.7098  -50.7632 H         1 UNK         0.0600 
    208 H208        0.9879  -25.7729  -52.3876 H         1 UNK         0.0600 
    209 H209        0.1472  -24.8728  -51.1308 H         1 UNK         0.0600 
    210 H210       -2.4652  -26.4915  -50.3131 H         1 UNK         0.3000 
    211 H211       -4.4819  -26.2789  -51.1800 H         1 UNK         0.0600 
    212 H212       -3.7110  -28.3405  -53.3148 H         1 UNK         0.0600 
    213 H213       -5.3379  -27.8398  -52.8800 H         1 UNK         0.0600 
    214 H214       -4.3565  -28.7189  -51.7183 H         1 UNK         0.0600 
    215 H215       -2.8254  -24.3095  -51.6333 H         1 UNK         0.3000 
    216 H216       -2.4742  -23.5871  -54.4324 H         1 UNK         0.0600 
    217 H217       -1.3657  -21.5939  -53.4753 H         1 UNK         0.0600 
    218 H218       -0.7959  -23.0337  -52.6469 H         1 UNK         0.0600 
    219 H219       -1.9774  -21.9745  -51.8732 H         1 UNK         0.0600 
    220 H220       -4.9328  -23.0432  -52.0607 H         1 UNK         0.3000 
    221 H221       -6.7957  -21.8597  -51.8896 H         1 UNK         0.0600 
    222 H222       -6.6708  -21.4193  -54.9263 H         1 UNK         0.0600 
    223 H223       -7.3852  -22.8099  -54.1224 H         1 UNK         0.0600 
    224 H224       -8.0855  -21.2206  -53.8938 H         1 UNK         0.0600 
    225 H225       -6.9376  -19.4340  -54.0726 H         1 UNK         0.3000 
    226 H226       -6.6609  -17.2232  -54.0538 H         1 UNK         0.0600 
    227 H227       -4.3912  -17.9496  -54.7915 H         1 UNK         0.0600 
    228 H228       -4.3118  -16.4284  -53.9169 H         1 UNK         0.0600 
    229 H229       -3.8253  -17.9205  -53.1242 H         1 UNK         0.0600 
    230 H230       -8.0237  -18.0019  -51.8292 H         1 UNK         0.3000 
    231 H231       -8.7753  -17.4666  -49.8072 H         1 UNK         0.0600 
    232 H232       -8.9199  -15.1701  -50.8052 H         1 UNK         0.0600 
    233 H233       -7.3234  -14.7899  -50.1611 H         1 UNK         0.0600 
    234 H234       -8.6613  -15.1189  -49.0697 H         1 UNK         0.0600 
    235 H235       -6.3543  -18.9363  -49.9787 H         1 UNK         0.3000 
    236 H236       -4.8163  -19.9381  -48.8138 H         1 UNK         0.0600 
    237 H237       -4.7690  -19.9141  -46.3589 H         1 UNK         0.0600 
    238 H238       -5.7493  -18.4586  -46.3011 H         1 UNK         0.0600 
    239 H239       -6.4385  -19.9686  -46.8986 H         1 UNK         0.0600 
    240 H240       -4.4833  -17.0256  -49.9071 H         1 UNK         0.3000 
    241 H241       -3.0178  -15.3986  -50.0363 H         1 UNK         0.0600 
    242 H242       -3.7323  -14.4371  -46.4913 H         1 UNK         0.3800 
    243 H243       -4.6221  -15.4226  -47.6197 H         1 UNK         0.3800 
    244 H244       -0.5182  -15.9483  -49.6167 H         1 UNK         0.0800 
    245 H245       -1.0415  -17.5572  -49.1939 H         1 UNK         0.0800 
    246 H246       -0.8099  -19.1588  -52.6171 H         1 UNK         0.0800 
    247 H247       -1.3738  -19.4134  -50.9857 H         1 UNK         0.0800 
@<TRIPOS>BOND
     1    1    2 1    
     2    1  127 1    
     3    1  128 1    
     4    1  129 1    
     5    2    3 2    
     6    2    4 am   BACKBONE|DICT|INTERRES
     7    4    5 1    
     8    4  130 1    
     9    5    6 1    
    10    5   65 1    
    11    5  131 1    
    12    6    7 1    
    13    6  132 1    
    14    6  133 1    
    15    7    8 1    
    16    8    9 1    
    17    8  134 1    
    18    8  135 1    
    19    9   10 ar   
    20    9   14 ar   
    21   10   11 ar   
    22   10  136 1    
    23   11   12 ar   
    24   11  126 1    
    25   12   13 ar   
    26   12  137 1    
    27   13   14 ar   
    28   13   15 1    
    29   14  138 1    
    30   15   16 1    
    31   15  139 1    
    32   15  140 1    
    33   16   17 1    
    34   17   18 1    
    35   17  141 1    
    36   17  142 1    
    37   18   19 1    
    38   18   67 1    
    39   18  143 1    
    40   19   20 am   BACKBONE|DICT|INTERRES
    41   19  144 1    
    42   20   21 2    
    43   20   22 1    
    44   22   23 1    
    45   22   24 1    
    46   22  145 1    
    47   23  146 1    
    48   23  147 1    
    49   23  148 1    
    50   24   25 am   BACKBONE|DICT|INTERRES
    51   24  149 1    
    52   25   26 2    
    53   25   27 1    
    54   27   28 1    
    55   27   29 1    
    56   27  150 1    
    57   28  151 1    
    58   28  152 1    
    59   28  153 1    
    60   29   30 am   BACKBONE|DICT|INTERRES
    61   29  154 1    
    62   30   31 2    
    63   30   32 1    
    64   32   33 1    
    65   32   34 1    
    66   32  155 1    
    67   33  156 1    
    68   33  157 1    
    69   33  158 1    
    70   34   35 am   BACKBONE|DICT|INTERRES
    71   34  159 1    
    72   35   36 2    
    73   35   37 1    
    74   37   38 1    
    75   37   39 1    
    76   37  160 1    
    77   38  161 1    
    78   38  162 1    
    79   38  163 1    
    80   39   40 am   BACKBONE|DICT|INTERRES
    81   39  164 1    
    82   40   41 2    
    83   40   42 1    
    84   42   43 1    
    85   42   44 1    
    86   42  165 1    
    87   43  166 1    
    88   43  167 1    
    89   43  168 1    
    90   44   45 am   BACKBONE|DICT|INTERRES
    91   44  169 1    
    92   45   46 2    
    93   45   47 1    
    94   47   48 1    
    95   47   49 1    
    96   47  170 1    
    97   48  171 1    
    98   48  172 1    
    99   48  173 1    
   100   49   50 am   BACKBONE|DICT|INTERRES
   101   49  174 1    
   102   50   51 2    
   103   50   52 1    
   104   52   53 1    
   105   52   54 1    
   106   52  175 1    
   107   53  176 1    
   108   53  177 1    
   109   53  178 1    
   110   54   55 am   BACKBONE|DICT|INTERRES
   111   54  179 1    
   112   55   56 2    
   113   55   57 1    
   114   57   58 1    
   115   57   59 1    
   116   57  180 1    
   117   58  181 1    
   118   58  182 1    
   119   58  183 1    
   120   59   60 am   BACKBONE|DICT|INTERRES
   121   59  184 1    
   122   60   61 2    
   123   60   62 1    
   124   62   63 1    
   125   62   64 1    
   126   62  185 1    
   127   63  186 1    
   128   63  187 1    
   129   63  188 1    
   130   64   65 am   BACKBONE|DICT|INTERRES
   131   64  189 1    
   132   65   66 2    
   133   67   68 2    
   134   67   69 am   BACKBONE|DICT|INTERRES
   135   69   70 1    
   136   69  190 1    
   137   70   71 1    
   138   70   72 1    
   139   70  191 1    
   140   71  192 1    
   141   71  193 1    
   142   71  194 1    
   143   72   73 2    
   144   72   74 am   BACKBONE|DICT|INTERRES
   145   74   75 1    
   146   74  195 1    
   147   75   76 1    
   148   75   77 1    
   149   75  196 1    
   150   76  197 1    
   151   76  198 1    
   152   76  199 1    
   153   77   78 2    
   154   77   79 am   BACKBONE|DICT|INTERRES
   155   79   80 1    
   156   79  200 1    
   157   80   81 1    
   158   80   82 1    
   159   80  201 1    
   160   81  202 1    
   161   81  203 1    
   162   81  204 1    
   163   82   83 2    
   164   82   84 am   BACKBONE|DICT|INTERRES
   165   84   85 1    
   166   84  205 1    
   167   85   86 1    
   168   85   87 1    
   169   85  206 1    
   170   86  207 1    
   171   86  208 1    
   172   86  209 1    
   173   87   88 2    
   174   87   89 am   BACKBONE|DICT|INTERRES
   175   89   90 1    
   176   89  210 1    
   177   90   91 1    
   178   90   92 1    
   179   90  211 1    
   180   91  212 1    
   181   91  213 1    
   182   91  214 1    
   183   92   93 2    
   184   92   94 am   BACKBONE|DICT|INTERRES
   185   94   95 1    
   186   94  215 1    
   187   95   96 1    
   188   95   97 1    
   189   95  216 1    
   190   96  217 1    
   191   96  218 1    
   192   96  219 1    
   193   97   98 2    
   194   97   99 am   BACKBONE|DICT|INTERRES
   195   99  100 1    
   196   99  220 1    
   197  100  101 1    
   198  100  102 1    
   199  100  221 1    
   200  101  222 1    
   201  101  223 1    
   202  101  224 1    
   203  102  103 2    
   204  102  104 am   BACKBONE|DICT|INTERRES
   205  104  105 1    
   206  104  225 1    
   207  105  106 1    
   208  105  107 1    
   209  105  226 1    
   210  106  227 1    
   211  106  228 1    
   212  106  229 1    
   213  107  108 2    
   214  107  109 am   BACKBONE|DICT|INTERRES
   215  109  110 1    
   216  109  230 1    
   217  110  111 1    
   218  110  112 1    
   219  110  231 1    
   220  111  232 1    
   221  111  233 1    
   222  111  234 1    
   223  112  113 2    
   224  112  114 am   BACKBONE|DICT|INTERRES
   225  114  115 1    
   226  114  235 1    
   227  115  116 1    
   228  115  117 1    
   229  115  236 1    
   230  116  237 1    
   231  116  238 1    
   232  116  239 1    
   233  117  118 2    
   234  117  119 am   BACKBONE|DICT|INTERRES
   235  119  120 1    
   236  119  240 1    
   237  120  121 1    
   238  120  124 1    
   239  120  241 1    
   240  121  122 am   BACKBONE|DICT|INTERRES
   241  121  123 2    
   242  122  242 1    
   243  122  243 1    
   244  124  125 1    
   245  124  244 1    
   246  124  245 1    
   247  125  126 1    
   248  126  246 1    
   249  126  247 1    
@<TRIPOS>SUBSTRUCTURE
     1 UNK         1 GROUP             0       ****    0 ROOT    
