@<TRIPOS>MOLECULE
3R540
247   249    1
SMALL
USER_CHARGES


@<TRIPOS>ATOM
      1 CA          5.6775   -9.5527  -47.2660 C.3       0 UNK        -0.1800 
      2 C           4.8892  -10.8543  -47.2483 C.2       0 UNK         0.5000 
      3 O           5.2278  -11.7667  -46.4948 O.2       0 UNK        -0.5000 
      4 N           3.8322  -10.9353  -48.0676 N.am      1 UNK        -0.5000 
      5 CA          2.9610  -12.1076  -48.2414 C.3       1 UNK         0.1400 
      6 C6          1.9170  -11.8773  -49.3606 C.3       23 UNK        -0.0398 
      7 S7          2.6599  -11.6308  -51.0130 S.3       23 UNK        -0.2404 
      8 C8          3.2081  -13.3104  -51.4777 C.3       23 UNK        -0.0205 
      9 C9          2.1384  -14.3642  -51.2340 C.ar      23 UNK        -0.0193 
     10 C10         1.0329  -14.4634  -52.0834 C.ar      23 UNK        -0.1150 
     11 C11         0.0215  -15.3911  -51.8185 C.ar      23 UNK        -0.0193 
     12 C12         0.1184  -16.2160  -50.6944 C.ar      23 UNK        -0.1150 
     13 C13         1.2307  -16.1425  -49.8513 C.ar      23 UNK        -0.0193 
     14 C14         2.2399  -15.2185  -50.1321 C.ar      23 UNK        -0.1150 
     15 C15         1.3414  -17.0368  -48.6247 C.3       23 UNK        -0.0205 
     16 S16         1.3967  -18.8048  -49.0612 S.3       23 UNK        -0.2404 
     17 C17        -0.3613  -19.2850  -48.9199 C.3       23 UNK        -0.0398 
     18 CA         -0.5298  -20.6585  -48.2301 C.3       11 UNK         0.1400 
     19 N           0.0483  -20.6887  -46.8822 N.am      11 UNK        -0.5000 
     20 C           0.5676  -21.7852  -46.3147 C.2       10 UNK         0.5000 
     21 O           0.6459  -22.8751  -46.8815 O.2       10 UNK        -0.5000 
     22 CA          1.0706  -21.6579  -44.8633 C.3       10 UNK         0.1400 
     23 CB          2.5591  -21.2798  -44.8414 C.3       10 UNK        -0.1800 
     24 N           0.3111  -20.6992  -44.0579 N.am      10 UNK        -0.5000 
     25 C          -0.9911  -20.8198  -43.7632 C.2       9 UNK         0.5000 
     26 O          -1.6861  -21.7660  -44.1275 O.2       9 UNK        -0.5000 
     27 CA         -1.6452  -19.6747  -42.9712 C.3       9 UNK         0.1400 
     28 CB         -1.4718  -19.8992  -41.4628 C.3       9 UNK        -0.1800 
     29 N          -1.1447  -18.3491  -43.3373 N.am      9 UNK        -0.5000 
     30 C          -1.2234  -17.8053  -44.5614 C.2       8 UNK         0.5000 
     31 O          -1.7151  -18.3766  -45.5368 O.2       8 UNK        -0.5000 
     32 CA         -0.5994  -16.4078  -44.7296 C.3       8 UNK         0.1400 
     33 CB         -1.5090  -15.3169  -44.1448 C.3       8 UNK        -0.1800 
     34 N           0.7227  -16.3240  -44.1116 N.am      8 UNK        -0.5000 
     35 C           1.7984  -16.9969  -44.5437 C.2       7 UNK         0.5000 
     36 O           1.8022  -17.7264  -45.5337 O.2       7 UNK        -0.5000 
     37 CA          3.0665  -16.8811  -43.6835 C.3       7 UNK         0.1400 
     38 CB          3.8115  -15.5679  -43.9751 C.3       7 UNK        -0.1800 
     39 N           2.7598  -16.9816  -42.2551 N.am      7 UNK        -0.5000 
     40 C           2.3362  -18.1070  -41.6579 C.2       6 UNK         0.5000 
     41 O           2.1814  -19.1754  -42.2484 O.2       6 UNK        -0.5000 
     42 CA          1.9993  -18.0262  -40.1567 C.3       6 UNK         0.1400 
     43 CB          3.2503  -18.3086  -39.3116 C.3       6 UNK        -0.1800 
     44 N           1.4322  -16.7397  -39.7558 N.am      6 UNK        -0.5000 
     45 C           0.2784  -16.2258  -40.2058 C.2       5 UNK         0.5000 
     46 O          -0.4677  -16.8021  -40.9963 O.2       5 UNK        -0.5000 
     47 CA         -0.0631  -14.7979  -39.7380 C.3       5 UNK         0.1400 
     48 CB         -0.9017  -14.8373  -38.4523 C.3       5 UNK        -0.1800 
     49 N           1.1260  -13.9654  -39.5203 N.am      5 UNK        -0.5000 
     50 C           2.0044  -13.6481  -40.4794 C.2       4 UNK         0.5000 
     51 O           1.8955  -14.0180  -41.6537 O.2       4 UNK        -0.5000 
     52 CA          3.2313  -12.8316  -40.0528 C.3       4 UNK         0.1400 
     53 CB          4.3227  -13.7449  -39.4713 C.3       4 UNK        -0.1800 
     54 N           3.7350  -12.1776  -41.2486 N.am      4 UNK        -0.5000 
     55 C           4.1800  -10.9225  -41.3445 C.2       3 UNK         0.5000 
     56 O           4.4244  -10.2004  -40.3771 O.2       3 UNK        -0.5000 
     57 CA          4.3398  -10.3731  -42.7776 C.3       3 UNK         0.1400 
     58 CB          5.7915  -10.5355  -43.2528 C.3       3 UNK        -0.1800 
     59 N           3.4393  -11.0147  -43.7461 N.am      3 UNK        -0.5000 
     60 C           2.0979  -10.9534  -43.7057 C.2       2 UNK         0.5000 
     61 O           1.4724  -10.2710  -42.8928 O.2       2 UNK        -0.5000 
     62 CA          1.3477  -11.7895  -44.7551 C.3       2 UNK         0.1400 
     63 CB         -0.1555  -11.4666  -44.8380 C.3       2 UNK        -0.1800 
     64 N           1.9647  -11.5852  -46.0609 N.am      2 UNK        -0.5000 
     65 C           2.2441  -12.5479  -46.9459 C.2       1 UNK         0.5000 
     66 O           1.9708  -13.7364  -46.7767 O.2       1 UNK        -0.5000 
     67 C          -2.0116  -21.0865  -48.2117 C.2       11 UNK         0.5000 
     68 O          -2.4804  -21.6773  -49.1847 O.2       11 UNK        -0.5000 
     69 N          -2.7230  -20.7910  -47.1131 N.am      12 UNK        -0.5000 
     70 CA         -4.1169  -21.1858  -46.8923 C.3       12 UNK         0.1400 
     71 CB         -4.6982  -20.3528  -45.7409 C.3       12 UNK        -0.1800 
     72 C          -4.2853  -22.6917  -46.6045 C.2       12 UNK         0.5000 
     73 O          -5.3555  -23.2424  -46.8718 O.2       12 UNK        -0.5000 
     74 N          -3.2346  -23.3252  -46.0659 N.am      13 UNK        -0.5000 
     75 CA         -3.1501  -24.7503  -45.7474 C.3       13 UNK         0.1400 
     76 CB         -1.7714  -25.0413  -45.1340 C.3       13 UNK        -0.1800 
     77 C          -3.3975  -25.6718  -46.9573 C.2       13 UNK         0.5000 
     78 O          -3.1899  -25.2699  -48.1058 O.2       13 UNK        -0.5000 
     79 N          -3.8375  -26.9028  -46.6584 N.am      14 UNK        -0.5000 
     80 CA         -4.1914  -27.9634  -47.6094 C.3       14 UNK         0.1400 
     81 CB         -2.9347  -28.4831  -48.3403 C.3       14 UNK        -0.1800 
     82 C          -5.3162  -27.5379  -48.5759 C.2       14 UNK         0.5000 
     83 O          -5.2531  -27.8486  -49.7650 O.2       14 UNK        -0.5000 
     84 N          -6.3080  -26.8069  -48.0425 N.am      15 UNK        -0.5000 
     85 CA         -7.4449  -26.2101  -48.7515 C.3       15 UNK         0.1400 
     86 CB         -8.4037  -27.3059  -49.2641 C.3       15 UNK        -0.1800 
     87 C          -6.9837  -25.2462  -49.8627 C.2       15 UNK         0.5000 
     88 O          -7.2965  -25.4575  -51.0350 O.2       15 UNK        -0.5000 
     89 N          -6.2091  -24.2256  -49.4674 N.am      16 UNK        -0.5000 
     90 CA         -5.5980  -23.2049  -50.3245 C.3       16 UNK         0.1400 
     91 CB         -6.6792  -22.2878  -50.9304 C.3       16 UNK        -0.1800 
     92 C          -4.6533  -23.8152  -51.3794 C.2       16 UNK         0.5000 
     93 O          -4.7683  -23.5067  -52.5699 O.2       16 UNK        -0.5000 
     94 N          -3.7592  -24.6957  -50.9036 N.am      17 UNK        -0.5000 
     95 CA         -2.7661  -25.4572  -51.6626 C.3       17 UNK         0.1400 
     96 CB         -1.6652  -24.5182  -52.1971 C.3       17 UNK        -0.1800 
     97 C          -3.4085  -26.3356  -52.7555 C.2       17 UNK         0.5000 
     98 O          -3.0650  -26.2126  -53.9313 O.2       17 UNK        -0.5000 
     99 N          -4.3516  -27.1925  -52.3382 N.am      18 UNK        -0.5000 
    100 CA        -5.1543  -28.1023  -53.1613 C.3       18 UNK         0.1400 
    101 CB        -4.2705  -29.1940  -53.8007 C.3       18 UNK        -0.1800 
    102 C         -6.0344  -27.3496  -54.1792 C.2       18 UNK         0.5000 
    103 O         -6.0820  -27.7170  -55.3549 O.2       18 UNK        -0.5000 
    104 N         -6.7080  -26.2969  -53.6934 N.am      19 UNK        -0.5000 
    105 CA        -7.6005  -25.3911  -54.4205 C.3       19 UNK         0.1400 
    106 CB        -8.8642  -26.1354  -54.9002 C.3       19 UNK        -0.1800 
    107 C         -6.9055  -24.5937  -55.5445 C.2       19 UNK         0.5000 
    108 O         -7.5637  -24.1967  -56.5081 O.2       19 UNK        -0.5000 
    109 N         -5.5953  -24.3477  -55.3992 N.am      20 UNK        -0.5000 
    110 CA        -4.8169  -23.4942  -56.2972 C.3       20 UNK         0.1400 
    111 CB        -3.3177  -23.7362  -56.0765 C.3       20 UNK        -0.1800 
    112 C         -5.1547  -22.0065  -56.1062 C.2       20 UNK         0.5000 
    113 O         -5.1465  -21.2562  -57.0834 O.2       20 UNK        -0.5000 
    114 N         -5.4471  -21.6134  -54.8546 N.am      21 UNK        -0.5000 
    115 CA        -5.9258  -20.2889  -54.4343 C.3       21 UNK         0.1400 
    116 CB        -7.3864  -20.0904  -54.8877 C.3       21 UNK        -0.1800 
    117 C         -5.0033  -19.1241  -54.8563 C.2       21 UNK         0.5000 
    118 O         -5.4816  -18.0295  -55.1589 O.2       21 UNK        -0.5000 
    119 N         -3.6916  -19.3941  -54.8752 N.am      22 UNK        -0.5000 
    120 CA        -2.6242  -18.4957  -55.3447 C.3       22 UNK         0.1400 
    121 C         -2.5827  -18.2771  -56.8907 C.2       22 UNK         0.5000 
    122 N         -3.3161  -19.0375  -57.6961 N.am      22 UNK        -0.7600 
    123 O         -1.8500  -17.4216  -57.3798 O.2       22 UNK        -0.5000 
    124 C124       -2.5604  -17.1645  -54.5358 C.3       23 UNK        -0.0398 
    125 S125       -0.8585  -16.7215  -54.0576 S.3       23 UNK        -0.2404 
    126 C126       -1.1793  -15.5097  -52.7401 C.3       23 UNK        -0.0205 
    127 H127        5.4163   -8.9350  -48.1256 H         1 UNK         0.0600 
    128 H128        6.7465   -9.7603  -47.3117 H         1 UNK         0.0600 
    129 H129        5.4775   -8.9795  -46.3610 H         1 UNK         0.0600 
    130 H130        3.6199  -10.1514  -48.6688 H         1 UNK         0.3000 
    131 H131        3.6037  -12.9396  -48.5338 H         1 UNK         0.0600 
    132 H132        1.1991  -12.6971  -49.4113 H         1 UNK         0.0800 
    133 H133        1.3191  -10.9929  -49.1337 H         1 UNK         0.0800 
    134 H134        3.4863  -13.3127  -52.5325 H         1 UNK         0.0800 
    135 H135        4.1174  -13.5526  -50.9255 H         1 UNK         0.0800 
    136 H136        0.9544  -13.8101  -52.9412 H         1 UNK         0.1150 
    137 H137       -0.6686  -16.9251  -50.4845 H         1 UNK         0.1150 
    138 H138        3.0946  -15.1461  -49.4746 H         1 UNK         0.1150 
    139 H139        2.2509  -16.8015  -48.0697 H         1 UNK         0.0800 
    140 H140        0.5190  -16.8277  -47.9410 H         1 UNK         0.0800 
    141 H141       -0.7801  -19.3128  -49.9275 H         1 UNK         0.0800 
    142 H142       -0.9179  -18.5206  -48.3753 H         1 UNK         0.0800 
    143 H143       -0.0043  -21.3893  -48.8493 H         1 UNK         0.0600 
    144 H144        0.0290  -19.8244  -46.3569 H         1 UNK         0.3000 
    145 H145        0.9633  -22.6386  -44.3952 H         1 UNK         0.0600 
    146 H146        2.9553  -21.2962  -43.8261 H         1 UNK         0.0600 
    147 H147        3.1504  -21.9815  -45.4310 H         1 UNK         0.0600 
    148 H148        2.7266  -20.2834  -45.2513 H         1 UNK         0.0600 
    149 H149        0.8296  -19.9154  -43.6767 H         1 UNK         0.3000 
    150 H150       -2.7138  -19.6881  -43.1909 H         1 UNK         0.0600 
    151 H151       -1.8835  -20.8634  -41.1619 H         1 UNK         0.0600 
    152 H152       -1.9878  -19.1316  -40.8859 H         1 UNK         0.0600 
    153 H153       -0.4209  -19.8880  -41.1758 H         1 UNK         0.0600 
    154 H154       -0.7534  -17.7930  -42.5811 H         1 UNK         0.3000 
    155 H155       -0.4869  -16.2163  -45.7985 H         1 UNK         0.0600 
    156 H156       -2.4955  -15.3426  -44.6092 H         1 UNK         0.0600 
    157 H157       -1.0930  -14.3249  -44.3192 H         1 UNK         0.0600 
    158 H158       -1.6484  -15.4364  -43.0700 H         1 UNK         0.0600 
    159 H159        0.8057  -15.7673  -43.2723 H         1 UNK         0.3000 
    160 H160        3.7278  -17.7098  -43.9463 H         1 UNK         0.0600 
    161 H161        3.1834  -14.6943  -43.8033 H         1 UNK         0.0600 
    162 H162        4.1317  -15.5303  -45.0172 H         1 UNK         0.0600 
    163 H163        4.7032  -15.4701  -43.3559 H         1 UNK         0.0600 
    164 H164        2.7949  -16.1243  -41.7213 H         1 UNK         0.3000 
    165 H165        1.2601  -18.7985  -39.9381 H         1 UNK         0.0600 
    166 H166        3.0102  -18.3390  -38.2486 H         1 UNK         0.0600 
    167 H167        3.6875  -19.2735  -39.5721 H         1 UNK         0.0600 
    168 H168        4.0183  -17.5486  -39.4617 H         1 UNK         0.0600 
    169 H169        1.9758  -16.1887  -39.1086 H         1 UNK         0.3000 
    170 H170       -0.6607  -14.3305  -40.5236 H         1 UNK         0.0600 
    171 H171       -1.8034  -15.4351  -38.5931 H         1 UNK         0.0600 
    172 H172       -0.3457  -15.2724  -37.6209 H         1 UNK         0.0600 
    173 H173       -1.2198  -13.8370  -38.1578 H         1 UNK         0.0600 
    174 H174        1.2791  -13.6325  -38.5790 H         1 UNK         0.3000 
    175 H175        2.9243  -12.0905  -39.3118 H         1 UNK         0.0600 
    176 H176        4.6258  -14.5146  -40.1827 H         1 UNK         0.0600 
    177 H177        5.2103  -13.1721  -39.2019 H         1 UNK         0.0600 
    178 H178        3.9749  -14.2480  -38.5684 H         1 UNK         0.0600 
    179 H179        3.5053  -12.6702  -42.1019 H         1 UNK         0.3000 
    180 H180        4.1027   -9.3076  -42.7503 H         1 UNK         0.0600 
    181 H181        6.0682  -11.5862  -43.3488 H         1 UNK         0.0600 
    182 H182        6.4877  -10.0743  -42.5510 H         1 UNK         0.0600 
    183 H183        5.9466  -10.0590  -44.2199 H         1 UNK         0.0600 
    184 H184        3.8785  -11.5708  -44.4686 H         1 UNK         0.3000 
    185 H185        1.4544  -12.8317  -44.4456 H         1 UNK         0.0600 
    186 H186       -0.6486  -11.6492  -43.8824 H         1 UNK         0.0600 
    187 H187       -0.3282  -10.4240  -45.1071 H         1 UNK         0.0600 
    188 H188       -0.6507  -12.0908  -45.5820 H         1 UNK         0.0600 
    189 H189        2.2512  -10.6394  -46.2730 H         1 UNK         0.3000 
    190 H190       -2.2813  -20.2511  -46.3779 H         1 UNK         0.3000 
    191 H191       -4.6842  -20.9550  -47.7961 H         1 UNK         0.0600 
    192 H192       -4.5946  -19.2843  -45.9317 H         1 UNK         0.0600 
    193 H193       -5.7610  -20.5595  -45.6090 H         1 UNK         0.0600 
    194 H194       -4.2026  -20.5757  -44.7964 H         1 UNK         0.0600 
    195 H195       -2.4313  -22.7651  -45.8078 H         1 UNK         0.3000 
    196 H196       -3.9165  -24.9578  -44.9983 H         1 UNK         0.0600 
    197 H197       -1.6745  -26.0921  -44.8582 H         1 UNK         0.0600 
    198 H198       -1.6075  -24.4563  -44.2292 H         1 UNK         0.0600 
    199 H199       -0.9670  -24.8116  -45.8334 H         1 UNK         0.0600 
    200 H200       -3.9696  -27.1383  -45.6843 H         1 UNK         0.3000 
    201 H201       -4.5942  -28.7884  -47.0203 H         1 UNK         0.0600 
    202 H202       -2.1660  -28.7903  -47.6313 H         1 UNK         0.0600 
    203 H203       -2.5023  -27.7267  -48.9953 H         1 UNK         0.0600 
    204 H204       -3.1714  -29.3512  -48.9567 H         1 UNK         0.0600 
    205 H205       -6.2449  -26.5848  -47.0592 H         1 UNK         0.3000 
    206 H206       -7.9903  -25.6081  -48.0232 H         1 UNK         0.0600 
    207 H207       -8.7384  -27.9486  -48.4499 H         1 UNK         0.0600 
    208 H208       -9.2927  -26.8638  -49.7155 H         1 UNK         0.0600 
    209 H209       -7.9363  -27.9385  -50.0194 H         1 UNK         0.0600 
    210 H210       -5.9808  -24.1392  -48.4805 H         1 UNK         0.3000 
    211 H211       -4.9751  -22.5914  -49.6744 H         1 UNK         0.0600 
    212 H212       -7.2814  -22.8029  -51.6797 H         1 UNK         0.0600 
    213 H213       -6.2211  -21.4243  -51.4094 H         1 UNK         0.0600 
    214 H214       -7.3518  -21.9088  -50.1610 H         1 UNK         0.0600 
    215 H215       -3.7433  -24.8638  -49.9000 H         1 UNK         0.3000 
    216 H216       -2.2968  -26.1414  -50.9546 H         1 UNK         0.0600 
    217 H217       -0.8844  -25.0816  -52.7092 H         1 UNK         0.0600 
    218 H218       -1.1905  -23.9702  -51.3830 H         1 UNK         0.0600 
    219 H219       -2.0598  -23.7876  -52.9026 H         1 UNK         0.0600 
    220 H220       -4.5821  -27.2226  -51.3464 H         1 UNK         0.3000 
    221 H221       -5.8429  -28.6000  -52.4768 H         1 UNK         0.0600 
    222 H222       -3.5823  -28.7811  -54.5387 H         1 UNK         0.0600 
    223 H223       -3.6811  -29.7146  -53.0460 H         1 UNK         0.0600 
    224 H224       -4.8815  -29.9418  -54.3074 H         1 UNK         0.0600 
    225 H225       -6.6254  -26.0853  -52.7014 H         1 UNK         0.3000 
    226 H226       -7.9202  -24.6467  -53.6899 H         1 UNK         0.0600 
    227 H227       -9.3398  -26.6720  -54.0792 H         1 UNK         0.0600 
    228 H228       -9.6019  -25.4385  -55.2995 H         1 UNK         0.0600 
    229 H229       -8.6366  -26.8558  -55.6862 H         1 UNK         0.0600 
    230 H230       -5.1255  -24.6837  -54.5675 H         1 UNK         0.3000 
    231 H231       -5.0562  -23.7634  -57.3282 H         1 UNK         0.0600 
    232 H232       -3.0229  -23.5148  -55.0508 H         1 UNK         0.0600 
    233 H233       -2.7176  -23.1076  -56.7357 H         1 UNK         0.0600 
    234 H234       -3.0523  -24.7725  -56.2857 H         1 UNK         0.0600 
    235 H235       -5.3574  -22.3047  -54.1150 H         1 UNK         0.3000 
    236 H236       -5.9164  -20.2883  -53.3454 H         1 UNK         0.0600 
    237 H237       -8.0183  -20.9111  -54.5479 H         1 UNK         0.0600 
    238 H238       -7.8049  -19.1702  -54.4784 H         1 UNK         0.0600 
    239 H239       -7.4664  -20.0337  -55.9739 H         1 UNK         0.0600 
    240 H240       -3.3992  -20.3269  -54.6224 H         1 UNK         0.3000 
    241 H241       -1.7149  -19.0606  -55.1363 H         1 UNK         0.0600 
    242 H242       -3.2663  -18.8862  -58.6910 H         1 UNK         0.3800 
    243 H243       -3.9383  -19.7544  -57.3346 H         1 UNK         0.3800 
    244 H244       -3.0172  -16.3359  -55.0800 H         1 UNK         0.0800 
    245 H245       -3.1359  -17.2606  -53.6145 H         1 UNK         0.0800 
    246 H246       -1.4168  -14.5426  -53.1859 H         1 UNK         0.0800 
    247 H247       -2.0542  -15.8044  -52.1588 H         1 UNK         0.0800 
@<TRIPOS>BOND
     1    1    2 1    
     2    1  127 1    
     3    1  128 1    
     4    1  129 1    
     5    2    3 2    
     6    2    4 am   BACKBONE|DICT|INTERRES
     7    4    5 1    
     8    4  130 1    
     9    5    6 1    
    10    5   65 1    
    11    5  131 1    
    12    6    7 1    
    13    6  132 1    
    14    6  133 1    
    15    7    8 1    
    16    8    9 1    
    17    8  134 1    
    18    8  135 1    
    19    9   10 ar   
    20    9   14 ar   
    21   10   11 ar   
    22   10  136 1    
    23   11   12 ar   
    24   11  126 1    
    25   12   13 ar   
    26   12  137 1    
    27   13   14 ar   
    28   13   15 1    
    29   14  138 1    
    30   15   16 1    
    31   15  139 1    
    32   15  140 1    
    33   16   17 1    
    34   17   18 1    
    35   17  141 1    
    36   17  142 1    
    37   18   19 1    
    38   18   67 1    
    39   18  143 1    
    40   19   20 am   BACKBONE|DICT|INTERRES
    41   19  144 1    
    42   20   21 2    
    43   20   22 1    
    44   22   23 1    
    45   22   24 1    
    46   22  145 1    
    47   23  146 1    
    48   23  147 1    
    49   23  148 1    
    50   24   25 am   BACKBONE|DICT|INTERRES
    51   24  149 1    
    52   25   26 2    
    53   25   27 1    
    54   27   28 1    
    55   27   29 1    
    56   27  150 1    
    57   28  151 1    
    58   28  152 1    
    59   28  153 1    
    60   29   30 am   BACKBONE|DICT|INTERRES
    61   29  154 1    
    62   30   31 2    
    63   30   32 1    
    64   32   33 1    
    65   32   34 1    
    66   32  155 1    
    67   33  156 1    
    68   33  157 1    
    69   33  158 1    
    70   34   35 am   BACKBONE|DICT|INTERRES
    71   34  159 1    
    72   35   36 2    
    73   35   37 1    
    74   37   38 1    
    75   37   39 1    
    76   37  160 1    
    77   38  161 1    
    78   38  162 1    
    79   38  163 1    
    80   39   40 am   BACKBONE|DICT|INTERRES
    81   39  164 1    
    82   40   41 2    
    83   40   42 1    
    84   42   43 1    
    85   42   44 1    
    86   42  165 1    
    87   43  166 1    
    88   43  167 1    
    89   43  168 1    
    90   44   45 am   BACKBONE|DICT|INTERRES
    91   44  169 1    
    92   45   46 2    
    93   45   47 1    
    94   47   48 1    
    95   47   49 1    
    96   47  170 1    
    97   48  171 1    
    98   48  172 1    
    99   48  173 1    
   100   49   50 am   BACKBONE|DICT|INTERRES
   101   49  174 1    
   102   50   51 2    
   103   50   52 1    
   104   52   53 1    
   105   52   54 1    
   106   52  175 1    
   107   53  176 1    
   108   53  177 1    
   109   53  178 1    
   110   54   55 am   BACKBONE|DICT|INTERRES
   111   54  179 1    
   112   55   56 2    
   113   55   57 1    
   114   57   58 1    
   115   57   59 1    
   116   57  180 1    
   117   58  181 1    
   118   58  182 1    
   119   58  183 1    
   120   59   60 am   BACKBONE|DICT|INTERRES
   121   59  184 1    
   122   60   61 2    
   123   60   62 1    
   124   62   63 1    
   125   62   64 1    
   126   62  185 1    
   127   63  186 1    
   128   63  187 1    
   129   63  188 1    
   130   64   65 am   BACKBONE|DICT|INTERRES
   131   64  189 1    
   132   65   66 2    
   133   67   68 2    
   134   67   69 am   BACKBONE|DICT|INTERRES
   135   69   70 1    
   136   69  190 1    
   137   70   71 1    
   138   70   72 1    
   139   70  191 1    
   140   71  192 1    
   141   71  193 1    
   142   71  194 1    
   143   72   73 2    
   144   72   74 am   BACKBONE|DICT|INTERRES
   145   74   75 1    
   146   74  195 1    
   147   75   76 1    
   148   75   77 1    
   149   75  196 1    
   150   76  197 1    
   151   76  198 1    
   152   76  199 1    
   153   77   78 2    
   154   77   79 am   BACKBONE|DICT|INTERRES
   155   79   80 1    
   156   79  200 1    
   157   80   81 1    
   158   80   82 1    
   159   80  201 1    
   160   81  202 1    
   161   81  203 1    
   162   81  204 1    
   163   82   83 2    
   164   82   84 am   BACKBONE|DICT|INTERRES
   165   84   85 1    
   166   84  205 1    
   167   85   86 1    
   168   85   87 1    
   169   85  206 1    
   170   86  207 1    
   171   86  208 1    
   172   86  209 1    
   173   87   88 2    
   174   87   89 am   BACKBONE|DICT|INTERRES
   175   89   90 1    
   176   89  210 1    
   177   90   91 1    
   178   90   92 1    
   179   90  211 1    
   180   91  212 1    
   181   91  213 1    
   182   91  214 1    
   183   92   93 2    
   184   92   94 am   BACKBONE|DICT|INTERRES
   185   94   95 1    
   186   94  215 1    
   187   95   96 1    
   188   95   97 1    
   189   95  216 1    
   190   96  217 1    
   191   96  218 1    
   192   96  219 1    
   193   97   98 2    
   194   97   99 am   BACKBONE|DICT|INTERRES
   195   99  100 1    
   196   99  220 1    
   197  100  101 1    
   198  100  102 1    
   199  100  221 1    
   200  101  222 1    
   201  101  223 1    
   202  101  224 1    
   203  102  103 2    
   204  102  104 am   BACKBONE|DICT|INTERRES
   205  104  105 1    
   206  104  225 1    
   207  105  106 1    
   208  105  107 1    
   209  105  226 1    
   210  106  227 1    
   211  106  228 1    
   212  106  229 1    
   213  107  108 2    
   214  107  109 am   BACKBONE|DICT|INTERRES
   215  109  110 1    
   216  109  230 1    
   217  110  111 1    
   218  110  112 1    
   219  110  231 1    
   220  111  232 1    
   221  111  233 1    
   222  111  234 1    
   223  112  113 2    
   224  112  114 am   BACKBONE|DICT|INTERRES
   225  114  115 1    
   226  114  235 1    
   227  115  116 1    
   228  115  117 1    
   229  115  236 1    
   230  116  237 1    
   231  116  238 1    
   232  116  239 1    
   233  117  118 2    
   234  117  119 am   BACKBONE|DICT|INTERRES
   235  119  120 1    
   236  119  240 1    
   237  120  121 1    
   238  120  124 1    
   239  120  241 1    
   240  121  122 am   BACKBONE|DICT|INTERRES
   241  121  123 2    
   242  122  242 1    
   243  122  243 1    
   244  124  125 1    
   245  124  244 1    
   246  124  245 1    
   247  125  126 1    
   248  126  246 1    
   249  126  247 1    
@<TRIPOS>SUBSTRUCTURE
     1 UNK         1 GROUP             0       ****    0 ROOT    
