@<TRIPOS>MOLECULE
3R540
247   249    1
SMALL
USER_CHARGES


@<TRIPOS>ATOM
      1 CA          6.0969  -11.1219  -47.7976 C.3       0 UNK        -0.1800 
      2 C           5.8471  -12.4821  -47.1642 C.2       0 UNK         0.5000 
      3 O           5.9724  -12.6244  -45.9496 O.2       0 UNK        -0.5000 
      4 N           5.4746  -13.4798  -47.9739 N.am      1 UNK        -0.5000 
      5 CA          5.1830  -14.8615  -47.5652 C.3       1 UNK         0.1400 
      6 C6          4.9032  -15.7793  -48.7830 C.3       23 UNK        -0.0398 
      7 S7          3.7163  -15.0774  -49.9878 S.3       23 UNK        -0.2404 
      8 C8          3.2625  -16.5451  -50.9602 C.3       23 UNK        -0.0205 
      9 C9          2.2128  -17.3816  -50.2487 C.ar      23 UNK        -0.0193 
     10 C10         0.8615  -17.0321  -50.3375 C.ar      23 UNK        -0.1150 
     11 C11        -0.1130  -17.7932  -49.6863 C.ar      23 UNK        -0.0193 
     12 C12         0.2770  -18.9161  -48.9534 C.ar      23 UNK        -0.1150 
     13 C13         1.6250  -19.2653  -48.8402 C.ar      23 UNK        -0.0193 
     14 C14         2.5888  -18.4990  -49.4985 C.ar      23 UNK        -0.1150 
     15 C15         2.0408  -20.4696  -48.0115 C.3       23 UNK        -0.0205 
     16 S16         2.4627  -20.0312  -46.2923 S.3       23 UNK        -0.2404 
     17 C17         0.8635  -19.4942  -45.5897 C.3       23 UNK        -0.0398 
     18 CA          0.0767  -20.6282  -44.8867 C.3       11 UNK         0.1400 
     19 N          -0.9032  -20.0954  -43.9414 N.am      11 UNK        -0.5000 
     20 C          -1.5485  -20.8136  -43.0105 C.2       10 UNK         0.5000 
     21 O          -1.3134  -21.9976  -42.7688 O.2       10 UNK        -0.5000 
     22 CA         -2.6611  -20.0897  -42.2314 C.3       10 UNK         0.1400 
     23 CB         -2.0859  -19.3518  -41.0136 C.3       10 UNK        -0.1800 
     24 N          -3.3890  -19.1503  -43.0866 N.am      10 UNK        -0.5000 
     25 C          -4.3010  -19.5230  -43.9966 C.2       9 UNK         0.5000 
     26 O          -4.7060  -20.6782  -44.1203 O.2       9 UNK        -0.5000 
     27 CA         -4.8506  -18.4327  -44.9363 C.3       9 UNK         0.1400 
     28 CB         -6.2213  -17.9392  -44.4511 C.3       9 UNK        -0.1800 
     29 N          -3.9573  -17.2823  -45.0851 N.am      9 UNK        -0.5000 
     30 C          -2.7943  -17.2956  -45.7502 C.2       8 UNK         0.5000 
     31 O          -2.3232  -18.2954  -46.2934 O.2       8 UNK        -0.5000 
     32 CA         -2.0091  -15.9709  -45.7539 C.3       8 UNK         0.1400 
     33 CB         -2.7130  -14.9323  -46.6450 C.3       8 UNK        -0.1800 
     34 N          -1.8507  -15.4148  -44.4067 N.am      8 UNK        -0.5000 
     35 C          -1.2559  -16.0418  -43.3840 C.2       7 UNK         0.5000 
     36 O          -0.7225  -17.1520  -43.4783 O.2       7 UNK        -0.5000 
     37 CA         -1.3329  -15.3474  -42.0169 C.3       7 UNK         0.1400 
     38 CB         -2.7644  -15.4473  -41.4498 C.3       7 UNK        -0.1800 
     39 N          -0.3769  -16.0023  -41.1329 N.am      7 UNK        -0.5000 
     40 C          -0.0208  -15.6356  -39.8968 C.2       6 UNK         0.5000 
     41 O          -0.5049  -14.6781  -39.2921 O.2       6 UNK        -0.5000 
     42 CA          1.0864  -16.4780  -39.2278 C.3       6 UNK         0.1400 
     43 CB          0.4744  -17.6312  -38.4177 C.3       6 UNK        -0.1800 
     44 N           2.0540  -17.0224  -40.1875 N.am      6 UNK        -0.5000 
     45 C           2.8898  -16.2673  -40.9133 C.2       5 UNK         0.5000 
     46 O           2.9728  -15.0444  -40.7851 O.2       5 UNK        -0.5000 
     47 CA          3.7374  -17.0056  -41.9704 C.3       5 UNK         0.1400 
     48 CB          2.8377  -17.5747  -43.0785 C.3       5 UNK        -0.1800 
     49 N           4.7202  -16.1188  -42.5896 N.am      5 UNK        -0.5000 
     50 C           5.8453  -15.6875  -42.0046 C.2       4 UNK         0.5000 
     51 O           6.2824  -16.1316  -40.9416 O.2       4 UNK        -0.5000 
     52 CA          6.5829  -14.5370  -42.7146 C.3       4 UNK         0.1400 
     53 CB          7.4582  -15.0679  -43.8604 C.3       4 UNK        -0.1800 
     54 N           5.6483  -13.5406  -43.2387 N.am      4 UNK        -0.5000 
     55 C           4.9192  -12.7015  -42.4881 C.2       3 UNK         0.5000 
     56 O           5.0634  -12.5741  -41.2717 O.2       3 UNK        -0.5000 
     57 CA          3.8499  -11.8626  -43.2117 C.3       3 UNK         0.1400 
     58 CB          4.4217  -10.5001  -43.6347 C.3       3 UNK        -0.1800 
     59 N           3.3226  -12.5518  -44.3909 N.am      3 UNK        -0.5000 
     60 C           2.2553  -13.3640  -44.3884 C.2       2 UNK         0.5000 
     61 O           1.5500  -13.5678  -43.4012 O.2       2 UNK        -0.5000 
     62 CA          1.8946  -14.0628  -45.7152 C.3       2 UNK         0.1400 
     63 CB          0.7325  -13.3347  -46.4049 C.3       2 UNK        -0.1800 
     64 N           3.0129  -14.1573  -46.6541 N.am      2 UNK        -0.5000 
     65 C           4.0706  -14.9635  -46.4977 C.2       1 UNK         0.5000 
     66 O           4.2172  -15.7122  -45.5313 O.2       1 UNK        -0.5000 
     67 C          -0.6052  -21.5819  -45.8901 C.2       11 UNK         0.5000 
     68 O          -0.2259  -22.7510  -45.9638 O.2       11 UNK        -0.5000 
     69 N          -1.6018  -21.0639  -46.6281 N.am      12 UNK        -0.5000 
     70 CA         -2.4904  -21.7141  -47.6080 C.3       12 UNK         0.1400 
     71 CB         -3.4059  -22.7343  -46.9088 C.3       12 UNK        -0.1800 
     72 C          -1.8342  -22.3696  -48.8448 C.2       12 UNK         0.5000 
     73 O          -2.4201  -22.3210  -49.9271 O.2       12 UNK        -0.5000 
     74 N          -0.6647  -22.9922  -48.6605 N.am      13 UNK        -0.5000 
     75 CA          0.0277  -23.9189  -49.5610 C.3       13 UNK         0.1400 
     76 CB          1.3758  -24.3005  -48.9303 C.3       13 UNK        -0.1800 
     77 C           0.2372  -23.4562  -51.0144 C.2       13 UNK         0.5000 
     78 O           0.2861  -24.3050  -51.9045 O.2       13 UNK        -0.5000 
     79 N           0.3473  -22.1408  -51.2424 N.am      14 UNK        -0.5000 
     80 CA          0.5174  -21.5542  -52.5745 C.3       14 UNK         0.1400 
     81 CB          0.9156  -20.0797  -52.4322 C.3       14 UNK        -0.1800 
     82 C          -0.7303  -21.6834  -53.4700 C.2       14 UNK         0.5000 
     83 O          -0.5901  -21.7015  -54.6936 O.2       14 UNK        -0.5000 
     84 N          -1.9157  -21.7657  -52.8530 N.am      15 UNK        -0.5000 
     85 CA         -3.2075  -21.8566  -53.5331 C.3       15 UNK         0.1400 
     86 CB         -4.0230  -20.6045  -53.1786 C.3       15 UNK        -0.1800 
     87 C          -3.9783  -23.1359  -53.1659 C.2       15 UNK         0.5000 
     88 O          -5.0667  -23.3508  -53.7031 O.2       15 UNK        -0.5000 
     89 N          -3.4481  -23.9489  -52.2411 N.am      16 UNK        -0.5000 
     90 CA         -4.0473  -25.1957  -51.7615 C.3       16 UNK         0.1400 
     91 CB         -3.1477  -25.8129  -50.6820 C.3       16 UNK        -0.1800 
     92 C          -4.2901  -26.1872  -52.9124 C.2       16 UNK         0.5000 
     93 O          -3.3611  -26.4773  -53.6689 O.2       16 UNK        -0.5000 
     94 N          -5.5478  -26.6272  -53.0564 N.am      17 UNK        -0.5000 
     95 CA         -6.1180  -27.4573  -54.1294 C.3       17 UNK         0.1400 
     96 CB         -5.4328  -28.8351  -54.2045 C.3       17 UNK        -0.1800 
     97 C          -6.1602  -26.7802  -55.5174 C.2       17 UNK         0.5000 
     98 O          -7.1454  -26.9498  -56.2357 O.2       17 UNK        -0.5000 
     99 N          -5.1162  -26.0181  -55.8650 N.am      18 UNK        -0.5000 
    100 CA        -4.9535  -25.2986  -57.1285 C.3       18 UNK         0.1400 
    101 CB        -3.5253  -24.7356  -57.1991 C.3       18 UNK        -0.1800 
    102 C         -5.9842  -24.1736  -57.3344 C.2       18 UNK         0.5000 
    103 O         -6.4712  -23.9957  -58.4518 O.2       18 UNK        -0.5000 
    104 N         -6.2980  -23.4436  -56.2580 N.am      19 UNK        -0.5000 
    105 CA        -7.2455  -22.3288  -56.2406 C.3       19 UNK         0.1400 
    106 CB        -6.4890  -21.0089  -56.4799 C.3       19 UNK        -0.1800 
    107 C         -8.0849  -22.3228  -54.9474 C.2       19 UNK         0.5000 
    108 O         -8.6158  -21.2782  -54.5697 O.2       19 UNK        -0.5000 
    109 N         -8.2049  -23.4976  -54.3087 N.am      20 UNK        -0.5000 
    110 CA        -8.9838  -23.7823  -53.0974 C.3       20 UNK         0.1400 
    111 CB       -10.4947  -23.6217  -53.3703 C.3       20 UNK        -0.1800 
    112 C         -8.5071  -23.0141  -51.8435 C.2       20 UNK         0.5000 
    113 O         -9.3332  -22.6282  -51.0142 O.2       20 UNK        -0.5000 
    114 N         -7.1802  -22.8533  -51.7189 N.am      21 UNK        -0.5000 
    115 CA        -6.4409  -22.1859  -50.6373 C.3       21 UNK         0.1400 
    116 CB        -6.7765  -22.7875  -49.2562 C.3       21 UNK        -0.1800 
    117 C         -6.5747  -20.6503  -50.6451 C.2       21 UNK         0.5000 
    118 O         -7.4371  -20.0869  -51.3209 O.2       21 UNK        -0.5000 
    119 N         -5.6730  -19.9965  -49.9023 N.am      22 UNK        -0.5000 
    120 CA        -5.5722  -18.5304  -49.7980 C.3       22 UNK         0.1400 
    121 C         -6.7341  -17.8474  -49.0140 C.2       22 UNK         0.5000 
    122 N         -7.5586  -18.5748  -48.2698 N.am      22 UNK        -0.7600 
    123 O         -6.8865  -16.6312  -49.0817 O.2       22 UNK        -0.5000 
    124 C124       -4.2120  -18.0915  -49.2008 C.3       23 UNK        -0.0398 
    125 S125       -2.7439  -18.6854  -50.1123 S.3       23 UNK        -0.2404 
    126 C126       -1.5694  -17.3520  -49.7002 C.3       23 UNK        -0.0205 
    127 H127        5.4339  -10.3771  -47.3576 H         1 UNK         0.0600 
    128 H128        5.9253  -11.1383  -48.8742 H         1 UNK         0.0600 
    129 H129        7.1262  -10.8107  -47.6206 H         1 UNK         0.0600 
    130 H130        5.3653  -13.2980  -48.9620 H         1 UNK         0.3000 
    131 H131        6.0903  -15.2355  -47.0862 H         1 UNK         0.0600 
    132 H132        5.8378  -15.9603  -49.3156 H         1 UNK         0.0800 
    133 H133        4.5616  -16.7606  -48.4511 H         1 UNK         0.0800 
    134 H134        2.8721  -16.2204  -51.9259 H         1 UNK         0.0800 
    135 H135        4.1523  -17.1383  -51.1766 H         1 UNK         0.0800 
    136 H136        0.5742  -16.1540  -50.8986 H         1 UNK         0.1150 
    137 H137       -0.4757  -19.4993  -48.4474 H         1 UNK         0.1150 
    138 H138        3.6319  -18.7711  -49.4212 H         1 UNK         0.1150 
    139 H139        1.2557  -21.2212  -48.0175 H         1 UNK         0.0800 
    140 H140        2.9092  -20.9440  -48.4710 H         1 UNK         0.0800 
    141 H141        0.2594  -18.9743  -46.3287 H         1 UNK         0.0800 
    142 H142        1.1046  -18.7255  -44.8578 H         1 UNK         0.0800 
    143 H143        0.7891  -21.2165  -44.3039 H         1 UNK         0.0600 
    144 H144       -1.1208  -19.1095  -44.0299 H         1 UNK         0.3000 
    145 H145       -3.3607  -20.8443  -41.8650 H         1 UNK         0.0600 
    146 H146       -2.8696  -18.8491  -40.4471 H         1 UNK         0.0600 
    147 H147       -1.5934  -20.0501  -40.3359 H         1 UNK         0.0600 
    148 H148       -1.3474  -18.6069  -41.3048 H         1 UNK         0.0600 
    149 H149       -3.0998  -18.1851  -43.0596 H         1 UNK         0.3000 
    150 H150       -4.9846  -18.8906  -45.9185 H         1 UNK         0.0600 
    151 H151       -6.9232  -18.7685  -44.3531 H         1 UNK         0.0600 
    152 H152       -6.6564  -17.2305  -45.1562 H         1 UNK         0.0600 
    153 H153       -6.1526  -17.4497  -43.4788 H         1 UNK         0.0600 
    154 H154       -4.2603  -16.4188  -44.6592 H         1 UNK         0.3000 
    155 H155       -1.0160  -16.1701  -46.1625 H         1 UNK         0.0600 
    156 H156       -3.6786  -14.6349  -46.2343 H         1 UNK         0.0600 
    157 H157       -2.1130  -14.0307  -46.7574 H         1 UNK         0.0600 
    158 H158       -2.8980  -15.3192  -47.6462 H         1 UNK         0.0600 
    159 H159       -2.2670  -14.5091  -44.2448 H         1 UNK         0.3000 
    160 H160       -1.0445  -14.3013  -42.1366 H         1 UNK         0.0600 
    161 H161       -3.0609  -16.4831  -41.2844 H         1 UNK         0.0600 
    162 H162       -3.4925  -15.0024  -42.1289 H         1 UNK         0.0600 
    163 H163       -2.8591  -14.9204  -40.5008 H         1 UNK         0.0600 
    164 H164        0.0917  -16.7863  -41.5689 H         1 UNK         0.3000 
    165 H165        1.6244  -15.8254  -38.5368 H         1 UNK         0.0600 
    166 H166        1.2410  -18.1771  -37.8675 H         1 UNK         0.0600 
    167 H167       -0.2438  -17.2568  -37.6870 H         1 UNK         0.0600 
    168 H168       -0.0494  -18.3411  -39.0579 H         1 UNK         0.0600 
    169 H169        2.0420  -18.0224  -40.3261 H         1 UNK         0.3000 
    170 H170        4.2620  -17.8286  -41.4810 H         1 UNK         0.0600 
    171 H171        2.1343  -18.3083  -42.6834 H         1 UNK         0.0600 
    172 H172        2.2563  -16.7901  -43.5653 H         1 UNK         0.0600 
    173 H173        3.4279  -18.0754  -43.8466 H         1 UNK         0.0600 
    174 H174        4.4589  -15.7192  -43.4840 H         1 UNK         0.3000 
    175 H175        7.2326  -14.0490  -41.9852 H         1 UNK         0.0600 
    176 H176        8.1902  -15.7867  -43.4905 H         1 UNK         0.0600 
    177 H177        6.8630  -15.5686  -44.6246 H         1 UNK         0.0600 
    178 H178        8.0085  -14.2597  -44.3426 H         1 UNK         0.0600 
    179 H179        5.5499  -13.4951  -44.2472 H         1 UNK         0.3000 
    180 H180        3.0387  -11.6795  -42.5037 H         1 UNK         0.0600 
    181 H181        5.2558  -10.6064  -44.3287 H         1 UNK         0.0600 
    182 H182        4.7862   -9.9461  -42.7687 H         1 UNK         0.0600 
    183 H183        3.6608   -9.8859  -44.1164 H         1 UNK         0.0600 
    184 H184        3.8693  -12.4699  -45.2374 H         1 UNK         0.3000 
    185 H185        1.5647  -15.0752  -45.4708 H         1 UNK         0.0600 
    186 H186       -0.1170  -13.2314  -45.7290 H         1 UNK         0.0600 
    187 H187        1.0187  -12.3321  -46.7248 H         1 UNK         0.0600 
    188 H188        0.3891  -13.8839  -47.2819 H         1 UNK         0.0600 
    189 H189        2.9746  -13.5696  -47.4745 H         1 UNK         0.3000 
    190 H190       -1.8179  -20.0803  -46.4741 H         1 UNK         0.3000 
    191 H191       -3.1258  -20.9162  -47.9929 H         1 UNK         0.0600 
    192 H192       -2.8345  -23.5160  -46.4076 H         1 UNK         0.0600 
    193 H193       -4.0671  -23.2272  -47.6220 H         1 UNK         0.0600 
    194 H194       -4.0357  -22.2513  -46.1630 H         1 UNK         0.0600 
    195 H195       -0.3220  -22.9854  -47.7011 H         1 UNK         0.3000 
    196 H196       -0.5827  -24.8215  -49.6022 H         1 UNK         0.0600 
    197 H197        1.8955  -25.0448  -49.5353 H         1 UNK         0.0600 
    198 H198        1.2407  -24.7292  -47.9370 H         1 UNK         0.0600 
    199 H199        2.0351  -23.4375  -48.8359 H         1 UNK         0.0600 
    200 H200        0.2728  -21.5021  -50.4650 H         1 UNK         0.3000 
    201 H201        1.3354  -22.0784  -53.0733 H         1 UNK         0.0600 
    202 H202        1.8338  -19.9733  -51.8558 H         1 UNK         0.0600 
    203 H203        0.1333  -19.5020  -51.9399 H         1 UNK         0.0600 
    204 H204        1.0921  -19.6249  -53.4076 H         1 UNK         0.0600 
    205 H205       -1.9429  -21.7503  -51.8380 H         1 UNK         0.3000 
    206 H206       -3.0811  -21.8834  -54.6171 H         1 UNK         0.0600 
    207 H207       -3.5851  -19.7131  -53.6275 H         1 UNK         0.0600 
    208 H208       -5.0543  -20.6728  -53.5252 H         1 UNK         0.0600 
    209 H209       -4.0503  -20.4493  -52.1022 H         1 UNK         0.0600 
    210 H210       -2.5619  -23.6918  -51.8325 H         1 UNK         0.3000 
    211 H211       -5.0044  -24.9454  -51.3004 H         1 UNK         0.0600 
    212 H212       -2.1529  -26.0359  -51.0699 H         1 UNK         0.0600 
    213 H213       -3.5708  -26.7455  -50.3068 H         1 UNK         0.0600 
    214 H214       -3.0389  -25.1417  -49.8303 H         1 UNK         0.0600 
    215 H215       -6.2260  -26.3099  -52.3787 H         1 UNK         0.3000 
    216 H216       -7.1564  -27.6295  -53.8414 H         1 UNK         0.0600 
    217 H217       -5.9444  -29.4835  -54.9169 H         1 UNK         0.0600 
    218 H218       -5.4505  -29.3375  -53.2374 H         1 UNK         0.0600 
    219 H219       -4.3936  -28.7598  -54.5252 H         1 UNK         0.0600 
    220 H220       -4.3432  -25.9728  -55.2071 H         1 UNK         0.3000 
    221 H221       -5.0795  -26.0174  -57.9407 H         1 UNK         0.0600 
    222 H222       -3.3270  -24.0373  -56.3848 H         1 UNK         0.0600 
    223 H223       -2.7842  -25.5331  -57.1432 H         1 UNK         0.0600 
    224 H224       -3.3599  -24.2034  -58.1368 H         1 UNK         0.0600 
    225 H225       -5.8197  -23.6230  -55.3774 H         1 UNK         0.3000 
    226 H226       -7.9676  -22.4540  -57.0499 H         1 UNK         0.0600 
    227 H227       -5.9840  -21.0171  -57.4459 H         1 UNK         0.0600 
    228 H228       -7.1668  -20.1546  -56.4792 H         1 UNK         0.0600 
    229 H229       -5.7352  -20.8358  -55.7136 H         1 UNK         0.0600 
    230 H230       -7.7365  -24.2901  -54.7231 H         1 UNK         0.3000 
    231 H231       -8.8102  -24.8362  -52.8759 H         1 UNK         0.0600 
    232 H232      -11.0856  -23.9802  -52.5267 H         1 UNK         0.0600 
    233 H233      -10.8010  -24.1957  -54.2448 H         1 UNK         0.0600 
    234 H234      -10.7673  -22.5798  -53.5400 H         1 UNK         0.0600 
    235 H235       -6.6074  -23.1399  -52.5066 H         1 UNK         0.3000 
    236 H236       -5.3887  -22.3971  -50.8230 H         1 UNK         0.0600 
    237 H237       -7.7977  -22.5660  -48.9468 H         1 UNK         0.0600 
    238 H238       -6.6521  -23.8704  -49.2574 H         1 UNK         0.0600 
    239 H239       -6.1198  -22.3891  -48.4834 H         1 UNK         0.0600 
    240 H240       -4.9719  -20.5210  -49.4026 H         1 UNK         0.3000 
    241 H241       -5.6235  -18.1338  -50.8139 H         1 UNK         0.0600 
    242 H242       -8.3098  -18.1192  -47.7764 H         1 UNK         0.3800 
    243 H243       -7.4627  -19.5756  -48.2225 H         1 UNK         0.3800 
    244 H244       -4.1650  -17.0019  -49.1549 H         1 UNK         0.0800 
    245 H245       -4.1311  -18.4439  -48.1735 H         1 UNK         0.0800 
    246 H246       -1.7233  -16.5204  -50.3893 H         1 UNK         0.0800 
    247 H247       -1.7884  -16.9777  -48.7027 H         1 UNK         0.0800 
@<TRIPOS>BOND
     1    1    2 1    
     2    1  127 1    
     3    1  128 1    
     4    1  129 1    
     5    2    3 2    
     6    2    4 am   BACKBONE|DICT|INTERRES
     7    4    5 1    
     8    4  130 1    
     9    5    6 1    
    10    5   65 1    
    11    5  131 1    
    12    6    7 1    
    13    6  132 1    
    14    6  133 1    
    15    7    8 1    
    16    8    9 1    
    17    8  134 1    
    18    8  135 1    
    19    9   10 ar   
    20    9   14 ar   
    21   10   11 ar   
    22   10  136 1    
    23   11   12 ar   
    24   11  126 1    
    25   12   13 ar   
    26   12  137 1    
    27   13   14 ar   
    28   13   15 1    
    29   14  138 1    
    30   15   16 1    
    31   15  139 1    
    32   15  140 1    
    33   16   17 1    
    34   17   18 1    
    35   17  141 1    
    36   17  142 1    
    37   18   19 1    
    38   18   67 1    
    39   18  143 1    
    40   19   20 am   BACKBONE|DICT|INTERRES
    41   19  144 1    
    42   20   21 2    
    43   20   22 1    
    44   22   23 1    
    45   22   24 1    
    46   22  145 1    
    47   23  146 1    
    48   23  147 1    
    49   23  148 1    
    50   24   25 am   BACKBONE|DICT|INTERRES
    51   24  149 1    
    52   25   26 2    
    53   25   27 1    
    54   27   28 1    
    55   27   29 1    
    56   27  150 1    
    57   28  151 1    
    58   28  152 1    
    59   28  153 1    
    60   29   30 am   BACKBONE|DICT|INTERRES
    61   29  154 1    
    62   30   31 2    
    63   30   32 1    
    64   32   33 1    
    65   32   34 1    
    66   32  155 1    
    67   33  156 1    
    68   33  157 1    
    69   33  158 1    
    70   34   35 am   BACKBONE|DICT|INTERRES
    71   34  159 1    
    72   35   36 2    
    73   35   37 1    
    74   37   38 1    
    75   37   39 1    
    76   37  160 1    
    77   38  161 1    
    78   38  162 1    
    79   38  163 1    
    80   39   40 am   BACKBONE|DICT|INTERRES
    81   39  164 1    
    82   40   41 2    
    83   40   42 1    
    84   42   43 1    
    85   42   44 1    
    86   42  165 1    
    87   43  166 1    
    88   43  167 1    
    89   43  168 1    
    90   44   45 am   BACKBONE|DICT|INTERRES
    91   44  169 1    
    92   45   46 2    
    93   45   47 1    
    94   47   48 1    
    95   47   49 1    
    96   47  170 1    
    97   48  171 1    
    98   48  172 1    
    99   48  173 1    
   100   49   50 am   BACKBONE|DICT|INTERRES
   101   49  174 1    
   102   50   51 2    
   103   50   52 1    
   104   52   53 1    
   105   52   54 1    
   106   52  175 1    
   107   53  176 1    
   108   53  177 1    
   109   53  178 1    
   110   54   55 am   BACKBONE|DICT|INTERRES
   111   54  179 1    
   112   55   56 2    
   113   55   57 1    
   114   57   58 1    
   115   57   59 1    
   116   57  180 1    
   117   58  181 1    
   118   58  182 1    
   119   58  183 1    
   120   59   60 am   BACKBONE|DICT|INTERRES
   121   59  184 1    
   122   60   61 2    
   123   60   62 1    
   124   62   63 1    
   125   62   64 1    
   126   62  185 1    
   127   63  186 1    
   128   63  187 1    
   129   63  188 1    
   130   64   65 am   BACKBONE|DICT|INTERRES
   131   64  189 1    
   132   65   66 2    
   133   67   68 2    
   134   67   69 am   BACKBONE|DICT|INTERRES
   135   69   70 1    
   136   69  190 1    
   137   70   71 1    
   138   70   72 1    
   139   70  191 1    
   140   71  192 1    
   141   71  193 1    
   142   71  194 1    
   143   72   73 2    
   144   72   74 am   BACKBONE|DICT|INTERRES
   145   74   75 1    
   146   74  195 1    
   147   75   76 1    
   148   75   77 1    
   149   75  196 1    
   150   76  197 1    
   151   76  198 1    
   152   76  199 1    
   153   77   78 2    
   154   77   79 am   BACKBONE|DICT|INTERRES
   155   79   80 1    
   156   79  200 1    
   157   80   81 1    
   158   80   82 1    
   159   80  201 1    
   160   81  202 1    
   161   81  203 1    
   162   81  204 1    
   163   82   83 2    
   164   82   84 am   BACKBONE|DICT|INTERRES
   165   84   85 1    
   166   84  205 1    
   167   85   86 1    
   168   85   87 1    
   169   85  206 1    
   170   86  207 1    
   171   86  208 1    
   172   86  209 1    
   173   87   88 2    
   174   87   89 am   BACKBONE|DICT|INTERRES
   175   89   90 1    
   176   89  210 1    
   177   90   91 1    
   178   90   92 1    
   179   90  211 1    
   180   91  212 1    
   181   91  213 1    
   182   91  214 1    
   183   92   93 2    
   184   92   94 am   BACKBONE|DICT|INTERRES
   185   94   95 1    
   186   94  215 1    
   187   95   96 1    
   188   95   97 1    
   189   95  216 1    
   190   96  217 1    
   191   96  218 1    
   192   96  219 1    
   193   97   98 2    
   194   97   99 am   BACKBONE|DICT|INTERRES
   195   99  100 1    
   196   99  220 1    
   197  100  101 1    
   198  100  102 1    
   199  100  221 1    
   200  101  222 1    
   201  101  223 1    
   202  101  224 1    
   203  102  103 2    
   204  102  104 am   BACKBONE|DICT|INTERRES
   205  104  105 1    
   206  104  225 1    
   207  105  106 1    
   208  105  107 1    
   209  105  226 1    
   210  106  227 1    
   211  106  228 1    
   212  106  229 1    
   213  107  108 2    
   214  107  109 am   BACKBONE|DICT|INTERRES
   215  109  110 1    
   216  109  230 1    
   217  110  111 1    
   218  110  112 1    
   219  110  231 1    
   220  111  232 1    
   221  111  233 1    
   222  111  234 1    
   223  112  113 2    
   224  112  114 am   BACKBONE|DICT|INTERRES
   225  114  115 1    
   226  114  235 1    
   227  115  116 1    
   228  115  117 1    
   229  115  236 1    
   230  116  237 1    
   231  116  238 1    
   232  116  239 1    
   233  117  118 2    
   234  117  119 am   BACKBONE|DICT|INTERRES
   235  119  120 1    
   236  119  240 1    
   237  120  121 1    
   238  120  124 1    
   239  120  241 1    
   240  121  122 am   BACKBONE|DICT|INTERRES
   241  121  123 2    
   242  122  242 1    
   243  122  243 1    
   244  124  125 1    
   245  124  244 1    
   246  124  245 1    
   247  125  126 1    
   248  126  246 1    
   249  126  247 1    
@<TRIPOS>SUBSTRUCTURE
     1 UNK         1 GROUP             0       ****    0 ROOT    
