@<TRIPOS>MOLECULE
3R540
247   249    1
SMALL
USER_CHARGES


@<TRIPOS>ATOM
      1 CA         -0.2331  -15.0160  -53.7305 C.3       0 UNK        -0.1800 
      2 C           0.1081  -14.9151  -52.2497 C.2       0 UNK         0.5000 
      3 O           0.8605  -15.7433  -51.7363 O.2       0 UNK        -0.5000 
      4 N          -0.4491  -13.9100  -51.5627 N.am      1 UNK        -0.5000 
      5 CA         -0.2310  -13.6495  -50.1367 C.3       1 UNK         0.1400 
      6 C6         -1.2183  -12.5962  -49.5720 C.3       23 UNK        -0.0398 
      7 S7         -2.9784  -13.0427  -49.7497 S.3       23 UNK        -0.2404 
      8 C8         -3.3615  -13.7733  -48.1240 C.3       23 UNK        -0.0205 
      9 C9         -3.3007  -15.2903  -48.1834 C.ar      23 UNK        -0.0193 
     10 C10        -4.4302  -16.0091  -48.5849 C.ar      23 UNK        -0.1150 
     11 C11        -4.3925  -17.4054  -48.6916 C.ar      23 UNK        -0.0193 
     12 C12        -3.1986  -18.0681  -48.3964 C.ar      23 UNK        -0.1150 
     13 C13        -2.0637  -17.3638  -47.9875 C.ar      23 UNK        -0.0193 
     14 C14        -2.1238  -15.9734  -47.8654 C.ar      23 UNK        -0.1150 
     15 C15        -0.7695  -18.1139  -47.7230 C.3       23 UNK        -0.0205 
     16 S16        -0.8870  -19.1339  -46.2251 S.3       23 UNK        -0.2404 
     17 C17         0.4973  -20.3087  -46.4706 C.3       23 UNK        -0.0398 
     18 CA          0.0857  -21.7946  -46.3241 C.3       11 UNK         0.1400 
     19 N          -0.5190  -22.0404  -45.0124 N.am      11 UNK        -0.5000 
     20 C          -1.0407  -23.1797  -44.5401 C.2       10 UNK         0.5000 
     21 O          -1.0750  -24.2310  -45.1791 O.2       10 UNK        -0.5000 
     22 CA         -1.6366  -23.1370  -43.1172 C.3       10 UNK         0.1400 
     23 CB         -0.8055  -24.0078  -42.1630 C.3       10 UNK        -0.1800 
     24 N          -1.7319  -21.7859  -42.5545 N.am      10 UNK        -0.5000 
     25 C          -2.5630  -20.8180  -42.9607 C.2       9 UNK         0.5000 
     26 O          -3.3938  -20.9795  -43.8551 O.2       9 UNK        -0.5000 
     27 CA         -2.4201  -19.4272  -42.3073 C.3       9 UNK         0.1400 
     28 CB         -3.5224  -19.1908  -41.2581 C.3       9 UNK        -0.1800 
     29 N          -1.0912  -19.1171  -41.7573 N.am      9 UNK        -0.5000 
     30 C          -0.4581  -19.6420  -40.6974 C.2       8 UNK         0.5000 
     31 O          -0.8825  -20.5966  -40.0466 O.2       8 UNK        -0.5000 
     32 CA          0.8830  -18.9946  -40.3032 C.3       8 UNK         0.1400 
     33 CB          2.0485  -19.6411  -41.0687 C.3       8 UNK        -0.1800 
     34 N           0.8853  -17.5476  -40.5292 N.am      8 UNK        -0.5000 
     35 C           0.2445  -16.6630  -39.7506 C.2       7 UNK         0.5000 
     36 O          -0.3416  -16.9684  -38.7111 O.2       7 UNK        -0.5000 
     37 CA          0.2422  -15.1917  -40.2105 C.3       7 UNK         0.1400 
     38 CB          1.4889  -14.4605  -39.6901 C.3       7 UNK        -0.1800 
     39 N           0.1612  -15.0468  -41.6646 N.am      7 UNK        -0.5000 
     40 C          -0.9074  -15.3794  -42.4043 C.2       6 UNK         0.5000 
     41 O          -1.9756  -15.7646  -41.9291 O.2       6 UNK        -0.5000 
     42 CA         -0.7457  -15.3084  -43.9349 C.3       6 UNK         0.1400 
     43 CB         -1.0962  -13.9063  -44.4549 C.3       6 UNK        -0.1800 
     44 N           0.5977  -15.6685  -44.3898 N.am      6 UNK        -0.5000 
     45 C           1.1757  -16.8638  -44.2103 C.2       5 UNK         0.5000 
     46 O           0.6386  -17.8006  -43.6222 O.2       5 UNK        -0.5000 
     47 CA          2.6205  -17.0136  -44.7121 C.3       5 UNK         0.1400 
     48 CB          2.6823  -17.1148  -46.2438 C.3       5 UNK        -0.1800 
     49 N           3.4519  -15.9000  -44.2647 N.am      5 UNK        -0.5000 
     50 C           3.8428  -15.7085  -42.9976 C.2       4 UNK         0.5000 
     51 O           3.5744  -16.4766  -42.0736 O.2       4 UNK        -0.5000 
     52 CA          4.6469  -14.4264  -42.7153 C.3       4 UNK         0.1400 
     53 CB          6.1482  -14.6728  -42.9263 C.3       4 UNK        -0.1800 
     54 N           4.2208  -13.2963  -43.5445 N.am      4 UNK        -0.5000 
     55 C           3.0358  -12.6824  -43.4249 C.2       3 UNK         0.5000 
     56 O           2.1757  -13.0064  -42.6059 O.2       3 UNK        -0.5000 
     57 CA          2.7491  -11.5439  -44.4206 C.3       3 UNK         0.1400 
     58 CB          3.4751  -10.2568  -44.0001 C.3       3 UNK        -0.1800 
     59 N           3.0898  -11.8676  -45.8113 N.am      3 UNK        -0.5000 
     60 C           2.5461  -12.8744  -46.5057 C.2       2 UNK         0.5000 
     61 O           1.7919  -13.7168  -46.0125 O.2       2 UNK        -0.5000 
     62 CA          2.8754  -12.9645  -48.0007 C.3       2 UNK         0.1400 
     63 CB          4.0857  -13.8761  -48.2568 C.3       2 UNK        -0.1800 
     64 N           1.6872  -13.5142  -48.6405 N.am      2 UNK        -0.5000 
     65 C           1.2134  -13.1880  -49.8449 C.2       1 UNK         0.5000 
     66 O           1.8256  -12.4954  -50.6621 O.2       1 UNK        -0.5000 
     67 C          -0.7722  -22.2746  -47.5165 C.2       11 UNK         0.5000 
     68 O          -0.2255  -22.8246  -48.4723 O.2       11 UNK        -0.5000 
     69 N          -2.0982  -22.1028  -47.4162 N.am      12 UNK        -0.5000 
     70 CA         -3.0826  -22.5452  -48.4036 C.3       12 UNK         0.1400 
     71 CB         -4.4703  -22.0377  -47.9822 C.3       12 UNK        -0.1800 
     72 C          -3.1033  -24.0729  -48.5914 C.2       12 UNK         0.5000 
     73 O          -3.1470  -24.5509  -49.7274 O.2       12 UNK        -0.5000 
     74 N          -3.0514  -24.7983  -47.4668 N.am      13 UNK        -0.5000 
     75 CA         -3.0316  -26.2578  -47.4115 C.3       13 UNK         0.1400 
     76 CB         -3.5009  -26.7199  -46.0238 C.3       13 UNK        -0.1800 
     77 C          -1.6405  -26.8257  -47.7326 C.2       13 UNK         0.5000 
     78 O          -1.5527  -27.8649  -48.3854 O.2       13 UNK        -0.5000 
     79 N          -0.5839  -26.1243  -47.2973 N.am      14 UNK        -0.5000 
     80 CA          0.8147  -26.4645  -47.5650 C.3       14 UNK         0.1400 
     81 CB          1.7323  -25.5636  -46.7260 C.3       14 UNK        -0.1800 
     82 C           1.1709  -26.3677  -49.0598 C.2       14 UNK         0.5000 
     83 O           1.8753  -27.2377  -49.5731 O.2       14 UNK        -0.5000 
     84 N           0.6493  -25.3342  -49.7370 N.am      15 UNK        -0.5000 
     85 CA          0.7430  -25.1655  -51.1883 C.3       15 UNK         0.1400 
     86 CB          0.3353  -23.7306  -51.5523 C.3       15 UNK        -0.1800 
     87 C          -0.1266  -26.1741  -51.9637 C.2       15 UNK         0.5000 
     88 O           0.2097  -26.5139  -53.0978 O.2       15 UNK        -0.5000 
     89 N          -1.2305  -26.6134  -51.3389 N.am      16 UNK        -0.5000 
     90 CA         -2.2279  -27.5721  -51.8322 C.3       16 UNK         0.1400 
     91 CB         -1.5988  -28.9672  -52.0235 C.3       16 UNK        -0.1800 
     92 C          -2.9945  -27.0829  -53.0809 C.2       16 UNK         0.5000 
     93 O          -3.5201  -27.8955  -53.8437 O.2       16 UNK        -0.5000 
     94 N          -3.0516  -25.7587  -53.2582 N.am      17 UNK        -0.5000 
     95 CA         -3.6774  -25.0707  -54.3870 C.3       17 UNK         0.1400 
     96 CB         -2.6851  -24.9966  -55.5642 C.3       17 UNK        -0.1800 
     97 C          -4.1910  -23.6853  -53.9557 C.2       17 UNK         0.5000 
     98 O          -4.1888  -22.7499  -54.7584 O.2       17 UNK        -0.5000 
     99 N          -4.5740  -23.5589  -52.6731 N.am      18 UNK        -0.5000 
    100 CA        -5.0798  -22.3426  -52.0195 C.3       18 UNK         0.1400 
    101 CB        -6.4745  -21.9875  -52.5688 C.3       18 UNK        -0.1800 
    102 C         -4.0946  -21.1540  -52.0888 C.2       18 UNK         0.5000 
    103 O         -4.5178  -19.9974  -52.1653 O.2       18 UNK        -0.5000 
    104 N         -2.7922  -21.4817  -52.1334 N.am      19 UNK        -0.5000 
    105 CA        -1.6320  -20.6000  -52.3272 C.3       19 UNK         0.1400 
    106 CB        -1.4396  -19.7076  -51.0872 C.3       19 UNK        -0.1800 
    107 C         -1.6611  -19.7733  -53.6335 C.2       19 UNK         0.5000 
    108 O         -0.8958  -18.8173  -53.7575 O.2       19 UNK        -0.5000 
    109 N         -2.5662  -20.1246  -54.5631 N.am      20 UNK        -0.5000 
    110 CA        -2.9943  -19.3385  -55.7265 C.3       20 UNK         0.1400 
    111 CB        -1.8619  -19.2381  -56.7693 C.3       20 UNK        -0.1800 
    112 C         -3.5847  -17.9576  -55.3456 C.2       20 UNK         0.5000 
    113 O         -3.5970  -17.0493  -56.1781 O.2       20 UNK        -0.5000 
    114 N         -4.0542  -17.8230  -54.0970 N.am      21 UNK        -0.5000 
    115 CA        -4.5241  -16.5776  -53.4963 C.3       21 UNK         0.1400 
    116 CB        -3.7070  -16.3023  -52.2236 C.3       21 UNK        -0.1800 
    117 C         -6.0202  -16.6493  -53.1628 C.2       21 UNK         0.5000 
    118 O         -6.7376  -15.6817  -53.4209 O.2       21 UNK        -0.5000 
    119 N         -6.4648  -17.7857  -52.6095 N.am      22 UNK        -0.5000 
    120 CA        -7.8545  -18.0100  -52.1661 C.3       22 UNK         0.1400 
    121 C         -8.6668  -18.9318  -53.1214 C.2       22 UNK         0.5000 
    122 N         -8.1360  -19.3291  -54.2715 N.am      22 UNK        -0.7600 
    123 O         -9.8067  -19.2802  -52.8261 O.2       22 UNK        -0.5000 
    124 C124       -7.9249  -18.4960  -50.6927 C.3       23 UNK        -0.0398 
    125 S125       -7.1193  -17.3370  -49.5343 S.3       23 UNK        -0.2404 
    126 C126       -5.5807  -18.2467  -49.1593 C.3       23 UNK        -0.0205 
    127 H127        0.6595  -14.8499  -54.3335 H         1 UNK         0.0600 
    128 H128       -0.6204  -16.0092  -53.9606 H         1 UNK         0.0600 
    129 H129       -0.9860  -14.2839  -54.0240 H         1 UNK         0.0600 
    130 H130       -1.0507  -13.2536  -52.0381 H         1 UNK         0.3000 
    131 H131       -0.3940  -14.5920  -49.6121 H         1 UNK         0.0600 
    132 H132       -1.0750  -11.6414  -50.0815 H         1 UNK         0.0800 
    133 H133       -1.0121  -12.3970  -48.5190 H         1 UNK         0.0800 
    134 H134       -4.3653  -13.4611  -47.8318 H         1 UNK         0.0800 
    135 H135       -2.6954  -13.3899  -47.3508 H         1 UNK         0.0800 
    136 H136       -5.3273  -15.4618  -48.8322 H         1 UNK         0.1150 
    137 H137       -3.1422  -19.1423  -48.4968 H         1 UNK         0.1150 
    138 H138       -1.2502  -15.4226  -47.5485 H         1 UNK         0.1150 
    139 H139       -0.5446  -18.7429  -48.5830 H         1 UNK         0.0800 
    140 H140        0.0640  -17.4187  -47.6220 H         1 UNK         0.0800 
    141 H141        1.2576  -20.0751  -45.7242 H         1 UNK         0.0800 
    142 H142        0.9760  -20.1399  -47.4366 H         1 UNK         0.0800 
    143 H143        1.0021  -22.3854  -46.3474 H         1 UNK         0.0600 
    144 H144       -0.5687  -21.2336  -44.4080 H         1 UNK         0.3000 
    145 H145       -2.6437  -23.5542  -43.1762 H         1 UNK         0.0600 
    146 H146       -1.2531  -24.0417  -41.1695 H         1 UNK         0.0600 
    147 H147       -0.7410  -25.0352  -42.5242 H         1 UNK         0.0600 
    148 H148        0.2128  -23.6308  -42.0598 H         1 UNK         0.0600 
    149 H149       -1.1357  -21.5762  -41.7615 H         1 UNK         0.3000 
    150 H150       -2.5712  -18.7015  -43.1084 H         1 UNK         0.0600 
    151 H151       -4.5123  -19.3017  -41.7025 H         1 UNK         0.0600 
    152 H152       -3.4620  -18.1830  -40.8466 H         1 UNK         0.0600 
    153 H153       -3.4563  -19.8973  -40.4303 H         1 UNK         0.0600 
    154 H154       -0.5742  -18.4190  -42.2867 H         1 UNK         0.3000 
    155 H155        1.0404  -19.1776  -39.2381 H         1 UNK         0.0600 
    156 H156        1.9475  -19.5198  -42.1471 H         1 UNK         0.0600 
    157 H157        2.1014  -20.7112  -40.8645 H         1 UNK         0.0600 
    158 H158        3.0032  -19.2055  -40.7729 H         1 UNK         0.0600 
    159 H159        1.3509  -17.2184  -41.3651 H         1 UNK         0.3000 
    160 H160       -0.6370  -14.7113  -39.7760 H         1 UNK         0.0600 
    161 H161        1.4517  -13.3981  -39.9314 H         1 UNK         0.0600 
    162 H162        2.4041  -14.8696  -40.1188 H         1 UNK         0.0600 
    163 H163        1.5675  -14.5443  -38.6054 H         1 UNK         0.0600 
    164 H164        0.9762  -14.6642  -42.1312 H         1 UNK         0.3000 
    165 H165       -1.4444  -16.0226  -44.3763 H         1 UNK         0.0600 
    166 H166       -1.0425  -13.8650  -45.5425 H         1 UNK         0.0600 
    167 H167       -2.1094  -13.6234  -44.1667 H         1 UNK         0.0600 
    168 H168       -0.4157  -13.1513  -44.0592 H         1 UNK         0.0600 
    169 H169        1.1108  -14.9455  -44.8907 H         1 UNK         0.3000 
    170 H170        3.0294  -17.9365  -44.2951 H         1 UNK         0.0600 
    171 H171        2.1672  -18.0066  -46.5952 H         1 UNK         0.0600 
    172 H172        2.2188  -16.2573  -46.7308 H         1 UNK         0.0600 
    173 H173        3.7126  -17.1830  -46.5933 H         1 UNK         0.0600 
    174 H174        3.6711  -15.1912  -44.9482 H         1 UNK         0.3000 
    175 H175        4.4885  -14.1601  -41.6679 H         1 UNK         0.0600 
    176 H176        6.7337  -13.7934  -42.6573 H         1 UNK         0.0600 
    177 H177        6.4990  -15.4980  -42.3048 H         1 UNK         0.0600 
    178 H178        6.3745  -14.9235  -43.9635 H         1 UNK         0.0600 
    179 H179        4.8659  -12.9732  -44.2505 H         1 UNK         0.3000 
    180 H180        1.6749  -11.3494  -44.3856 H         1 UNK         0.0600 
    181 H181        4.5587  -10.3649  -44.0617 H         1 UNK         0.0600 
    182 H182        3.2298   -9.9880  -42.9716 H         1 UNK         0.0600 
    183 H183        3.1851   -9.4165  -44.6312 H         1 UNK         0.0600 
    184 H184        3.7102  -11.2250  -46.2825 H         1 UNK         0.3000 
    185 H185        3.0776  -11.9610  -48.3813 H         1 UNK         0.0600 
    186 H186        3.9191  -14.8858  -47.8817 H         1 UNK         0.0600 
    187 H187        4.3018  -13.9492  -49.3228 H         1 UNK         0.0600 
    188 H188        4.9796  -13.4858  -47.7692 H         1 UNK         0.0600 
    189 H189        1.1128  -14.0467  -47.9991 H         1 UNK         0.3000 
    190 H190       -2.4543  -21.6410  -46.5905 H         1 UNK         0.3000 
    191 H191       -2.8234  -22.0956  -49.3624 H         1 UNK         0.0600 
    192 H192       -4.4998  -20.9503  -47.9517 H         1 UNK         0.0600 
    193 H193       -4.7473  -22.4019  -46.9922 H         1 UNK         0.0600 
    194 H194       -5.2450  -22.3650  -48.6747 H         1 UNK         0.0600 
    195 H195       -2.9392  -24.3155  -46.5861 H         1 UNK         0.3000 
    196 H196       -3.7323  -26.6453  -48.1543 H         1 UNK         0.0600 
    197 H197       -3.5211  -27.8087  -45.9621 H         1 UNK         0.0600 
    198 H198       -4.5088  -26.3638  -45.8102 H         1 UNK         0.0600 
    199 H199       -2.8430  -26.3590  -45.2324 H         1 UNK         0.0600 
    200 H200       -0.7525  -25.3166  -46.7036 H         1 UNK         0.3000 
    201 H201        0.9715  -27.4981  -47.2495 H         1 UNK         0.0600 
    202 H202        1.4930  -25.6320  -45.6646 H         1 UNK         0.0600 
    203 H203        1.6477  -24.5192  -47.0235 H         1 UNK         0.0600 
    204 H204        2.7767  -25.8541  -46.8451 H         1 UNK         0.0600 
    205 H205        0.1477  -24.6127  -49.2273 H         1 UNK         0.3000 
    206 H206        1.7814  -25.3165  -51.4904 H         1 UNK         0.0600 
    207 H207        0.9979  -23.0028  -51.0835 H         1 UNK         0.0600 
    208 H208        0.3839  -23.5689  -52.6300 H         1 UNK         0.0600 
    209 H209       -0.6822  -23.5113  -51.2271 H         1 UNK         0.0600 
    210 H210       -1.4110  -26.2501  -50.4132 H         1 UNK         0.3000 
    211 H211       -2.9736  -27.6569  -51.0406 H         1 UNK         0.0600 
    212 H212       -0.8881  -28.9821  -52.8500 H         1 UNK         0.0600 
    213 H213       -2.3623  -29.7162  -52.2355 H         1 UNK         0.0600 
    214 H214       -1.0741  -29.2870  -51.1229 H         1 UNK         0.0600 
    215 H215       -2.5895  -25.1767  -52.5747 H         1 UNK         0.3000 
    216 H216       -4.5560  -25.6334  -54.7087 H         1 UNK         0.0600 
    217 H217       -3.1399  -24.5254  -56.4363 H         1 UNK         0.0600 
    218 H218       -2.3592  -25.9908  -55.8701 H         1 UNK         0.0600 
    219 H219       -1.7970  -24.4206  -55.3014 H         1 UNK         0.0600 
    220 H220       -4.5373  -24.3809  -52.0850 H         1 UNK         0.3000 
    221 H221       -5.1918  -22.5866  -50.9642 H         1 UNK         0.0600 
    222 H222       -6.4294  -21.6576  -53.6071 H         1 UNK         0.0600 
    223 H223       -7.1488  -22.8421  -52.5182 H         1 UNK         0.0600 
    224 H224       -6.9300  -21.1862  -51.9908 H         1 UNK         0.0600 
    225 H225       -2.5773  -22.4661  -52.0926 H         1 UNK         0.3000 
    226 H226       -0.7588  -21.2467  -52.4078 H         1 UNK         0.0600 
    227 H227       -1.3874  -20.3068  -50.1788 H         1 UNK         0.0600 
    228 H228       -0.5129  -19.1361  -51.1505 H         1 UNK         0.0600 
    229 H229       -2.2550  -18.9930  -50.9763 H         1 UNK         0.0600 
    230 H230       -3.1231  -20.9543  -54.3888 H         1 UNK         0.3000 
    231 H231       -3.8119  -19.8996  -56.1809 H         1 UNK         0.0600 
    232 H232       -1.4619  -20.2223  -57.0124 H         1 UNK         0.0600 
    233 H233       -1.0378  -18.6181  -56.4157 H         1 UNK         0.0600 
    234 H234       -2.2242  -18.7983  -57.6990 H         1 UNK         0.0600 
    235 H235       -4.0359  -18.6329  -53.4855 H         1 UNK         0.3000 
    236 H236       -4.3747  -15.7398  -54.1803 H         1 UNK         0.0600 
    237 H237       -4.0263  -15.3780  -51.7408 H         1 UNK         0.0600 
    238 H238       -3.8135  -17.1065  -51.4959 H         1 UNK         0.0600 
    239 H239       -2.6464  -16.2041  -52.4497 H         1 UNK         0.0600 
    240 H240       -5.8130  -18.5436  -52.4344 H         1 UNK         0.3000 
    241 H241       -8.3929  -17.0613  -52.1951 H         1 UNK         0.0600 
    242 H242       -8.6723  -19.9176  -54.8890 H         1 UNK         0.3800 
    243 H243       -7.2126  -19.0284  -54.5366 H         1 UNK         0.3800 
    244 H244       -8.9645  -18.5945  -50.3761 H         1 UNK         0.0800 
    245 H245       -7.4856  -19.4873  -50.5858 H         1 UNK         0.0800 
    246 H246       -5.2662  -18.7884  -50.0495 H         1 UNK         0.0800 
    247 H247       -5.8077  -18.9963  -48.4009 H         1 UNK         0.0800 
@<TRIPOS>BOND
     1    1    2 1    
     2    1  127 1    
     3    1  128 1    
     4    1  129 1    
     5    2    3 2    
     6    2    4 am   BACKBONE|DICT|INTERRES
     7    4    5 1    
     8    4  130 1    
     9    5    6 1    
    10    5   65 1    
    11    5  131 1    
    12    6    7 1    
    13    6  132 1    
    14    6  133 1    
    15    7    8 1    
    16    8    9 1    
    17    8  134 1    
    18    8  135 1    
    19    9   10 ar   
    20    9   14 ar   
    21   10   11 ar   
    22   10  136 1    
    23   11   12 ar   
    24   11  126 1    
    25   12   13 ar   
    26   12  137 1    
    27   13   14 ar   
    28   13   15 1    
    29   14  138 1    
    30   15   16 1    
    31   15  139 1    
    32   15  140 1    
    33   16   17 1    
    34   17   18 1    
    35   17  141 1    
    36   17  142 1    
    37   18   19 1    
    38   18   67 1    
    39   18  143 1    
    40   19   20 am   BACKBONE|DICT|INTERRES
    41   19  144 1    
    42   20   21 2    
    43   20   22 1    
    44   22   23 1    
    45   22   24 1    
    46   22  145 1    
    47   23  146 1    
    48   23  147 1    
    49   23  148 1    
    50   24   25 am   BACKBONE|DICT|INTERRES
    51   24  149 1    
    52   25   26 2    
    53   25   27 1    
    54   27   28 1    
    55   27   29 1    
    56   27  150 1    
    57   28  151 1    
    58   28  152 1    
    59   28  153 1    
    60   29   30 am   BACKBONE|DICT|INTERRES
    61   29  154 1    
    62   30   31 2    
    63   30   32 1    
    64   32   33 1    
    65   32   34 1    
    66   32  155 1    
    67   33  156 1    
    68   33  157 1    
    69   33  158 1    
    70   34   35 am   BACKBONE|DICT|INTERRES
    71   34  159 1    
    72   35   36 2    
    73   35   37 1    
    74   37   38 1    
    75   37   39 1    
    76   37  160 1    
    77   38  161 1    
    78   38  162 1    
    79   38  163 1    
    80   39   40 am   BACKBONE|DICT|INTERRES
    81   39  164 1    
    82   40   41 2    
    83   40   42 1    
    84   42   43 1    
    85   42   44 1    
    86   42  165 1    
    87   43  166 1    
    88   43  167 1    
    89   43  168 1    
    90   44   45 am   BACKBONE|DICT|INTERRES
    91   44  169 1    
    92   45   46 2    
    93   45   47 1    
    94   47   48 1    
    95   47   49 1    
    96   47  170 1    
    97   48  171 1    
    98   48  172 1    
    99   48  173 1    
   100   49   50 am   BACKBONE|DICT|INTERRES
   101   49  174 1    
   102   50   51 2    
   103   50   52 1    
   104   52   53 1    
   105   52   54 1    
   106   52  175 1    
   107   53  176 1    
   108   53  177 1    
   109   53  178 1    
   110   54   55 am   BACKBONE|DICT|INTERRES
   111   54  179 1    
   112   55   56 2    
   113   55   57 1    
   114   57   58 1    
   115   57   59 1    
   116   57  180 1    
   117   58  181 1    
   118   58  182 1    
   119   58  183 1    
   120   59   60 am   BACKBONE|DICT|INTERRES
   121   59  184 1    
   122   60   61 2    
   123   60   62 1    
   124   62   63 1    
   125   62   64 1    
   126   62  185 1    
   127   63  186 1    
   128   63  187 1    
   129   63  188 1    
   130   64   65 am   BACKBONE|DICT|INTERRES
   131   64  189 1    
   132   65   66 2    
   133   67   68 2    
   134   67   69 am   BACKBONE|DICT|INTERRES
   135   69   70 1    
   136   69  190 1    
   137   70   71 1    
   138   70   72 1    
   139   70  191 1    
   140   71  192 1    
   141   71  193 1    
   142   71  194 1    
   143   72   73 2    
   144   72   74 am   BACKBONE|DICT|INTERRES
   145   74   75 1    
   146   74  195 1    
   147   75   76 1    
   148   75   77 1    
   149   75  196 1    
   150   76  197 1    
   151   76  198 1    
   152   76  199 1    
   153   77   78 2    
   154   77   79 am   BACKBONE|DICT|INTERRES
   155   79   80 1    
   156   79  200 1    
   157   80   81 1    
   158   80   82 1    
   159   80  201 1    
   160   81  202 1    
   161   81  203 1    
   162   81  204 1    
   163   82   83 2    
   164   82   84 am   BACKBONE|DICT|INTERRES
   165   84   85 1    
   166   84  205 1    
   167   85   86 1    
   168   85   87 1    
   169   85  206 1    
   170   86  207 1    
   171   86  208 1    
   172   86  209 1    
   173   87   88 2    
   174   87   89 am   BACKBONE|DICT|INTERRES
   175   89   90 1    
   176   89  210 1    
   177   90   91 1    
   178   90   92 1    
   179   90  211 1    
   180   91  212 1    
   181   91  213 1    
   182   91  214 1    
   183   92   93 2    
   184   92   94 am   BACKBONE|DICT|INTERRES
   185   94   95 1    
   186   94  215 1    
   187   95   96 1    
   188   95   97 1    
   189   95  216 1    
   190   96  217 1    
   191   96  218 1    
   192   96  219 1    
   193   97   98 2    
   194   97   99 am   BACKBONE|DICT|INTERRES
   195   99  100 1    
   196   99  220 1    
   197  100  101 1    
   198  100  102 1    
   199  100  221 1    
   200  101  222 1    
   201  101  223 1    
   202  101  224 1    
   203  102  103 2    
   204  102  104 am   BACKBONE|DICT|INTERRES
   205  104  105 1    
   206  104  225 1    
   207  105  106 1    
   208  105  107 1    
   209  105  226 1    
   210  106  227 1    
   211  106  228 1    
   212  106  229 1    
   213  107  108 2    
   214  107  109 am   BACKBONE|DICT|INTERRES
   215  109  110 1    
   216  109  230 1    
   217  110  111 1    
   218  110  112 1    
   219  110  231 1    
   220  111  232 1    
   221  111  233 1    
   222  111  234 1    
   223  112  113 2    
   224  112  114 am   BACKBONE|DICT|INTERRES
   225  114  115 1    
   226  114  235 1    
   227  115  116 1    
   228  115  117 1    
   229  115  236 1    
   230  116  237 1    
   231  116  238 1    
   232  116  239 1    
   233  117  118 2    
   234  117  119 am   BACKBONE|DICT|INTERRES
   235  119  120 1    
   236  119  240 1    
   237  120  121 1    
   238  120  124 1    
   239  120  241 1    
   240  121  122 am   BACKBONE|DICT|INTERRES
   241  121  123 2    
   242  122  242 1    
   243  122  243 1    
   244  124  125 1    
   245  124  244 1    
   246  124  245 1    
   247  125  126 1    
   248  126  246 1    
   249  126  247 1    
@<TRIPOS>SUBSTRUCTURE
     1 UNK         1 GROUP             0       ****    0 ROOT    
