@<TRIPOS>MOLECULE
3R540
247   249    1
SMALL
USER_CHARGES


@<TRIPOS>ATOM
      1 CA         -1.0287  -11.6568  -44.2958 C.3       0 UNK        -0.1800 
      2 C           0.1078  -11.1571  -45.1751 C.2       0 UNK         0.5000 
      3 O           1.0301  -10.5116  -44.6776 O.2       0 UNK        -0.5000 
      4 N           0.0596  -11.4651  -46.4784 N.am      1 UNK        -0.5000 
      5 CA          1.0424  -11.0421  -47.4883 C.3       1 UNK         0.1400 
      6 C6          0.5382  -11.2980  -48.9304 C.3       23 UNK        -0.0398 
      7 S7          0.1655  -13.0499  -49.3013 S.3       23 UNK        -0.2404 
      8 C8          1.6021  -13.4828  -50.3291 C.3       23 UNK        -0.0205 
      9 C9          1.5265  -14.9222  -50.8081 C.ar      23 UNK        -0.0193 
     10 C10         0.8979  -15.2286  -52.0180 C.ar      23 UNK        -0.1150 
     11 C11         0.8486  -16.5472  -52.4794 C.ar      23 UNK        -0.0193 
     12 C12         1.4277  -17.5627  -51.7128 C.ar      23 UNK        -0.1150 
     13 C13         2.0347  -17.2750  -50.4869 C.ar      23 UNK        -0.0193 
     14 C14         2.0953  -15.9477  -50.0484 C.ar      23 UNK        -0.1150 
     15 C15         2.6300  -18.4066  -49.6557 C.3       23 UNK        -0.0205 
     16 S16         2.1613  -18.3459  -47.8940 S.3       23 UNK        -0.2404 
     17 C17         0.3418  -18.4923  -47.9523 C.3       23 UNK        -0.0398 
     18 CA         -0.1688  -19.9157  -47.6232 C.3       11 UNK         0.1400 
     19 N           0.2146  -20.3747  -46.2824 N.am      11 UNK        -0.5000 
     20 C           0.0275  -21.6208  -45.8232 C.2       10 UNK         0.5000 
     21 O          -0.4387  -22.5340  -46.5039 O.2       10 UNK        -0.5000 
     22 CA          0.3595  -21.8834  -44.3423 C.3       10 UNK         0.1400 
     23 CB          1.8621  -22.1300  -44.1403 C.3       10 UNK        -0.1800 
     24 N          -0.0985  -20.8034  -43.4665 N.am      10 UNK        -0.5000 
     25 C          -1.3893  -20.5055  -43.2577 C.2       9 UNK         0.5000 
     26 O          -2.3211  -21.1448  -43.7438 O.2       9 UNK        -0.5000 
     27 CA         -1.6990  -19.2651  -42.4002 C.3       9 UNK         0.1400 
     28 CB         -1.6362  -19.6087  -40.9048 C.3       9 UNK        -0.1800 
     29 N          -0.8104  -18.1397  -42.6876 N.am      9 UNK        -0.5000 
     30 C          -0.7338  -17.5122  -43.8700 C.2       8 UNK         0.5000 
     31 O          -1.4550  -17.7745  -44.8322 O.2       8 UNK        -0.5000 
     32 CA          0.3803  -16.4615  -44.0274 C.3       8 UNK         0.1400 
     33 CB         -0.0469  -15.1075  -43.4443 C.3       8 UNK        -0.1800 
     34 N           1.6439  -16.8818  -43.4207 N.am      8 UNK        -0.5000 
     35 C           2.3346  -17.9701  -43.7895 C.2       7 UNK         0.5000 
     36 O           1.9764  -18.7347  -44.6814 O.2       7 UNK        -0.5000 
     37 CA          3.6008  -18.2964  -42.9845 C.3       7 UNK         0.1400 
     38 CB          4.7731  -17.3989  -43.4051 C.3       7 UNK        -0.1800 
     39 N           3.3612  -18.1707  -41.5487 N.am      7 UNK        -0.5000 
     40 C           2.5961  -19.0142  -40.8410 C.2       6 UNK         0.5000 
     41 O           2.0589  -20.0150  -41.3163 O.2       6 UNK        -0.5000 
     42 CA          2.3623  -18.6544  -39.3628 C.3       6 UNK         0.1400 
     43 CB          3.5154  -19.1715  -38.4898 C.3       6 UNK        -0.1800 
     44 N           2.2026  -17.2141  -39.1533 N.am      6 UNK        -0.5000 
     45 C           1.1682  -16.4949  -39.6109 C.2       5 UNK         0.5000 
     46 O           0.2275  -16.9740  -40.2424 O.2       5 UNK        -0.5000 
     47 CA          1.2162  -14.9779  -39.3588 C.3       5 UNK         0.1400 
     48 CB          0.6641  -14.6432  -37.9653 C.3       5 UNK        -0.1800 
     49 N           2.5576  -14.4053  -39.5030 N.am      5 UNK        -0.5000 
     50 C           3.2608  -14.3996  -40.6424 C.2       4 UNK         0.5000 
     51 O           2.8849  -14.9431  -41.6838 O.2       4 UNK        -0.5000 
     52 CA          4.6195  -13.6823  -40.6129 C.3       4 UNK         0.1400 
     53 CB          5.7761  -14.6918  -40.6600 C.3       4 UNK        -0.1800 
     54 N           4.7231  -12.7728  -41.7496 N.am      4 UNK        -0.5000 
     55 C           4.1073  -11.5884  -41.8300 C.2       3 UNK         0.5000 
     56 O           3.4853  -11.0815  -40.8952 O.2       3 UNK        -0.5000 
     57 CA          4.1729  -10.8498  -43.1787 C.3       3 UNK         0.1400 
     58 CB          5.5347  -10.1591  -43.3855 C.3       3 UNK        -0.1800 
     59 N           3.7941  -11.6781  -44.3302 N.am      3 UNK        -0.5000 
     60 C           4.4491  -12.7034  -44.8986 C.2       2 UNK         0.5000 
     61 O           5.5285  -13.1315  -44.4878 O.2       2 UNK        -0.5000 
     62 CA          3.7867  -13.3899  -46.1148 C.3       2 UNK         0.1400 
     63 CB          3.4875  -14.8641  -45.8079 C.3       2 UNK        -0.1800 
     64 N           2.5427  -12.7461  -46.5385 N.am      2 UNK        -0.5000 
     65 C           2.4583  -11.6222  -47.2634 C.2       1 UNK         0.5000 
     66 O           3.4366  -11.0333  -47.7240 O.2       1 UNK        -0.5000 
     67 C          -1.6948  -20.0018  -47.8385 C.2       11 UNK         0.5000 
     68 O          -2.1306  -20.4695  -48.8899 O.2       11 UNK        -0.5000 
     69 N          -2.4796  -19.5889  -46.8319 N.am      12 UNK        -0.5000 
     70 CA         -3.9403  -19.6838  -46.8285 C.3       12 UNK         0.1400 
     71 CB         -4.5088  -18.9236  -45.6214 C.3       12 UNK        -0.1800 
     72 C          -4.4421  -21.1389  -46.8480 C.2       12 UNK         0.5000 
     73 O          -5.3697  -21.4472  -47.5958 O.2       12 UNK        -0.5000 
     74 N          -3.8007  -22.0158  -46.0626 N.am      13 UNK        -0.5000 
     75 CA         -4.0669  -23.4546  -46.0421 C.3       13 UNK         0.1400 
     76 CB         -3.2866  -24.1157  -44.8965 C.3       13 UNK        -0.1800 
     77 C          -3.7476  -24.1297  -47.3875 C.2       13 UNK         0.5000 
     78 O          -4.5435  -24.9415  -47.8584 O.2       13 UNK        -0.5000 
     79 N          -2.6206  -23.7489  -48.0057 N.am      14 UNK        -0.5000 
     80 CA         -2.2248  -24.1873  -49.3440 C.3       14 UNK         0.1400 
     81 CB         -0.7989  -23.7077  -49.6520 C.3       14 UNK        -0.1800 
     82 C          -3.2172  -23.7294  -50.4284 C.2       14 UNK         0.5000 
     83 O          -3.6100  -24.5431  -51.2626 O.2       14 UNK        -0.5000 
     84 N          -3.6545  -22.4636  -50.3596 N.am      15 UNK        -0.5000 
     85 CA         -4.6670  -21.8836  -51.2443 C.3       15 UNK         0.1400 
     86 CB         -4.7895  -20.3767  -50.9660 C.3       15 UNK        -0.1800 
     87 C          -6.0412  -22.5685  -51.1240 C.2       15 UNK         0.5000 
     88 O          -6.7146  -22.7566  -52.1362 O.2       15 UNK        -0.5000 
     89 N          -6.4258  -22.9421  -49.8957 N.am      16 UNK        -0.5000 
     90 CA         -7.6497  -23.6873  -49.6037 C.3       16 UNK         0.1400 
     91 CB         -7.9341  -23.6305  -48.0950 C.3       16 UNK        -0.1800 
     92 C          -7.5926  -25.1466  -50.0950 C.2       16 UNK         0.5000 
     93 O          -8.6063  -25.6650  -50.5648 O.2       16 UNK        -0.5000 
     94 N          -6.4199  -25.7837  -49.9718 N.am      17 UNK        -0.5000 
     95 CA         -6.1697  -27.1547  -50.4175 C.3       17 UNK         0.1400 
     96 CB         -4.8806  -27.6748  -49.7628 C.3       17 UNK        -0.1800 
     97 C          -6.0896  -27.2845  -51.9501 C.2       17 UNK         0.5000 
     98 O          -6.5630  -28.2814  -52.4984 O.2       17 UNK        -0.5000 
     99 N          -5.4828  -26.2896  -52.6099 N.am      18 UNK        -0.5000 
    100 CA        -5.3276  -26.2119  -54.0615 C.3       18 UNK         0.1400 
    101 CB        -4.3611  -25.0664  -54.3951 C.3       18 UNK        -0.1800 
    102 C         -6.6630  -26.0126  -54.8025 C.2       18 UNK         0.5000 
    103 O         -7.6120  -25.4544  -54.2473 O.2       18 UNK        -0.5000 
    104 N         -6.6954  -26.4479  -56.0684 N.am      19 UNK        -0.5000 
    105 CA        -7.8420  -26.2910  -56.9668 C.3       19 UNK         0.1400 
    106 CB        -7.6790  -27.2487  -58.1574 C.3       19 UNK        -0.1800 
    107 C         -8.0298  -24.8434  -57.4628 C.2       19 UNK         0.5000 
    108 O         -9.1551  -24.4557  -57.7803 O.2       19 UNK        -0.5000 
    109 N         -6.9361  -24.0747  -57.5213 N.am      20 UNK        -0.5000 
    110 CA        -6.8946  -22.6770  -57.9338 C.3       20 UNK         0.1400 
    111 CB        -6.9728  -22.5759  -59.4692 C.3       20 UNK        -0.1800 
    112 C         -5.6000  -22.0399  -57.4098 C.2       20 UNK         0.5000 
    113 O         -4.6325  -22.7563  -57.1327 O.2       20 UNK        -0.5000 
    114 N         -5.6061  -20.7029  -57.3161 N.am      21 UNK        -0.5000 
    115 CA        -4.5059  -19.8444  -56.8635 C.3       21 UNK         0.1400 
    116 CB        -3.3655  -19.8429  -57.9078 C.3       21 UNK        -0.1800 
    117 C         -4.0455  -20.1821  -55.4269 C.2       21 UNK         0.5000 
    118 O         -4.8831  -20.5128  -54.5853 O.2       21 UNK        -0.5000 
    119 N         -2.7375  -20.0791  -55.1679 N.am      22 UNK        -0.5000 
    120 CA        -2.1035  -20.4082  -53.8801 C.3       22 UNK         0.1400 
    121 C         -1.6493  -21.8950  -53.7721 C.2       22 UNK         0.5000 
    122 N         -1.9488  -22.7580  -54.7353 N.am      22 UNK        -0.7600 
    123 O         -1.0078  -22.2748  -52.7980 O.2       22 UNK        -0.5000 
    124 C124       -0.9445  -19.4387  -53.5320 C.3       23 UNK        -0.0398 
    125 S125       -1.4304  -17.6781  -53.5967 S.3       23 UNK        -0.2404 
    126 C126        0.1860  -16.8658  -53.8127 C.3       23 UNK        -0.0205 
    127 H127       -1.6616  -12.3727  -44.8204 H         1 UNK         0.0600 
    128 H128       -1.6497  -10.8198  -43.9773 H         1 UNK         0.0600 
    129 H129       -0.6303  -12.1423  -43.4051 H         1 UNK         0.0600 
    130 H130       -0.7133  -12.0117  -46.8324 H         1 UNK         0.3000 
    131 H131        1.1470   -9.9603  -47.3796 H         1 UNK         0.0600 
    132 H132        1.2505  -10.9059  -49.6586 H         1 UNK         0.0800 
    133 H133       -0.3774  -10.7282  -49.0942 H         1 UNK         0.0800 
    134 H134        1.6532  -12.8097  -51.1864 H         1 UNK         0.0800 
    135 H135        2.5204  -13.3288  -49.7605 H         1 UNK         0.0800 
    136 H136        0.4536  -14.4361  -52.6040 H         1 UNK         0.1150 
    137 H137        1.4027  -18.5816  -52.0699 H         1 UNK         0.1150 
    138 H138        2.5768  -15.7132  -49.1096 H         1 UNK         0.1150 
    139 H139        2.3361  -19.3780  -50.0564 H         1 UNK         0.0800 
    140 H140        3.7169  -18.3579  -49.7301 H         1 UNK         0.0800 
    141 H141       -0.0106  -18.1801  -48.9367 H         1 UNK         0.0800 
    142 H142       -0.0701  -17.7700  -47.2460 H         1 UNK         0.0800 
    143 H143        0.2900  -20.6022  -48.3381 H         1 UNK         0.0600 
    144 H144        0.6721  -19.6946  -45.6796 H         1 UNK         0.3000 
    145 H145       -0.1662  -22.7930  -44.0446 H         1 UNK         0.0600 
    146 H146        2.0877  -22.3549  -43.0977 H         1 UNK         0.0600 
    147 H147        2.1987  -22.9785  -44.7370 H         1 UNK         0.0600 
    148 H148        2.4614  -21.2688  -44.4330 H         1 UNK         0.0600 
    149 H149        0.6163  -20.2397  -43.0229 H         1 UNK         0.3000 
    150 H150       -2.7182  -18.9493  -42.6315 H         1 UNK         0.0600 
    151 H151       -2.2983  -20.4421  -40.6668 H         1 UNK         0.0600 
    152 H152       -1.9472  -18.7617  -40.2931 H         1 UNK         0.0600 
    153 H153       -0.6286  -19.8905  -40.5980 H         1 UNK         0.0600 
    154 H154       -0.2197  -17.8212  -41.9246 H         1 UNK         0.3000 
    155 H155        0.5587  -16.3290  -45.0966 H         1 UNK         0.0600 
    156 H156       -0.2252  -15.1706  -42.3708 H         1 UNK         0.0600 
    157 H157       -0.9683  -14.7571  -43.9106 H         1 UNK         0.0600 
    158 H158        0.7161  -14.3470  -43.6117 H         1 UNK         0.0600 
    159 H159        2.0228  -16.2836  -42.6907 H         1 UNK         0.3000 
    160 H160        3.8774  -19.3317  -43.1954 H         1 UNK         0.0600 
    161 H161        4.5424  -16.3418  -43.2748 H         1 UNK         0.0600 
    162 H162        5.0161  -17.5520  -44.4571 H         1 UNK         0.0600 
    163 H163        5.6707  -17.6227  -42.8287 H         1 UNK         0.0600 
    164 H164        3.7201  -17.3436  -41.0964 H         1 UNK         0.3000 
    165 H165        1.4425  -19.1483  -39.0421 H         1 UNK         0.0600 
    166 H166        3.3219  -18.9888  -37.4326 H         1 UNK         0.0600 
    167 H167        3.6457  -20.2474  -38.6139 H         1 UNK         0.0600 
    168 H168        4.4621  -18.6942  -38.7460 H         1 UNK         0.0600 
    169 H169        2.9340  -16.7392  -38.6452 H         1 UNK         0.3000 
    170 H170        0.5723  -14.5018  -40.1010 H         1 UNK         0.0600 
    171 H171       -0.3428  -15.0434  -37.8381 H         1 UNK         0.0600 
    172 H172        1.2861  -15.0612  -37.1729 H         1 UNK         0.0600 
    173 H173        0.6048  -13.5653  -37.8130 H         1 UNK         0.0600 
    174 H174        2.9353  -13.9375  -38.6916 H         1 UNK         0.3000 
    175 H175        4.7049  -13.1075  -39.6883 H         1 UNK         0.0600 
    176 H176        5.7050  -15.4098  -39.8421 H         1 UNK         0.0600 
    177 H177        5.7860  -15.2535  -41.5935 H         1 UNK         0.0600 
    178 H178        6.7383  -14.1879  -40.5673 H         1 UNK         0.0600 
    179 H179        5.1671  -13.1278  -42.5913 H         1 UNK         0.3000 
    180 H180        3.4193  -10.0618  -43.1359 H         1 UNK         0.0600 
    181 H181        6.3597  -10.8715  -43.4054 H         1 UNK         0.0600 
    182 H182        5.7365   -9.4544  -42.5780 H         1 UNK         0.0600 
    183 H183        5.5533   -9.5973  -44.3194 H         1 UNK         0.0600 
    184 H184        2.8886  -11.4368  -44.7181 H         1 UNK         0.3000 
    185 H185        4.4990  -13.3519  -46.9415 H         1 UNK         0.0600 
    186 H186        4.4088  -15.4159  -45.6217 H         1 UNK         0.0600 
    187 H187        2.8602  -14.9614  -44.9229 H         1 UNK         0.0600 
    188 H188        2.9801  -15.3548  -46.6388 H         1 UNK         0.0600 
    189 H189        1.6832  -13.1605  -46.2094 H         1 UNK         0.3000 
    190 H190       -2.0502  -19.1618  -46.0154 H         1 UNK         0.3000 
    191 H191       -4.3054  -19.1969  -47.7350 H         1 UNK         0.0600 
    192 H192       -4.1640  -19.3473  -44.6784 H         1 UNK         0.0600 
    193 H193       -5.5990  -18.9572  -45.6176 H         1 UNK         0.0600 
    194 H194       -4.2153  -17.8740  -45.6431 H         1 UNK         0.0600 
    195 H195       -3.0879  -21.6748  -45.4234 H         1 UNK         0.3000 
    196 H196       -5.1325  -23.5920  -45.8478 H         1 UNK         0.0600 
    197 H197       -3.4897  -25.1864  -44.8532 H         1 UNK         0.0600 
    198 H198       -3.5682  -23.6918  -43.9325 H         1 UNK         0.0600 
    199 H199       -2.2105  -23.9900  -45.0152 H         1 UNK         0.0600 
    200 H200       -1.9885  -23.1129  -47.5276 H         1 UNK         0.3000 
    201 H201       -2.2171  -25.2792  -49.3432 H         1 UNK         0.0600 
    202 H202       -0.0884  -24.0791  -48.9135 H         1 UNK         0.0600 
    203 H203       -0.7311  -22.6201  -49.6651 H         1 UNK         0.0600 
    204 H204       -0.4724  -24.0659  -50.6290 H         1 UNK         0.0600 
    205 H205       -3.2426  -21.8424  -49.6687 H         1 UNK         0.3000 
    206 H206       -4.3225  -22.0204  -52.2707 H         1 UNK         0.0600 
    207 H207       -3.8236  -19.8763  -51.0292 H         1 UNK         0.0600 
    208 H208       -5.4507  -19.9026  -51.6924 H         1 UNK         0.0600 
    209 H209       -5.1971  -20.1812  -49.9744 H         1 UNK         0.0600 
    210 H210       -5.8478  -22.6806  -49.1031 H         1 UNK         0.3000 
    211 H211       -8.4764  -23.1956  -50.1207 H         1 UNK         0.0600 
    212 H212       -7.1328  -24.0899  -47.5158 H         1 UNK         0.0600 
    213 H213       -8.8585  -24.1557  -47.8517 H         1 UNK         0.0600 
    214 H214       -8.0445  -22.6011  -47.7535 H         1 UNK         0.0600 
    215 H215       -5.6517  -25.3077  -49.5098 H         1 UNK         0.3000 
    216 H216       -6.9964  -27.7805  -50.0747 H         1 UNK         0.0600 
    217 H217       -4.0162  -27.0711  -50.0412 H         1 UNK         0.0600 
    218 H218       -4.6755  -28.7027  -50.0642 H         1 UNK         0.0600 
    219 H219       -4.9590  -27.6638  -48.6755 H         1 UNK         0.0600 
    220 H220       -5.0753  -25.5289  -52.0741 H         1 UNK         0.3000 
    221 H221       -4.8825  -27.1502  -54.3990 H         1 UNK         0.0600 
    222 H222       -3.3912  -25.2223  -53.9231 H         1 UNK         0.0600 
    223 H223       -4.7467  -24.1031  -54.0569 H         1 UNK         0.0600 
    224 H224       -4.1888  -24.9924  -55.4692 H         1 UNK         0.0600 
    225 H225       -5.8778  -26.8959  -56.4569 H         1 UNK         0.3000 
    226 H226       -8.7468  -26.5744  -56.4247 H         1 UNK         0.0600 
    227 H227       -7.6156  -28.2850  -57.8250 H         1 UNK         0.0600 
    228 H228       -8.5313  -27.1778  -58.8347 H         1 UNK         0.0600 
    229 H229       -6.7816  -27.0244  -58.7354 H         1 UNK         0.0600 
    230 H230       -6.0456  -24.4406  -57.2094 H         1 UNK         0.3000 
    231 H231       -7.7410  -22.1508  -57.4872 H         1 UNK         0.0600 
    232 H232       -6.1518  -23.1121  -59.9468 H         1 UNK         0.0600 
    233 H233       -6.9226  -21.5374  -59.7985 H         1 UNK         0.0600 
    234 H234       -7.9073  -22.9883  -59.8496 H         1 UNK         0.0600 
    235 H235       -6.4616  -20.2156  -57.5427 H         1 UNK         0.3000 
    236 H236       -4.9102  -18.8324  -56.8170 H         1 UNK         0.0600 
    237 H237       -2.6241  -19.0739  -57.6883 H         1 UNK         0.0600 
    238 H238       -2.8503  -20.8033  -57.9513 H         1 UNK         0.0600 
    239 H239       -3.7513  -19.6314  -58.9052 H         1 UNK         0.0600 
    240 H240       -2.1135  -19.8032  -55.9116 H         1 UNK         0.3000 
    241 H241       -2.8483  -20.2823  -53.0959 H         1 UNK         0.0600 
    242 H242       -1.6410  -23.7126  -54.6485 H         1 UNK         0.3800 
    243 H243       -2.5094  -22.4807  -55.5267 H         1 UNK         0.3800 
    244 H244       -0.1040  -19.6063  -54.2071 H         1 UNK         0.0800 
    245 H245       -0.5814  -19.6446  -52.5240 H         1 UNK         0.0800 
    246 H246        0.8491  -17.4833  -54.4198 H         1 UNK         0.0800 
    247 H247        0.0318  -15.9479  -54.3820 H         1 UNK         0.0800 
@<TRIPOS>BOND
     1    1    2 1    
     2    1  127 1    
     3    1  128 1    
     4    1  129 1    
     5    2    3 2    
     6    2    4 am   BACKBONE|DICT|INTERRES
     7    4    5 1    
     8    4  130 1    
     9    5    6 1    
    10    5   65 1    
    11    5  131 1    
    12    6    7 1    
    13    6  132 1    
    14    6  133 1    
    15    7    8 1    
    16    8    9 1    
    17    8  134 1    
    18    8  135 1    
    19    9   10 ar   
    20    9   14 ar   
    21   10   11 ar   
    22   10  136 1    
    23   11   12 ar   
    24   11  126 1    
    25   12   13 ar   
    26   12  137 1    
    27   13   14 ar   
    28   13   15 1    
    29   14  138 1    
    30   15   16 1    
    31   15  139 1    
    32   15  140 1    
    33   16   17 1    
    34   17   18 1    
    35   17  141 1    
    36   17  142 1    
    37   18   19 1    
    38   18   67 1    
    39   18  143 1    
    40   19   20 am   BACKBONE|DICT|INTERRES
    41   19  144 1    
    42   20   21 2    
    43   20   22 1    
    44   22   23 1    
    45   22   24 1    
    46   22  145 1    
    47   23  146 1    
    48   23  147 1    
    49   23  148 1    
    50   24   25 am   BACKBONE|DICT|INTERRES
    51   24  149 1    
    52   25   26 2    
    53   25   27 1    
    54   27   28 1    
    55   27   29 1    
    56   27  150 1    
    57   28  151 1    
    58   28  152 1    
    59   28  153 1    
    60   29   30 am   BACKBONE|DICT|INTERRES
    61   29  154 1    
    62   30   31 2    
    63   30   32 1    
    64   32   33 1    
    65   32   34 1    
    66   32  155 1    
    67   33  156 1    
    68   33  157 1    
    69   33  158 1    
    70   34   35 am   BACKBONE|DICT|INTERRES
    71   34  159 1    
    72   35   36 2    
    73   35   37 1    
    74   37   38 1    
    75   37   39 1    
    76   37  160 1    
    77   38  161 1    
    78   38  162 1    
    79   38  163 1    
    80   39   40 am   BACKBONE|DICT|INTERRES
    81   39  164 1    
    82   40   41 2    
    83   40   42 1    
    84   42   43 1    
    85   42   44 1    
    86   42  165 1    
    87   43  166 1    
    88   43  167 1    
    89   43  168 1    
    90   44   45 am   BACKBONE|DICT|INTERRES
    91   44  169 1    
    92   45   46 2    
    93   45   47 1    
    94   47   48 1    
    95   47   49 1    
    96   47  170 1    
    97   48  171 1    
    98   48  172 1    
    99   48  173 1    
   100   49   50 am   BACKBONE|DICT|INTERRES
   101   49  174 1    
   102   50   51 2    
   103   50   52 1    
   104   52   53 1    
   105   52   54 1    
   106   52  175 1    
   107   53  176 1    
   108   53  177 1    
   109   53  178 1    
   110   54   55 am   BACKBONE|DICT|INTERRES
   111   54  179 1    
   112   55   56 2    
   113   55   57 1    
   114   57   58 1    
   115   57   59 1    
   116   57  180 1    
   117   58  181 1    
   118   58  182 1    
   119   58  183 1    
   120   59   60 am   BACKBONE|DICT|INTERRES
   121   59  184 1    
   122   60   61 2    
   123   60   62 1    
   124   62   63 1    
   125   62   64 1    
   126   62  185 1    
   127   63  186 1    
   128   63  187 1    
   129   63  188 1    
   130   64   65 am   BACKBONE|DICT|INTERRES
   131   64  189 1    
   132   65   66 2    
   133   67   68 2    
   134   67   69 am   BACKBONE|DICT|INTERRES
   135   69   70 1    
   136   69  190 1    
   137   70   71 1    
   138   70   72 1    
   139   70  191 1    
   140   71  192 1    
   141   71  193 1    
   142   71  194 1    
   143   72   73 2    
   144   72   74 am   BACKBONE|DICT|INTERRES
   145   74   75 1    
   146   74  195 1    
   147   75   76 1    
   148   75   77 1    
   149   75  196 1    
   150   76  197 1    
   151   76  198 1    
   152   76  199 1    
   153   77   78 2    
   154   77   79 am   BACKBONE|DICT|INTERRES
   155   79   80 1    
   156   79  200 1    
   157   80   81 1    
   158   80   82 1    
   159   80  201 1    
   160   81  202 1    
   161   81  203 1    
   162   81  204 1    
   163   82   83 2    
   164   82   84 am   BACKBONE|DICT|INTERRES
   165   84   85 1    
   166   84  205 1    
   167   85   86 1    
   168   85   87 1    
   169   85  206 1    
   170   86  207 1    
   171   86  208 1    
   172   86  209 1    
   173   87   88 2    
   174   87   89 am   BACKBONE|DICT|INTERRES
   175   89   90 1    
   176   89  210 1    
   177   90   91 1    
   178   90   92 1    
   179   90  211 1    
   180   91  212 1    
   181   91  213 1    
   182   91  214 1    
   183   92   93 2    
   184   92   94 am   BACKBONE|DICT|INTERRES
   185   94   95 1    
   186   94  215 1    
   187   95   96 1    
   188   95   97 1    
   189   95  216 1    
   190   96  217 1    
   191   96  218 1    
   192   96  219 1    
   193   97   98 2    
   194   97   99 am   BACKBONE|DICT|INTERRES
   195   99  100 1    
   196   99  220 1    
   197  100  101 1    
   198  100  102 1    
   199  100  221 1    
   200  101  222 1    
   201  101  223 1    
   202  101  224 1    
   203  102  103 2    
   204  102  104 am   BACKBONE|DICT|INTERRES
   205  104  105 1    
   206  104  225 1    
   207  105  106 1    
   208  105  107 1    
   209  105  226 1    
   210  106  227 1    
   211  106  228 1    
   212  106  229 1    
   213  107  108 2    
   214  107  109 am   BACKBONE|DICT|INTERRES
   215  109  110 1    
   216  109  230 1    
   217  110  111 1    
   218  110  112 1    
   219  110  231 1    
   220  111  232 1    
   221  111  233 1    
   222  111  234 1    
   223  112  113 2    
   224  112  114 am   BACKBONE|DICT|INTERRES
   225  114  115 1    
   226  114  235 1    
   227  115  116 1    
   228  115  117 1    
   229  115  236 1    
   230  116  237 1    
   231  116  238 1    
   232  116  239 1    
   233  117  118 2    
   234  117  119 am   BACKBONE|DICT|INTERRES
   235  119  120 1    
   236  119  240 1    
   237  120  121 1    
   238  120  124 1    
   239  120  241 1    
   240  121  122 am   BACKBONE|DICT|INTERRES
   241  121  123 2    
   242  122  242 1    
   243  122  243 1    
   244  124  125 1    
   245  124  244 1    
   246  124  245 1    
   247  125  126 1    
   248  126  246 1    
   249  126  247 1    
@<TRIPOS>SUBSTRUCTURE
     1 UNK         1 GROUP             0       ****    0 ROOT    
