@<TRIPOS>MOLECULE
3R540
247   249    1
SMALL
USER_CHARGES


@<TRIPOS>ATOM
      1 CA         10.5541  -15.4308  -49.0168 C.3       0 UNK        -0.1800 
      2 C           9.1858  -16.0955  -49.0774 C.2       0 UNK         0.5000 
      3 O           9.0978  -17.2923  -49.3531 O.2       0 UNK        -0.5000 
      4 N           8.1201  -15.3241  -48.8294 N.am      1 UNK        -0.5000 
      5 CA          6.7360  -15.8000  -48.7732 C.3       1 UNK         0.1400 
      6 C6          5.7411  -14.6132  -48.8393 C.3       23 UNK        -0.0398 
      7 S7          4.0229  -15.1407  -49.1473 S.3       23 UNK        -0.2404 
      8 C8          3.9932  -15.1505  -50.9662 C.3       23 UNK        -0.0205 
      9 C9          2.8349  -15.9921  -51.4698 C.ar      23 UNK        -0.0193 
     10 C10         1.6451  -15.3921  -51.8894 C.ar      23 UNK        -0.1150 
     11 C11         0.5664  -16.1785  -52.3036 C.ar      23 UNK        -0.0193 
     12 C12         0.6817  -17.5720  -52.2866 C.ar      23 UNK        -0.1150 
     13 C13         1.8681  -18.1840  -51.8707 C.ar      23 UNK        -0.0193 
     14 C14         2.9485  -17.3842  -51.4858 C.ar      23 UNK        -0.1150 
     15 C15         1.9625  -19.7066  -51.8119 C.3       23 UNK        -0.0205 
     16 S16         2.6625  -20.3262  -50.2417 S.3       23 UNK        -0.2404 
     17 C17         1.5547  -19.5505  -49.0142 C.3       23 UNK        -0.0398 
     18 CA          0.8161  -20.5616  -48.1096 C.3       11 UNK         0.1400 
     19 N           0.2186  -19.8940  -46.9532 N.am      11 UNK        -0.5000 
     20 C          -0.2535  -20.5190  -45.8650 C.2       10 UNK         0.5000 
     21 O          -0.1855  -21.7357  -45.6960 O.2       10 UNK        -0.5000 
     22 CA         -0.9792  -19.6494  -44.8171 C.3       10 UNK         0.1400 
     23 CB          0.0152  -19.1285  -43.7737 C.3       10 UNK        -0.1800 
     24 N          -1.6860  -18.5152  -45.4137 N.am      10 UNK        -0.5000 
     25 C          -2.6894  -18.6311  -46.2974 C.2       9 UNK         0.5000 
     26 O          -3.2110  -19.7090  -46.5812 O.2       9 UNK        -0.5000 
     27 CA         -3.1494  -17.3563  -47.0355 C.3       9 UNK         0.1400 
     28 CB         -4.5119  -16.8924  -46.5028 C.3       9 UNK        -0.1800 
     29 N          -2.1886  -16.2504  -46.9639 N.am      9 UNK        -0.5000 
     30 C          -0.9450  -16.2786  -47.4696 C.2       8 UNK         0.5000 
     31 O          -0.4896  -17.2445  -48.0797 O.2       8 UNK        -0.5000 
     32 CA         -0.0253  -15.0751  -47.1782 C.3       8 UNK         0.1400 
     33 CB          0.0958  -14.1641  -48.4068 C.3       8 UNK        -0.1800 
     34 N          -0.4375  -14.2743  -46.0207 N.am      8 UNK        -0.5000 
     35 C          -0.4733  -14.7166  -44.7569 C.2       7 UNK         0.5000 
     36 O          -0.1510  -15.8633  -44.4308 O.2       7 UNK        -0.5000 
     37 CA         -0.9356  -13.7303  -43.6665 C.3       7 UNK         0.1400 
     38 CB         -1.7049  -12.4975  -44.1934 C.3       7 UNK        -0.1800 
     39 N          -1.6856  -14.4450  -42.6323 N.am      7 UNK        -0.5000 
     40 C          -2.8750  -15.0526  -42.7639 C.2       6 UNK         0.5000 
     41 O          -3.5969  -14.9194  -43.7518 O.2       6 UNK        -0.5000 
     42 CA         -3.3237  -16.0051  -41.6325 C.3       6 UNK         0.1400 
     43 CB         -3.6909  -17.3879  -42.2005 C.3       6 UNK        -0.1800 
     44 N          -2.3022  -16.1909  -40.5992 N.am      6 UNK        -0.5000 
     45 C          -2.0878  -15.3724  -39.5608 C.2       5 UNK         0.5000 
     46 O          -2.7925  -14.3965  -39.3026 O.2       5 UNK        -0.5000 
     47 CA         -0.8530  -15.6747  -38.6856 C.3       5 UNK         0.1400 
     48 CB         -1.2621  -16.4745  -37.4393 C.3       5 UNK        -0.1800 
     49 N           0.2190  -16.3965  -39.3850 N.am      5 UNK        -0.5000 
     50 C           0.9036  -15.9363  -40.4422 C.2       4 UNK         0.5000 
     51 O           0.6836  -14.8405  -40.9612 O.2       4 UNK        -0.5000 
     52 CA          2.0013  -16.8428  -41.0266 C.3       4 UNK         0.1400 
     53 CB          1.7967  -18.3444  -40.7334 C.3       4 UNK        -0.1800 
     54 N           2.1021  -16.6153  -42.4683 N.am      4 UNK        -0.5000 
     55 C           3.2316  -16.7046  -43.1764 C.2       3 UNK         0.5000 
     56 O           4.3199  -17.0290  -42.6927 O.2       3 UNK        -0.5000 
     57 CA          3.1343  -16.3281  -44.6663 C.3       3 UNK         0.1400 
     58 CB          3.2460  -14.8065  -44.8531 C.3       3 UNK        -0.1800 
     59 N           4.1888  -16.9670  -45.4444 N.am      3 UNK        -0.5000 
     60 C           4.1855  -18.2417  -45.8467 C.2       2 UNK         0.5000 
     61 O           3.2373  -19.0069  -45.6667 O.2       2 UNK        -0.5000 
     62 CA          5.4489  -18.7225  -46.5944 C.3       2 UNK         0.1400 
     63 CB          5.2903  -20.1374  -47.1791 C.3       2 UNK        -0.1800 
     64 N           5.8307  -17.8041  -47.6716 N.am      2 UNK        -0.5000 
     65 C           6.5148  -16.6635  -47.5129 C.2       1 UNK         0.5000 
     66 O           6.9243  -16.2627  -46.4202 O.2       1 UNK        -0.5000 
     67 C          -0.2488  -21.3604  -48.8880 C.2       11 UNK         0.5000 
     68 O           0.0070  -22.5019  -49.2685 O.2       11 UNK        -0.5000 
     69 N          -1.4428  -20.7718  -49.0596 N.am      12 UNK        -0.5000 
     70 CA         -2.6009  -21.4173  -49.6803 C.3       12 UNK         0.1400 
     71 CB         -3.7291  -20.3938  -49.8728 C.3       12 UNK        -0.1800 
     72 C          -3.0925  -22.6222  -48.8606 C.2       12 UNK         0.5000 
     73 O          -3.3815  -23.6697  -49.4372 O.2       12 UNK        -0.5000 
     74 N          -3.1322  -22.4685  -47.5297 N.am      13 UNK        -0.5000 
     75 CA         -3.4484  -23.5323  -46.5777 C.3       13 UNK         0.1400 
     76 CB         -3.5774  -22.9427  -45.1657 C.3       13 UNK        -0.1800 
     77 C          -2.4262  -24.6831  -46.6125 C.2       13 UNK         0.5000 
     78 O          -2.8321  -25.8438  -46.6697 O.2       13 UNK        -0.5000 
     79 N          -1.1277  -24.3471  -46.6295 N.am      14 UNK        -0.5000 
     80 CA         -0.0204  -25.3018  -46.7416 C.3       14 UNK         0.1400 
     81 CB          1.3140  -24.5697  -46.5332 C.3       14 UNK        -0.1800 
     82 C          -0.0153  -26.0715  -48.0767 C.2       14 UNK         0.5000 
     83 O           0.2743  -27.2683  -48.0882 O.2       14 UNK        -0.5000 
     84 N          -0.3675  -25.3810  -49.1691 N.am      15 UNK        -0.5000 
     85 CA         -0.5238  -25.9481  -50.5098 C.3       15 UNK         0.1400 
     86 CB         -0.4954  -24.8013  -51.5339 C.3       15 UNK        -0.1800 
     87 C          -1.8088  -26.7840  -50.6864 C.2       15 UNK         0.5000 
     88 O          -1.9303  -27.4775  -51.6970 O.2       15 UNK        -0.5000 
     89 N          -2.7459  -26.6848  -49.7297 N.am      16 UNK        -0.5000 
     90 CA         -4.1035  -27.2424  -49.7474 C.3       16 UNK         0.1400 
     91 CB         -4.0740  -28.7845  -49.7162 C.3       16 UNK        -0.1800 
     92 C          -4.9508  -26.6665  -50.9035 C.2       16 UNK         0.5000 
     93 O          -5.7165  -27.3899  -51.5430 O.2       16 UNK        -0.5000 
     94 N          -4.7785  -25.3628  -51.1477 N.am      17 UNK        -0.5000 
     95 CA         -5.3789  -24.5911  -52.2331 C.3       17 UNK         0.1400 
     96 CB         -4.2575  -24.1547  -53.1936 C.3       17 UNK        -0.1800 
     97 C          -6.1578  -23.3796  -51.6869 C.2       17 UNK         0.5000 
     98 O          -6.3906  -22.4278  -52.4294 O.2       17 UNK        -0.5000 
     99 N          -6.5539  -23.4323  -50.4055 N.am      18 UNK        -0.5000 
    100 CA        -7.1747  -22.3548  -49.6217 C.3       18 UNK         0.1400 
    101 CB        -7.3597  -22.8465  -48.1781 C.3       18 UNK        -0.1800 
    102 C         -8.4976  -21.7792  -50.1722 C.2       18 UNK         0.5000 
    103 O         -8.9236  -20.7160  -49.7195 O.2       18 UNK        -0.5000 
    104 N         -9.1183  -22.4660  -51.1404 N.am      19 UNK        -0.5000 
    105 CA       -10.2541  -21.9710  -51.9213 C.3       19 UNK         0.1400 
    106 CB       -10.8476  -23.1392  -52.7239 C.3       19 UNK        -0.1800 
    107 C         -9.8859  -20.8015  -52.8621 C.2       19 UNK         0.5000 
    108 O        -10.7760  -20.0512  -53.2653 O.2       19 UNK        -0.5000 
    109 N         -8.5962  -20.6635  -53.1919 N.am      20 UNK        -0.5000 
    110 CA        -8.0243  -19.5888  -53.9929 C.3       20 UNK         0.1400 
    111 CB        -8.1030  -19.9573  -55.4897 C.3       20 UNK        -0.1800 
    112 C         -6.5992  -19.3145  -53.4765 C.2       20 UNK         0.5000 
    113 O         -6.3938  -19.3008  -52.2602 O.2       20 UNK        -0.5000 
    114 N         -5.6454  -19.0893  -54.3946 N.am      21 UNK        -0.5000 
    115 CA        -4.1985  -18.9564  -54.1617 C.3       21 UNK         0.1400 
    116 CB        -3.5953  -20.3407  -53.8391 C.3       21 UNK        -0.1800 
    117 C         -3.8170  -17.8826  -53.1171 C.2       21 UNK         0.5000 
    118 O         -2.8599  -18.0746  -52.3718 O.2       21 UNK        -0.5000 
    119 N         -4.5984  -16.7943  -53.0823 N.am      22 UNK        -0.5000 
    120 CA        -4.5899  -15.7009  -52.0926 C.3       22 UNK         0.1400 
    121 C         -4.9804  -16.0924  -50.6321 C.2       22 UNK         0.5000 
    122 N         -5.5109  -17.2827  -50.3765 N.am      22 UNK        -0.7600 
    123 O         -4.8635  -15.2785  -49.7203 O.2       22 UNK        -0.5000 
    124 C124       -3.3740  -14.7310  -52.2132 C.3       23 UNK        -0.0398 
    125 S125       -1.8368  -15.2202  -51.3528 S.3       23 UNK        -0.2404 
    126 C126       -0.7277  -15.5258  -52.7596 C.3       23 UNK        -0.0205 
    127 H127       11.0593  -15.5233  -49.9782 H         1 UNK         0.0600 
    128 H128       11.1714  -15.9121  -48.2582 H         1 UNK         0.0600 
    129 H129       10.4799  -14.3708  -48.7723 H         1 UNK         0.0600 
    130 H130        8.2625  -14.3567  -48.5767 H         1 UNK         0.3000 
    131 H131        6.5762  -16.4262  -49.6539 H         1 UNK         0.0600 
    132 H132        5.7665  -14.0325  -47.9153 H         1 UNK         0.0800 
    133 H133        6.0321  -13.9218  -49.6317 H         1 UNK         0.0800 
    134 H134        3.9195  -14.1263  -51.3351 H         1 UNK         0.0800 
    135 H135        4.9285  -15.5556  -51.3552 H         1 UNK         0.0800 
    136 H136        1.5505  -14.3153  -51.8771 H         1 UNK         0.1150 
    137 H137       -0.1629  -18.1784  -52.5833 H         1 UNK         0.1150 
    138 H138        3.8682  -17.8469  -51.1570 H         1 UNK         0.1150 
    139 H139        0.9788  -20.1583  -51.9516 H         1 UNK         0.0800 
    140 H140        2.5841  -20.0534  -52.6380 H         1 UNK         0.0800 
    141 H141        2.1726  -18.8915  -48.4023 H         1 UNK         0.0800 
    142 H142        0.8381  -18.8989  -49.5143 H         1 UNK         0.0800 
    143 H143        1.5528  -21.2715  -47.7269 H         1 UNK         0.0600 
    144 H144        0.0790  -18.8939  -47.0456 H         1 UNK         0.3000 
    145 H145       -1.7164  -20.2742  -44.3093 H         1 UNK         0.0600 
    146 H146        0.4973  -19.9535  -43.2482 H         1 UNK         0.0600 
    147 H147        0.8017  -18.5335  -44.2375 H         1 UNK         0.0600 
    148 H148       -0.4815  -18.5066  -43.0298 H         1 UNK         0.0600 
    149 H149       -1.3064  -17.5953  -45.2245 H         1 UNK         0.3000 
    150 H150       -3.2677  -17.6157  -48.0898 H         1 UNK         0.0600 
    151 H151       -5.2705  -17.6603  -46.6587 H         1 UNK         0.0600 
    152 H152       -4.8530  -15.9909  -47.0117 H         1 UNK         0.0600 
    153 H153       -4.4764  -16.6844  -45.4343 H         1 UNK         0.0600 
    154 H154       -2.4809  -15.4329  -46.4483 H         1 UNK         0.3000 
    155 H155        0.9664  -15.4793  -46.9653 H         1 UNK         0.0600 
    156 H156        0.8147  -13.3625  -48.2369 H         1 UNK         0.0600 
    157 H157       -0.8615  -13.7131  -48.6705 H         1 UNK         0.0600 
    158 H158        0.4437  -14.7289  -49.2727 H         1 UNK         0.0600 
    159 H159       -0.7224  -13.3243  -46.2100 H         1 UNK         0.3000 
    160 H160       -0.0274  -13.3676  -43.1837 H         1 UNK         0.0600 
    161 H161       -2.5601  -12.7738  -44.8108 H         1 UNK         0.0600 
    162 H162       -1.0577  -11.8569  -44.7934 H         1 UNK         0.0600 
    163 H163       -2.0758  -11.8889  -43.3686 H         1 UNK         0.0600 
    164 H164       -1.1419  -14.6465  -41.8008 H         1 UNK         0.3000 
    165 H165       -4.2188  -15.5738  -41.1797 H         1 UNK         0.0600 
    166 H166       -2.8471  -17.8497  -42.7137 H         1 UNK         0.0600 
    167 H167       -4.0165  -18.0658  -41.4113 H         1 UNK         0.0600 
    168 H168       -4.5090  -17.3148  -42.9181 H         1 UNK         0.0600 
    169 H169       -1.6698  -16.9666  -40.7282 H         1 UNK         0.3000 
    170 H170       -0.4466  -14.7157  -38.3578 H         1 UNK         0.0600 
    171 H171       -2.0393  -15.9539  -36.8779 H         1 UNK         0.0600 
    172 H172       -1.6512  -17.4589  -37.7028 H         1 UNK         0.0600 
    173 H173       -0.4170  -16.6157  -36.7654 H         1 UNK         0.0600 
    174 H174        0.4575  -17.3061  -39.0169 H         1 UNK         0.3000 
    175 H175        2.9327  -16.5251  -40.5535 H         1 UNK         0.0600 
    176 H176        0.8067  -18.6868  -41.0330 H         1 UNK         0.0600 
    177 H177        2.5314  -18.9544  -41.2595 H         1 UNK         0.0600 
    178 H178        1.9135  -18.5586  -39.6707 H         1 UNK         0.0600 
    179 H179        1.2553  -16.2925  -42.9262 H         1 UNK         0.3000 
    180 H180        2.1728  -16.6642  -45.0552 H         1 UNK         0.0600 
    181 H181        2.4799  -14.2814  -44.2821 H         1 UNK         0.0600 
    182 H182        3.1203  -14.5278  -45.8997 H         1 UNK         0.0600 
    183 H183        4.2148  -14.4315  -44.5205 H         1 UNK         0.0600 
    184 H184        5.0367  -16.4321  -45.5902 H         1 UNK         0.3000 
    185 H185        6.2565  -18.7608  -45.8604 H         1 UNK         0.0600 
    186 H186        6.2038  -20.4650  -47.6756 H         1 UNK         0.0600 
    187 H187        5.0704  -20.8631  -46.3951 H         1 UNK         0.0600 
    188 H188        4.4788  -20.1833  -47.9044 H         1 UNK         0.0600 
    189 H189        5.4908  -18.0420  -48.5919 H         1 UNK         0.3000 
    190 H190       -1.5824  -19.8413  -48.6942 H         1 UNK         0.3000 
    191 H191       -2.2920  -21.7744  -50.6649 H         1 UNK         0.0600 
    192 H192       -4.4814  -20.7760  -50.5625 H         1 UNK         0.0600 
    193 H193       -3.3530  -19.4618  -50.2901 H         1 UNK         0.0600 
    194 H194       -4.2363  -20.1531  -48.9389 H         1 UNK         0.0600 
    195 H195       -2.9413  -21.5481  -47.1439 H         1 UNK         0.3000 
    196 H196       -4.4167  -23.9501  -46.8571 H         1 UNK         0.0600 
    197 H197       -3.8727  -23.7099  -44.4491 H         1 UNK         0.0600 
    198 H198       -4.3335  -22.1578  -45.1340 H         1 UNK         0.0600 
    199 H199       -2.6373  -22.5151  -44.8184 H         1 UNK         0.0600 
    200 H200       -0.8714  -23.3690  -46.5300 H         1 UNK         0.3000 
    201 H201       -0.1331  -26.0345  -45.9398 H         1 UNK         0.0600 
    202 H202        1.3545  -24.0954  -45.5526 H         1 UNK         0.0600 
    203 H203        1.4705  -23.7960  -47.2853 H         1 UNK         0.0600 
    204 H204        2.1543  -25.2624  -46.5942 H         1 UNK         0.0600 
    205 H205       -0.5126  -24.3785  -49.0854 H         1 UNK         0.3000 
    206 H206        0.3247  -26.6056  -50.7089 H         1 UNK         0.0600 
    207 H207        0.4367  -24.2394  -51.4715 H         1 UNK         0.0600 
    208 H208       -0.5783  -25.1800  -52.5533 H         1 UNK         0.0600 
    209 H209       -1.3181  -24.1031  -51.3753 H         1 UNK         0.0600 
    210 H210       -2.5419  -26.0806  -48.9439 H         1 UNK         0.3000 
    211 H211       -4.5794  -26.9051  -48.8256 H         1 UNK         0.0600 
    212 H212       -3.6712  -29.2040  -50.6383 H         1 UNK         0.0600 
    213 H213       -5.0777  -29.1903  -49.5852 H         1 UNK         0.0600 
    214 H214       -3.4665  -29.1491  -48.8878 H         1 UNK         0.0600 
    215 H215       -4.1549  -24.8347  -50.5363 H         1 UNK         0.3000 
    216 H216       -6.0932  -25.2020  -52.7879 H         1 UNK         0.0600 
    217 H217       -4.6606  -23.6306  -54.0610 H         1 UNK         0.0600 
    218 H218       -3.7003  -25.0150  -53.5649 H         1 UNK         0.0600 
    219 H219       -3.5498  -23.4850  -52.7029 H         1 UNK         0.0600 
    220 H220       -6.3239  -24.2706  -49.8931 H         1 UNK         0.3000 
    221 H221       -6.4689  -21.5239  -49.6032 H         1 UNK         0.0600 
    222 H222       -8.0188  -23.7141  -48.1309 H         1 UNK         0.0600 
    223 H223       -6.4054  -23.1221  -47.7321 H         1 UNK         0.0600 
    224 H224       -7.7938  -22.0686  -47.5484 H         1 UNK         0.0600 
    225 H225       -8.6965  -23.3284  -51.4508 H         1 UNK         0.3000 
    226 H226      -11.0152  -21.6088  -51.2271 H         1 UNK         0.0600 
    227 H227      -11.1734  -23.9454  -52.0663 H         1 UNK         0.0600 
    228 H228      -11.7181  -22.8171  -53.2970 H         1 UNK         0.0600 
    229 H229      -10.1243  -23.5505  -53.4291 H         1 UNK         0.0600 
    230 H230       -7.9083  -21.2940  -52.7846 H         1 UNK         0.3000 
    231 H231       -8.5946  -18.6729  -53.8263 H         1 UNK         0.0600 
    232 H232       -7.7587  -19.1384  -56.1221 H         1 UNK         0.0600 
    233 H233       -9.1297  -20.1727  -55.7860 H         1 UNK         0.0600 
    234 H234       -7.5026  -20.8389  -55.7185 H         1 UNK         0.0600 
    235 H235       -5.9252  -19.0947  -55.3653 H         1 UNK         0.3000 
    236 H236       -3.7638  -18.6211  -55.1042 H         1 UNK         0.0600 
    237 H237       -3.8262  -21.0628  -54.6221 H         1 UNK         0.0600 
    238 H238       -2.5090  -20.2922  -53.7548 H         1 UNK         0.0600 
    239 H239       -3.9809  -20.7376  -52.9001 H         1 UNK         0.0600 
    240 H240       -5.3634  -16.7638  -53.7401 H         1 UNK         0.3000 
    241 H241       -5.4480  -15.1044  -52.4040 H         1 UNK         0.0600 
    242 H242       -5.6719  -17.9629  -51.1150 H         1 UNK         0.3800 
    243 H243       -5.7932  -17.4987  -49.4361 H         1 UNK         0.3800 
    244 H244       -3.1603  -14.5384  -53.2651 H         1 UNK         0.0800 
    245 H245       -3.6584  -13.7614  -51.8020 H         1 UNK         0.0800 
    246 H246       -0.5159  -14.5832  -53.2664 H         1 UNK         0.0800 
    247 H247       -1.2273  -16.1643  -53.4892 H         1 UNK         0.0800 
@<TRIPOS>BOND
     1    1    2 1    
     2    1  127 1    
     3    1  128 1    
     4    1  129 1    
     5    2    3 2    
     6    2    4 am   BACKBONE|DICT|INTERRES
     7    4    5 1    
     8    4  130 1    
     9    5    6 1    
    10    5   65 1    
    11    5  131 1    
    12    6    7 1    
    13    6  132 1    
    14    6  133 1    
    15    7    8 1    
    16    8    9 1    
    17    8  134 1    
    18    8  135 1    
    19    9   10 ar   
    20    9   14 ar   
    21   10   11 ar   
    22   10  136 1    
    23   11   12 ar   
    24   11  126 1    
    25   12   13 ar   
    26   12  137 1    
    27   13   14 ar   
    28   13   15 1    
    29   14  138 1    
    30   15   16 1    
    31   15  139 1    
    32   15  140 1    
    33   16   17 1    
    34   17   18 1    
    35   17  141 1    
    36   17  142 1    
    37   18   19 1    
    38   18   67 1    
    39   18  143 1    
    40   19   20 am   BACKBONE|DICT|INTERRES
    41   19  144 1    
    42   20   21 2    
    43   20   22 1    
    44   22   23 1    
    45   22   24 1    
    46   22  145 1    
    47   23  146 1    
    48   23  147 1    
    49   23  148 1    
    50   24   25 am   BACKBONE|DICT|INTERRES
    51   24  149 1    
    52   25   26 2    
    53   25   27 1    
    54   27   28 1    
    55   27   29 1    
    56   27  150 1    
    57   28  151 1    
    58   28  152 1    
    59   28  153 1    
    60   29   30 am   BACKBONE|DICT|INTERRES
    61   29  154 1    
    62   30   31 2    
    63   30   32 1    
    64   32   33 1    
    65   32   34 1    
    66   32  155 1    
    67   33  156 1    
    68   33  157 1    
    69   33  158 1    
    70   34   35 am   BACKBONE|DICT|INTERRES
    71   34  159 1    
    72   35   36 2    
    73   35   37 1    
    74   37   38 1    
    75   37   39 1    
    76   37  160 1    
    77   38  161 1    
    78   38  162 1    
    79   38  163 1    
    80   39   40 am   BACKBONE|DICT|INTERRES
    81   39  164 1    
    82   40   41 2    
    83   40   42 1    
    84   42   43 1    
    85   42   44 1    
    86   42  165 1    
    87   43  166 1    
    88   43  167 1    
    89   43  168 1    
    90   44   45 am   BACKBONE|DICT|INTERRES
    91   44  169 1    
    92   45   46 2    
    93   45   47 1    
    94   47   48 1    
    95   47   49 1    
    96   47  170 1    
    97   48  171 1    
    98   48  172 1    
    99   48  173 1    
   100   49   50 am   BACKBONE|DICT|INTERRES
   101   49  174 1    
   102   50   51 2    
   103   50   52 1    
   104   52   53 1    
   105   52   54 1    
   106   52  175 1    
   107   53  176 1    
   108   53  177 1    
   109   53  178 1    
   110   54   55 am   BACKBONE|DICT|INTERRES
   111   54  179 1    
   112   55   56 2    
   113   55   57 1    
   114   57   58 1    
   115   57   59 1    
   116   57  180 1    
   117   58  181 1    
   118   58  182 1    
   119   58  183 1    
   120   59   60 am   BACKBONE|DICT|INTERRES
   121   59  184 1    
   122   60   61 2    
   123   60   62 1    
   124   62   63 1    
   125   62   64 1    
   126   62  185 1    
   127   63  186 1    
   128   63  187 1    
   129   63  188 1    
   130   64   65 am   BACKBONE|DICT|INTERRES
   131   64  189 1    
   132   65   66 2    
   133   67   68 2    
   134   67   69 am   BACKBONE|DICT|INTERRES
   135   69   70 1    
   136   69  190 1    
   137   70   71 1    
   138   70   72 1    
   139   70  191 1    
   140   71  192 1    
   141   71  193 1    
   142   71  194 1    
   143   72   73 2    
   144   72   74 am   BACKBONE|DICT|INTERRES
   145   74   75 1    
   146   74  195 1    
   147   75   76 1    
   148   75   77 1    
   149   75  196 1    
   150   76  197 1    
   151   76  198 1    
   152   76  199 1    
   153   77   78 2    
   154   77   79 am   BACKBONE|DICT|INTERRES
   155   79   80 1    
   156   79  200 1    
   157   80   81 1    
   158   80   82 1    
   159   80  201 1    
   160   81  202 1    
   161   81  203 1    
   162   81  204 1    
   163   82   83 2    
   164   82   84 am   BACKBONE|DICT|INTERRES
   165   84   85 1    
   166   84  205 1    
   167   85   86 1    
   168   85   87 1    
   169   85  206 1    
   170   86  207 1    
   171   86  208 1    
   172   86  209 1    
   173   87   88 2    
   174   87   89 am   BACKBONE|DICT|INTERRES
   175   89   90 1    
   176   89  210 1    
   177   90   91 1    
   178   90   92 1    
   179   90  211 1    
   180   91  212 1    
   181   91  213 1    
   182   91  214 1    
   183   92   93 2    
   184   92   94 am   BACKBONE|DICT|INTERRES
   185   94   95 1    
   186   94  215 1    
   187   95   96 1    
   188   95   97 1    
   189   95  216 1    
   190   96  217 1    
   191   96  218 1    
   192   96  219 1    
   193   97   98 2    
   194   97   99 am   BACKBONE|DICT|INTERRES
   195   99  100 1    
   196   99  220 1    
   197  100  101 1    
   198  100  102 1    
   199  100  221 1    
   200  101  222 1    
   201  101  223 1    
   202  101  224 1    
   203  102  103 2    
   204  102  104 am   BACKBONE|DICT|INTERRES
   205  104  105 1    
   206  104  225 1    
   207  105  106 1    
   208  105  107 1    
   209  105  226 1    
   210  106  227 1    
   211  106  228 1    
   212  106  229 1    
   213  107  108 2    
   214  107  109 am   BACKBONE|DICT|INTERRES
   215  109  110 1    
   216  109  230 1    
   217  110  111 1    
   218  110  112 1    
   219  110  231 1    
   220  111  232 1    
   221  111  233 1    
   222  111  234 1    
   223  112  113 2    
   224  112  114 am   BACKBONE|DICT|INTERRES
   225  114  115 1    
   226  114  235 1    
   227  115  116 1    
   228  115  117 1    
   229  115  236 1    
   230  116  237 1    
   231  116  238 1    
   232  116  239 1    
   233  117  118 2    
   234  117  119 am   BACKBONE|DICT|INTERRES
   235  119  120 1    
   236  119  240 1    
   237  120  121 1    
   238  120  124 1    
   239  120  241 1    
   240  121  122 am   BACKBONE|DICT|INTERRES
   241  121  123 2    
   242  122  242 1    
   243  122  243 1    
   244  124  125 1    
   245  124  244 1    
   246  124  245 1    
   247  125  126 1    
   248  126  246 1    
   249  126  247 1    
@<TRIPOS>SUBSTRUCTURE
     1 UNK         1 GROUP             0       ****    0 ROOT    
