@<TRIPOS>MOLECULE
3R540
247   249    1
SMALL
USER_CHARGES


@<TRIPOS>ATOM
      1 CA         -2.4056  -13.7099  -41.9784 C.3       0 UNK        -0.1800 
      2 C          -2.9473  -13.0111  -43.2163 C.2       0 UNK         0.5000 
      3 O          -3.9456  -12.2955  -43.1274 O.2       0 UNK        -0.5000 
      4 N          -2.2890  -13.2149  -44.3605 N.am      1 UNK        -0.5000 
      5 CA         -2.5852  -12.5677  -45.6391 C.3       1 UNK         0.1400 
      6 C6         -2.7040  -13.6016  -46.7860 C.3       23 UNK        -0.0398 
      7 S7         -4.0345  -14.8271  -46.5447 S.3       23 UNK        -0.2404 
      8 C8         -3.2934  -16.2231  -47.4371 C.3       23 UNK        -0.0205 
      9 C9         -4.3136  -17.2648  -47.8578 C.ar      23 UNK        -0.0193 
     10 C10        -4.9398  -17.1599  -49.1033 C.ar      23 UNK        -0.1150 
     11 C11        -5.7785  -18.1787  -49.5624 C.ar      23 UNK        -0.0193 
     12 C12        -6.0160  -19.2928  -48.7550 C.ar      23 UNK        -0.1150 
     13 C13        -5.3955  -19.4054  -47.5087 C.ar      23 UNK        -0.0193 
     14 C14        -4.5546  -18.3838  -47.0571 C.ar      23 UNK        -0.1150 
     15 C15        -5.5497  -20.6779  -46.6998 C.3       23 UNK        -0.0205 
     16 S16        -4.2797  -21.8618  -47.2269 S.3       23 UNK        -0.2404 
     17 C17        -4.3513  -23.1200  -45.9171 C.3       23 UNK        -0.0398 
     18 CA         -3.0119  -23.8853  -45.8506 C.3       11 UNK         0.1400 
     19 N          -1.8744  -23.0354  -45.4926 N.am      11 UNK        -0.5000 
     20 C          -0.5916  -23.3734  -45.6791 C.2       10 UNK         0.5000 
     21 O          -0.2302  -24.4440  -46.1661 O.2       10 UNK        -0.5000 
     22 CA          0.4619  -22.3722  -45.1766 C.3       10 UNK         0.1400 
     23 CB          0.7058  -21.2657  -46.2154 C.3       10 UNK        -0.1800 
     24 N           0.0639  -21.7784  -43.8991 N.am      10 UNK        -0.5000 
     25 C           0.0312  -22.4549  -42.7394 C.2       9 UNK         0.5000 
     26 O           0.4088  -23.6205  -42.6245 O.2       9 UNK        -0.5000 
     27 CA         -0.5633  -21.7344  -41.5116 C.3       9 UNK         0.1400 
     28 CB          0.5415  -21.0125  -40.7264 C.3       9 UNK        -0.1800 
     29 N          -1.6119  -20.7728  -41.8542 N.am      9 UNK        -0.5000 
     30 C          -2.7646  -21.0725  -42.4694 C.2       8 UNK         0.5000 
     31 O          -3.1187  -22.2236  -42.7235 O.2       8 UNK        -0.5000 
     32 CA         -3.6390  -19.8915  -42.9400 C.3       8 UNK         0.1400 
     33 CB         -4.8205  -19.6779  -41.9836 C.3       8 UNK        -0.1800 
     34 N          -2.9162  -18.6242  -43.1062 N.am      8 UNK        -0.5000 
     35 C          -1.8828  -18.4287  -43.9364 C.2       7 UNK         0.5000 
     36 O          -1.4201  -19.3090  -44.6665 O.2       7 UNK        -0.5000 
     37 CA         -1.2165  -17.0476  -43.8865 C.3       7 UNK         0.1400 
     38 CB         -0.5925  -16.7969  -42.4982 C.3       7 UNK        -0.1800 
     39 N          -0.1723  -16.9961  -44.9027 N.am      7 UNK        -0.5000 
     40 C           0.3981  -15.8890  -45.3848 C.2       6 UNK         0.5000 
     41 O           0.0495  -14.7542  -45.0555 O.2       6 UNK        -0.5000 
     42 CA          1.5856  -16.0592  -46.3532 C.3       6 UNK         0.1400 
     43 CB          1.9695  -17.5273  -46.6584 C.3       6 UNK        -0.1800 
     44 N           1.4010  -15.2862  -47.5816 N.am      6 UNK        -0.5000 
     45 C           0.5111  -15.5136  -48.5598 C.2       5 UNK         0.5000 
     46 O          -0.3011  -16.4361  -48.5357 O.2       5 UNK        -0.5000 
     47 CA          0.5173  -14.5578  -49.7749 C.3       5 UNK         0.1400 
     48 CB         -0.7379  -13.6731  -49.7785 C.3       5 UNK        -0.1800 
     49 N           1.6943  -13.6898  -49.8400 N.am      5 UNK        -0.5000 
     50 C           2.9403  -14.1053  -50.1095 C.2       4 UNK         0.5000 
     51 O           3.2161  -15.2555  -50.4502 O.2       4 UNK        -0.5000 
     52 CA          4.0811  -13.0811  -49.9385 C.3       4 UNK         0.1400 
     53 CB          4.5532  -12.5692  -51.3081 C.3       4 UNK        -0.1800 
     54 N           3.7491  -11.9289  -49.0953 N.am      4 UNK        -0.5000 
     55 C           3.3820  -11.9613  -47.8058 C.2       3 UNK         0.5000 
     56 O           3.2598  -13.0004  -47.1555 O.2       3 UNK        -0.5000 
     57 CA          3.0776  -10.6053  -47.1347 C.3       3 UNK         0.1400 
     58 CB          3.7694   -9.4095  -47.8262 C.3       3 UNK        -0.1800 
     59 N           1.6428  -10.3297  -46.9969 N.am      3 UNK        -0.5000 
     60 C           0.6985  -10.3682  -47.9478 C.2       2 UNK         0.5000 
     61 O           0.8795  -10.8011  -49.0880 O.2       2 UNK        -0.5000 
     62 CA         -0.6840   -9.8067  -47.5542 C.3       2 UNK         0.1400 
     63 CB         -1.3426   -9.0580  -48.7259 C.3       2 UNK        -0.1800 
     64 N          -1.6021  -10.8451  -47.0894 N.am      2 UNK        -0.5000 
     65 C          -1.4902  -11.5162  -45.9356 C.2       1 UNK         0.5000 
     66 O          -0.5850  -11.3050  -45.1228 O.2       1 UNK        -0.5000 
     67 C          -3.1074  -25.1305  -44.9551 C.2       11 UNK         0.5000 
     68 O          -3.3902  -26.2164  -45.4628 O.2       11 UNK        -0.5000 
     69 N          -2.8081  -24.9685  -43.6598 N.am      12 UNK        -0.5000 
     70 CA         -2.6737  -26.0661  -42.7024 C.3       12 UNK         0.1400 
     71 CB         -2.5036  -25.4869  -41.2900 C.3       12 UNK        -0.1800 
     72 C          -1.5120  -27.0213  -43.0459 C.2       12 UNK         0.5000 
     73 O          -1.6234  -28.2215  -42.7932 O.2       12 UNK        -0.5000 
     74 N          -0.4304  -26.4773  -43.6212 N.am      13 UNK        -0.5000 
     75 CA          0.7401  -27.2305  -44.0588 C.3       13 UNK         0.1400 
     76 CB          1.9594  -26.2979  -44.1462 C.3       13 UNK        -0.1800 
     77 C           0.5095  -27.9710  -45.3885 C.2       13 UNK         0.5000 
     78 O           0.7389  -29.1806  -45.4410 O.2       13 UNK        -0.5000 
     79 N           0.0953  -27.2495  -46.4417 N.am      14 UNK        -0.5000 
     80 CA          0.0683  -27.7702  -47.8127 C.3       14 UNK         0.1400 
     81 CB          1.4998  -27.7942  -48.3920 C.3       14 UNK        -0.1800 
     82 C          -0.9483  -27.0562  -48.7269 C.2       14 UNK         0.5000 
     83 O          -0.6830  -26.8923  -49.9198 O.2       14 UNK        -0.5000 
     84 N          -2.1165  -26.6982  -48.1727 N.am      15 UNK        -0.5000 
     85 CA         -3.2946  -26.1562  -48.8684 C.3       15 UNK         0.1400 
     86 CB         -3.8650  -27.2072  -49.8471 C.3       15 UNK        -0.1800 
     87 C          -3.0671  -24.7857  -49.5490 C.2       15 UNK         0.5000 
     88 O          -2.0262  -24.1521  -49.3645 O.2       15 UNK        -0.5000 
     89 N          -4.0668  -24.3333  -50.3200 N.am      16 UNK        -0.5000 
     90 CA         -4.0827  -23.0452  -51.0256 C.3       16 UNK         0.1400 
     91 CB         -5.4475  -22.8674  -51.7064 C.3       16 UNK        -0.1800 
     92 C          -2.9409  -22.8683  -52.0469 C.2       16 UNK         0.5000 
     93 O          -2.5661  -21.7361  -52.3488 O.2       16 UNK        -0.5000 
     94 N          -2.3708  -23.9840  -52.5218 N.am      17 UNK        -0.5000 
     95 CA         -1.1767  -24.0269  -53.3650 C.3       17 UNK         0.1400 
     96 CB         -0.9360  -25.4768  -53.8112 C.3       17 UNK        -0.1800 
     97 C           0.0825  -23.4590  -52.6782 C.2       17 UNK         0.5000 
     98 O           0.9539  -22.9336  -53.3712 O.2       17 UNK        -0.5000 
     99 N           0.1552  -23.5554  -51.3421 N.am      18 UNK        -0.5000 
    100 CA         1.2390  -22.9879  -50.5408 C.3       18 UNK         0.1400 
    101 CB         1.3315  -23.7414  -49.2085 C.3       18 UNK        -0.1800 
    102 C          1.0611  -21.4767  -50.3065 C.2       18 UNK         0.5000 
    103 O          2.0606  -20.7653  -50.2028 O.2       18 UNK        -0.5000 
    104 N         -0.1949  -21.0097  -50.2437 N.am      19 UNK        -0.5000 
    105 CA        -0.5398  -19.5875  -50.1843 C.3       19 UNK         0.1400 
    106 CB        -1.9856  -19.4235  -49.6933 C.3       19 UNK        -0.1800 
    107 C         -0.3312  -18.9020  -51.5484 C.2       19 UNK         0.5000 
    108 O          0.1935  -17.7902  -51.5995 O.2       19 UNK        -0.5000 
    109 N         -0.7226  -19.5954  -52.6293 N.am      20 UNK        -0.5000 
    110 CA        -0.4963  -19.3218  -54.0566 C.3       20 UNK         0.1400 
    111 CB         1.0106  -19.3003  -54.3731 C.3       20 UNK        -0.1800 
    112 C         -1.1923  -18.0701  -54.6311 C.2       20 UNK         0.5000 
    113 O         -1.5479  -18.0688  -55.8102 O.2       20 UNK        -0.5000 
    114 N         -1.3950  -17.0377  -53.8063 N.am      21 UNK        -0.5000 
    115 CA        -2.0047  -15.7507  -54.1530 C.3       21 UNK         0.1400 
    116 CB        -1.7043  -14.7611  -53.0166 C.3       21 UNK        -0.1800 
    117 C         -3.5222  -15.8094  -54.4339 C.2       21 UNK         0.5000 
    118 O         -4.1010  -14.7945  -54.8241 O.2       21 UNK        -0.5000 
    119 N         -4.1422  -16.9744  -54.2139 N.am      22 UNK        -0.5000 
    120 CA        -5.5856  -17.2318  -54.3464 C.3       22 UNK         0.1400 
    121 C         -6.1563  -17.1169  -55.7911 C.2       22 UNK         0.5000 
    122 N         -5.3351  -17.1408  -56.8340 N.am      22 UNK        -0.7600 
    123 O         -7.3666  -17.0059  -55.9663 O.2       22 UNK        -0.5000 
    124 C124       -5.9907  -18.5963  -53.7254 C.3       23 UNK        -0.0398 
    125 S125       -5.2061  -18.9390  -52.1153 S.3       23 UNK        -0.2404 
    126 C126       -6.3508  -18.1214  -50.9664 C.3       23 UNK        -0.0205 
    127 H127       -2.5465  -13.0848  -41.0965 H         1 UNK         0.0600 
    128 H128       -1.3395  -13.9126  -42.0759 H         1 UNK         0.0600 
    129 H129       -2.9285  -14.6525  -41.8180 H         1 UNK         0.0600 
    130 H130       -1.4330  -13.7648  -44.3695 H         1 UNK         0.3000 
    131 H131       -3.5306  -12.0249  -45.5784 H         1 UNK         0.0600 
    132 H132       -2.9131  -13.1076  -47.7353 H         1 UNK         0.0800 
    133 H133       -1.7552  -14.1245  -46.9130 H         1 UNK         0.0800 
    134 H134       -2.7979  -15.8487  -48.3325 H         1 UNK         0.0800 
    135 H135       -2.5138  -16.6779  -46.8240 H         1 UNK         0.0800 
    136 H136       -4.7293  -16.3121  -49.7400 H         1 UNK         0.1150 
    137 H137       -6.6341  -20.1000  -49.1224 H         1 UNK         0.1150 
    138 H138       -4.0440  -18.4873  -46.1105 H         1 UNK         0.1150 
    139 H139       -5.4595  -20.4618  -45.6363 H         1 UNK         0.0800 
    140 H140       -6.5399  -21.1108  -46.8490 H         1 UNK         0.0800 
    141 H141       -5.1779  -23.7953  -46.1453 H         1 UNK         0.0800 
    142 H142       -4.5811  -22.6520  -44.9591 H         1 UNK         0.0800 
    143 H143       -2.8038  -24.2573  -46.8495 H         1 UNK         0.0600 
    144 H144       -2.0882  -22.1432  -45.0724 H         1 UNK         0.3000 
    145 H145        1.4001  -22.9109  -45.0275 H         1 UNK         0.0600 
    146 H146        1.4047  -20.5184  -45.8407 H         1 UNK         0.0600 
    147 H147        1.1339  -21.6779  -47.1283 H         1 UNK         0.0600 
    148 H148       -0.2166  -20.7554  -46.4949 H         1 UNK         0.0600 
    149 H149       -0.3147  -20.8384  -43.9395 H         1 UNK         0.3000 
    150 H150       -1.0059  -22.4938  -40.8640 H         1 UNK         0.0600 
    151 H151        1.0033  -20.2201  -41.3169 H         1 UNK         0.0600 
    152 H152        1.3304  -21.7072  -40.4346 H         1 UNK         0.0600 
    153 H153        0.1493  -20.5661  -39.8124 H         1 UNK         0.0600 
    154 H154       -1.4083  -19.8011  -41.6765 H         1 UNK         0.3000 
    155 H155       -4.0345  -20.1679  -43.9169 H         1 UNK         0.0600 
    156 H156       -4.4850  -19.3662  -40.9937 H         1 UNK         0.0600 
    157 H157       -5.3960  -20.5966  -41.8614 H         1 UNK         0.0600 
    158 H158       -5.5033  -18.9177  -42.3634 H         1 UNK         0.0600 
    159 H159       -3.2304  -17.8577  -42.5287 H         1 UNK         0.3000 
    160 H160       -1.9733  -16.2913  -44.1049 H         1 UNK         0.0600 
    161 H161        0.1119  -17.5851  -42.2287 H         1 UNK         0.0600 
    162 H162       -1.3537  -16.7550  -41.7188 H         1 UNK         0.0600 
    163 H163       -0.0505  -15.8524  -42.4660 H         1 UNK         0.0600 
    164 H164        0.0968  -17.9031  -45.2632 H         1 UNK         0.3000 
    165 H165        2.4399  -15.6045  -45.8499 H         1 UNK         0.0600 
    166 H166        2.2631  -18.0526  -45.7489 H         1 UNK         0.0600 
    167 H167        1.1524  -18.0870  -47.1148 H         1 UNK         0.0600 
    168 H168        2.8187  -17.5730  -47.3402 H         1 UNK         0.0600 
    169 H169        1.9963  -14.4673  -47.6559 H         1 UNK         0.3000 
    170 H170        0.5013  -15.1790  -50.6723 H         1 UNK         0.0600 
    171 H171       -0.7594  -13.0150  -48.9112 H         1 UNK         0.0600 
    172 H172       -0.7769  -13.0469  -50.6699 H         1 UNK         0.0600 
    173 H173       -1.6463  -14.2754  -49.7642 H         1 UNK         0.0600 
    174 H174        1.5536  -12.7173  -49.5852 H         1 UNK         0.3000 
    175 H175        4.9128  -13.6046  -49.4629 H         1 UNK         0.0600 
    176 H176        3.7684  -12.0098  -51.8190 H         1 UNK         0.0600 
    177 H177        5.4217  -11.9177  -51.2092 H         1 UNK         0.0600 
    178 H178        4.8425  -13.3966  -51.9575 H         1 UNK         0.0600 
    179 H179        3.7757  -11.0275  -49.5494 H         1 UNK         0.3000 
    180 H180        3.4783  -10.6741  -46.1222 H         1 UNK         0.0600 
    181 H181        3.3571   -9.2080  -48.8156 H         1 UNK         0.0600 
    182 H182        4.8407   -9.5830  -47.9382 H         1 UNK         0.0600 
    183 H183        3.6543   -8.5013  -47.2344 H         1 UNK         0.0600 
    184 H184        1.3472  -10.0634  -46.0669 H         1 UNK         0.3000 
    185 H185       -0.5421   -9.0864  -46.7455 H         1 UNK         0.0600 
    186 H186       -2.2699   -8.5763  -48.4151 H         1 UNK         0.0600 
    187 H187       -0.6844   -8.2767  -49.1084 H         1 UNK         0.0600 
    188 H188       -1.5740   -9.7269  -49.5560 H         1 UNK         0.0600 
    189 H189       -2.3718  -11.0533  -47.7080 H         1 UNK         0.3000 
    190 H190       -2.6548  -24.0273  -43.3095 H         1 UNK         0.3000 
    191 H191       -3.5991  -26.6453  -42.7254 H         1 UNK         0.0600 
    192 H192       -3.3352  -24.8325  -41.0278 H         1 UNK         0.0600 
    193 H193       -2.4664  -26.2825  -40.5449 H         1 UNK         0.0600 
    194 H194       -1.5826  -24.9110  -41.2001 H         1 UNK         0.0600 
    195 H195       -0.4052  -25.4762  -43.7626 H         1 UNK         0.3000 
    196 H196        0.9644  -27.9821  -43.2986 H         1 UNK         0.0600 
    197 H197        2.8511  -26.8505  -44.4444 H         1 UNK         0.0600 
    198 H198        2.1706  -25.8366  -43.1813 H         1 UNK         0.0600 
    199 H199        1.8138  -25.4983  -44.8717 H         1 UNK         0.0600 
    200 H200       -0.0689  -26.2483  -46.3344 H         1 UNK         0.3000 
    201 H201       -0.2849  -28.8029  -47.7790 H         1 UNK         0.0600 
    202 H202        1.5126  -28.1496  -49.4229 H         1 UNK         0.0600 
    203 H203        2.1457  -28.4623  -47.8223 H         1 UNK         0.0600 
    204 H204        1.9540  -26.8045  -48.3741 H         1 UNK         0.0600 
    205 H205       -2.2369  -26.8373  -47.1762 H         1 UNK         0.3000 
    206 H206       -4.0466  -25.9892  -48.0967 H         1 UNK         0.0600 
    207 H207       -3.9679  -28.1785  -49.3630 H         1 UNK         0.0600 
    208 H208       -4.8564  -26.9281  -50.2045 H         1 UNK         0.0600 
    209 H209       -3.2260  -27.3380  -50.7212 H         1 UNK         0.0600 
    210 H210       -4.8948  -24.9018  -50.4210 H         1 UNK         0.3000 
    211 H211       -3.9681  -22.2558  -50.2800 H         1 UNK         0.0600 
    212 H212       -5.6488  -23.6674  -52.4197 H         1 UNK         0.0600 
    213 H213       -5.4941  -21.9245  -52.2518 H         1 UNK         0.0600 
    214 H214       -6.2545  -22.8555  -50.9736 H         1 UNK         0.0600 
    215 H215       -2.7341  -24.8718  -52.2091 H         1 UNK         0.3000 
    216 H216       -1.3709  -23.4198  -54.2516 H         1 UNK         0.0600 
    217 H217       -0.0638  -25.5457  -54.4627 H         1 UNK         0.0600 
    218 H218       -1.7883  -25.8659  -54.3685 H         1 UNK         0.0600 
    219 H219       -0.7620  -26.1350  -52.9584 H         1 UNK         0.0600 
    220 H220       -0.6046  -23.9900  -50.8270 H         1 UNK         0.3000 
    221 H221        2.1822  -23.1347  -51.0713 H         1 UNK         0.0600 
    222 H222        0.4337  -23.6025  -48.6077 H         1 UNK         0.0600 
    223 H223        1.4579  -24.8095  -49.3758 H         1 UNK         0.0600 
    224 H224        2.1819  -23.3978  -48.6189 H         1 UNK         0.0600 
    225 H225       -0.9581  -21.6629  -50.3454 H         1 UNK         0.3000 
    226 H226        0.1165  -19.0996  -49.4601 H         1 UNK         0.0600 
    227 H227       -2.2511  -18.3677  -49.6337 H         1 UNK         0.0600 
    228 H228       -2.7044  -19.9027  -50.3579 H         1 UNK         0.0600 
    229 H229       -2.1167  -19.8461  -48.6968 H         1 UNK         0.0600 
    230 H230       -1.2502  -20.4487  -52.4554 H         1 UNK         0.3000 
    231 H231       -0.9269  -20.1765  -54.5808 H         1 UNK         0.0600 
    232 H232        1.5150  -18.4617  -53.8922 H         1 UNK         0.0600 
    233 H233        1.1826  -19.2121  -55.4465 H         1 UNK         0.0600 
    234 H234        1.4956  -20.2183  -54.0407 H         1 UNK         0.0600 
    235 H235       -1.0092  -17.1232  -52.8699 H         1 UNK         0.3000 
    236 H236       -1.5249  -15.3841  -55.0625 H         1 UNK         0.0600 
    237 H237       -0.6305  -14.6497  -52.8654 H         1 UNK         0.0600 
    238 H238       -2.1032  -13.7701  -53.2366 H         1 UNK         0.0600 
    239 H239       -2.1450  -15.0926  -52.0757 H         1 UNK         0.0600 
    240 H240       -3.5896  -17.7472  -53.8739 H         1 UNK         0.3000 
    241 H241       -6.0850  -16.4529  -53.7675 H         1 UNK         0.0600 
    242 H242       -4.3401  -17.2339  -56.6982 H         1 UNK         0.3800 
    243 H243       -5.7103  -17.0634  -57.7664 H         1 UNK         0.3800 
    244 H244       -5.7060  -19.4114  -54.3933 H         1 UNK         0.0800 
    245 H245       -7.0746  -18.6618  -53.6158 H         1 UNK         0.0800 
    246 H246       -7.3251  -18.6112  -51.0022 H         1 UNK         0.0800 
    247 H247       -6.5043  -17.0849  -51.2702 H         1 UNK         0.0800 
@<TRIPOS>BOND
     1    1    2 1    
     2    1  127 1    
     3    1  128 1    
     4    1  129 1    
     5    2    3 2    
     6    2    4 am   BACKBONE|DICT|INTERRES
     7    4    5 1    
     8    4  130 1    
     9    5    6 1    
    10    5   65 1    
    11    5  131 1    
    12    6    7 1    
    13    6  132 1    
    14    6  133 1    
    15    7    8 1    
    16    8    9 1    
    17    8  134 1    
    18    8  135 1    
    19    9   10 ar   
    20    9   14 ar   
    21   10   11 ar   
    22   10  136 1    
    23   11   12 ar   
    24   11  126 1    
    25   12   13 ar   
    26   12  137 1    
    27   13   14 ar   
    28   13   15 1    
    29   14  138 1    
    30   15   16 1    
    31   15  139 1    
    32   15  140 1    
    33   16   17 1    
    34   17   18 1    
    35   17  141 1    
    36   17  142 1    
    37   18   19 1    
    38   18   67 1    
    39   18  143 1    
    40   19   20 am   BACKBONE|DICT|INTERRES
    41   19  144 1    
    42   20   21 2    
    43   20   22 1    
    44   22   23 1    
    45   22   24 1    
    46   22  145 1    
    47   23  146 1    
    48   23  147 1    
    49   23  148 1    
    50   24   25 am   BACKBONE|DICT|INTERRES
    51   24  149 1    
    52   25   26 2    
    53   25   27 1    
    54   27   28 1    
    55   27   29 1    
    56   27  150 1    
    57   28  151 1    
    58   28  152 1    
    59   28  153 1    
    60   29   30 am   BACKBONE|DICT|INTERRES
    61   29  154 1    
    62   30   31 2    
    63   30   32 1    
    64   32   33 1    
    65   32   34 1    
    66   32  155 1    
    67   33  156 1    
    68   33  157 1    
    69   33  158 1    
    70   34   35 am   BACKBONE|DICT|INTERRES
    71   34  159 1    
    72   35   36 2    
    73   35   37 1    
    74   37   38 1    
    75   37   39 1    
    76   37  160 1    
    77   38  161 1    
    78   38  162 1    
    79   38  163 1    
    80   39   40 am   BACKBONE|DICT|INTERRES
    81   39  164 1    
    82   40   41 2    
    83   40   42 1    
    84   42   43 1    
    85   42   44 1    
    86   42  165 1    
    87   43  166 1    
    88   43  167 1    
    89   43  168 1    
    90   44   45 am   BACKBONE|DICT|INTERRES
    91   44  169 1    
    92   45   46 2    
    93   45   47 1    
    94   47   48 1    
    95   47   49 1    
    96   47  170 1    
    97   48  171 1    
    98   48  172 1    
    99   48  173 1    
   100   49   50 am   BACKBONE|DICT|INTERRES
   101   49  174 1    
   102   50   51 2    
   103   50   52 1    
   104   52   53 1    
   105   52   54 1    
   106   52  175 1    
   107   53  176 1    
   108   53  177 1    
   109   53  178 1    
   110   54   55 am   BACKBONE|DICT|INTERRES
   111   54  179 1    
   112   55   56 2    
   113   55   57 1    
   114   57   58 1    
   115   57   59 1    
   116   57  180 1    
   117   58  181 1    
   118   58  182 1    
   119   58  183 1    
   120   59   60 am   BACKBONE|DICT|INTERRES
   121   59  184 1    
   122   60   61 2    
   123   60   62 1    
   124   62   63 1    
   125   62   64 1    
   126   62  185 1    
   127   63  186 1    
   128   63  187 1    
   129   63  188 1    
   130   64   65 am   BACKBONE|DICT|INTERRES
   131   64  189 1    
   132   65   66 2    
   133   67   68 2    
   134   67   69 am   BACKBONE|DICT|INTERRES
   135   69   70 1    
   136   69  190 1    
   137   70   71 1    
   138   70   72 1    
   139   70  191 1    
   140   71  192 1    
   141   71  193 1    
   142   71  194 1    
   143   72   73 2    
   144   72   74 am   BACKBONE|DICT|INTERRES
   145   74   75 1    
   146   74  195 1    
   147   75   76 1    
   148   75   77 1    
   149   75  196 1    
   150   76  197 1    
   151   76  198 1    
   152   76  199 1    
   153   77   78 2    
   154   77   79 am   BACKBONE|DICT|INTERRES
   155   79   80 1    
   156   79  200 1    
   157   80   81 1    
   158   80   82 1    
   159   80  201 1    
   160   81  202 1    
   161   81  203 1    
   162   81  204 1    
   163   82   83 2    
   164   82   84 am   BACKBONE|DICT|INTERRES
   165   84   85 1    
   166   84  205 1    
   167   85   86 1    
   168   85   87 1    
   169   85  206 1    
   170   86  207 1    
   171   86  208 1    
   172   86  209 1    
   173   87   88 2    
   174   87   89 am   BACKBONE|DICT|INTERRES
   175   89   90 1    
   176   89  210 1    
   177   90   91 1    
   178   90   92 1    
   179   90  211 1    
   180   91  212 1    
   181   91  213 1    
   182   91  214 1    
   183   92   93 2    
   184   92   94 am   BACKBONE|DICT|INTERRES
   185   94   95 1    
   186   94  215 1    
   187   95   96 1    
   188   95   97 1    
   189   95  216 1    
   190   96  217 1    
   191   96  218 1    
   192   96  219 1    
   193   97   98 2    
   194   97   99 am   BACKBONE|DICT|INTERRES
   195   99  100 1    
   196   99  220 1    
   197  100  101 1    
   198  100  102 1    
   199  100  221 1    
   200  101  222 1    
   201  101  223 1    
   202  101  224 1    
   203  102  103 2    
   204  102  104 am   BACKBONE|DICT|INTERRES
   205  104  105 1    
   206  104  225 1    
   207  105  106 1    
   208  105  107 1    
   209  105  226 1    
   210  106  227 1    
   211  106  228 1    
   212  106  229 1    
   213  107  108 2    
   214  107  109 am   BACKBONE|DICT|INTERRES
   215  109  110 1    
   216  109  230 1    
   217  110  111 1    
   218  110  112 1    
   219  110  231 1    
   220  111  232 1    
   221  111  233 1    
   222  111  234 1    
   223  112  113 2    
   224  112  114 am   BACKBONE|DICT|INTERRES
   225  114  115 1    
   226  114  235 1    
   227  115  116 1    
   228  115  117 1    
   229  115  236 1    
   230  116  237 1    
   231  116  238 1    
   232  116  239 1    
   233  117  118 2    
   234  117  119 am   BACKBONE|DICT|INTERRES
   235  119  120 1    
   236  119  240 1    
   237  120  121 1    
   238  120  124 1    
   239  120  241 1    
   240  121  122 am   BACKBONE|DICT|INTERRES
   241  121  123 2    
   242  122  242 1    
   243  122  243 1    
   244  124  125 1    
   245  124  244 1    
   246  124  245 1    
   247  125  126 1    
   248  126  246 1    
   249  126  247 1    
@<TRIPOS>SUBSTRUCTURE
     1 UNK         1 GROUP             0       ****    0 ROOT    
