@<TRIPOS>MOLECULE
3R540
247   249    1
SMALL
USER_CHARGES


@<TRIPOS>ATOM
      1 CA         -1.6292  -13.6338  -53.1673 C.3       0 UNK        -0.1800 
      2 C          -1.0734  -14.1440  -51.8457 C.2       0 UNK         0.5000 
      3 O           0.0476  -14.6527  -51.8075 O.2       0 UNK        -0.5000 
      4 N          -1.8372  -13.9908  -50.7565 N.am      1 UNK        -0.5000 
      5 CA         -1.4812  -14.4212  -49.3975 C.3       1 UNK         0.1400 
      6 C6         -2.7319  -14.6802  -48.5146 C.3       23 UNK        -0.0398 
      7 S7         -3.9396  -15.8422  -49.2429 S.3       23 UNK        -0.2404 
      8 C8         -3.6223  -17.3848  -48.3273 C.3       23 UNK        -0.0205 
      9 C9         -2.6074  -18.2637  -49.0408 C.ar      23 UNK        -0.0193 
     10 C10        -3.0425  -19.2916  -49.8827 C.ar      23 UNK        -0.1150 
     11 C11        -2.1252  -20.1272  -50.5296 C.ar      23 UNK        -0.0193 
     12 C12        -0.7605  -19.8849  -50.3569 C.ar      23 UNK        -0.1150 
     13 C13        -0.3085  -18.8552  -49.5292 C.ar      23 UNK        -0.0193 
     14 C14        -1.2384  -18.0622  -48.8527 C.ar      23 UNK        -0.1150 
     15 C15         1.1835  -18.5957  -49.3760 C.3       23 UNK        -0.0205 
     16 S16         2.0828  -20.0248  -48.6925 S.3       23 UNK        -0.2404 
     17 C17         1.3067  -20.1917  -47.0565 C.3       23 UNK        -0.0398 
     18 CA          0.8439  -21.6302  -46.7214 C.3       11 UNK         0.1400 
     19 N           0.6823  -21.7759  -45.2734 N.am      11 UNK        -0.5000 
     20 C           0.4361  -22.9132  -44.6134 C.2       10 UNK         0.5000 
     21 O           0.3597  -24.0158  -45.1530 O.2       10 UNK        -0.5000 
     22 CA          0.1884  -22.7818  -43.0987 C.3       10 UNK         0.1400 
     23 CB          1.5132  -22.6890  -42.3269 C.3       10 UNK        -0.1800 
     24 N          -0.6521  -21.6269  -42.7733 N.am      10 UNK        -0.5000 
     25 C          -1.9466  -21.5248  -43.1070 C.2       9 UNK         0.5000 
     26 O          -2.5736  -22.4161  -43.6793 O.2       9 UNK        -0.5000 
     27 CA         -2.6481  -20.1913  -42.7875 C.3       9 UNK         0.1400 
     28 CB         -3.0671  -20.1358  -41.3111 C.3       9 UNK        -0.1800 
     29 N          -1.8259  -19.0244  -43.1113 N.am      9 UNK        -0.5000 
     30 C          -1.4201  -18.7045  -44.3488 C.2       8 UNK         0.5000 
     31 O          -1.7394  -19.3318  -45.3552 O.2       8 UNK        -0.5000 
     32 CA         -0.4480  -17.5220  -44.4874 C.3       8 UNK         0.1400 
     33 CB         -1.2117  -16.1897  -44.5116 C.3       8 UNK        -0.1800 
     34 N           0.5595  -17.4971  -43.4292 N.am      8 UNK        -0.5000 
     35 C           1.4581  -18.4596  -43.1843 C.2       7 UNK         0.5000 
     36 O           1.5625  -19.4835  -43.8559 O.2       7 UNK        -0.5000 
     37 CA          2.3516  -18.2738  -41.9483 C.3       7 UNK         0.1400 
     38 CB          3.5294  -17.3339  -42.2449 C.3       7 UNK        -0.1800 
     39 N           1.5909  -17.7635  -40.8100 N.am      7 UNK        -0.5000 
     40 C           0.7303  -18.4926  -40.0886 C.2       6 UNK         0.5000 
     41 O           0.5187  -19.6905  -40.2826 O.2       6 UNK        -0.5000 
     42 CA         -0.0390  -17.7486  -38.9803 C.3       6 UNK         0.1400 
     43 CB          0.7956  -17.6848  -37.6924 C.3       6 UNK        -0.1800 
     44 N          -0.4338  -16.3919  -39.3693 N.am      6 UNK        -0.5000 
     45 C          -1.3611  -16.1202  -40.2974 C.2       5 UNK         0.5000 
     46 O          -1.9724  -16.9863  -40.9232 O.2       5 UNK        -0.5000 
     47 CA         -1.6263  -14.6327  -40.6082 C.3       5 UNK         0.1400 
     48 CB         -2.5572  -14.0215  -39.5499 C.3       5 UNK        -0.1800 
     49 N          -0.4345  -13.7842  -40.7537 N.am      5 UNK        -0.5000 
     50 C           0.6250  -14.0542  -41.5276 C.2       4 UNK         0.5000 
     51 O           0.8196  -15.1455  -42.0601 O.2       4 UNK        -0.5000 
     52 CA          1.6575  -12.9316  -41.7392 C.3       4 UNK         0.1400 
     53 CB          2.6998  -12.9487  -40.6110 C.3       4 UNK        -0.1800 
     54 N           2.3467  -13.0950  -43.0237 N.am      4 UNK        -0.5000 
     55 C           1.7572  -12.9797  -44.2216 C.2       3 UNK         0.5000 
     56 O           0.6106  -12.5523  -44.3837 O.2       3 UNK        -0.5000 
     57 CA          2.5799  -13.4450  -45.4335 C.3       3 UNK         0.1400 
     58 CB          2.6869  -14.9818  -45.4798 C.3       3 UNK        -0.1800 
     59 N           1.9486  -12.9632  -46.6574 N.am      3 UNK        -0.5000 
     60 C           2.5562  -12.7753  -47.8319 C.2       2 UNK         0.5000 
     61 O           3.7468  -13.0275  -48.0281 O.2       2 UNK        -0.5000 
     62 CA          1.6768  -12.2284  -48.9758 C.3       2 UNK         0.1400 
     63 CB          2.4939  -11.8470  -50.2236 C.3       2 UNK        -0.1800 
     64 N           0.6424  -13.1823  -49.3757 N.am      2 UNK        -0.5000 
     65 C          -0.5088  -13.4150  -48.7347 C.2       1 UNK         0.5000 
     66 O          -0.8193  -12.8448  -47.6871 O.2       1 UNK        -0.5000 
     67 C          -0.4328  -22.0521  -47.4878 C.2       11 UNK         0.5000 
     68 O          -0.3424  -22.7856  -48.4761 O.2       11 UNK        -0.5000 
     69 N          -1.6002  -21.6383  -46.9725 N.am      12 UNK        -0.5000 
     70 CA         -2.9221  -22.0325  -47.4516 C.3       12 UNK         0.1400 
     71 CB         -4.0042  -21.1877  -46.7637 C.3       12 UNK        -0.1800 
     72 C          -3.1895  -23.5349  -47.2742 C.2       12 UNK         0.5000 
     73 O          -3.6173  -24.1834  -48.2277 O.2       12 UNK        -0.5000 
     74 N          -2.8815  -24.0762  -46.0863 N.am      13 UNK        -0.5000 
     75 CA         -3.0010  -25.5028  -45.7678 C.3       13 UNK         0.1400 
     76 CB         -2.7075  -25.7241  -44.2765 C.3       13 UNK        -0.1800 
     77 C          -2.1036  -26.4025  -46.6415 C.2       13 UNK         0.5000 
     78 O          -2.5135  -27.5079  -46.9971 O.2       13 UNK        -0.5000 
     79 N          -0.9159  -25.8988  -47.0022 N.am      14 UNK        -0.5000 
     80 CA          0.0143  -26.5277  -47.9409 C.3       14 UNK         0.1400 
     81 CB          1.4017  -25.8895  -47.7646 C.3       14 UNK        -0.1800 
     82 C          -0.4358  -26.4349  -49.4148 C.2       14 UNK         0.5000 
     83 O           0.1154  -27.1541  -50.2488 O.2       14 UNK        -0.5000 
     84 N          -1.4046  -25.5532  -49.7123 N.am      15 UNK        -0.5000 
     85 CA         -1.9608  -25.2397  -51.0343 C.3       15 UNK         0.1400 
     86 CB         -2.7341  -26.4476  -51.6016 C.3       15 UNK        -0.1800 
     87 C          -0.9054  -24.6837  -52.0167 C.2       15 UNK         0.5000 
     88 O          -0.9849  -24.9427  -53.2191 O.2       15 UNK        -0.5000 
     89 N           0.0827  -23.9529  -51.4805 N.am      16 UNK        -0.5000 
     90 CA          1.2908  -23.5185  -52.1805 C.3       16 UNK         0.1400 
     91 CB          2.2455  -22.8736  -51.1677 C.3       16 UNK        -0.1800 
     92 C           1.0050  -22.5735  -53.3635 C.2       16 UNK         0.5000 
     93 O           0.5935  -21.4318  -53.1548 O.2       16 UNK        -0.5000 
     94 N           1.2163  -23.0827  -54.5857 N.am      17 UNK        -0.5000 
     95 CA          1.1020  -22.3973  -55.8819 C.3       17 UNK         0.1400 
     96 CB          2.1546  -21.2737  -55.9861 C.3       17 UNK        -0.1800 
     97 C          -0.3117  -21.8870  -56.2442 C.2       17 UNK         0.5000 
     98 O          -0.4522  -21.1862  -57.2478 O.2       17 UNK        -0.5000 
     99 N          -1.3271  -22.2443  -55.4420 N.am      18 UNK        -0.5000 
    100 CA        -2.7295  -21.8204  -55.5394 C.3       18 UNK         0.1400 
    101 CB        -3.4068  -22.4808  -56.7581 C.3       18 UNK        -0.1800 
    102 C         -2.9124  -20.2830  -55.5061 C.2       18 UNK         0.5000 
    103 O         -3.7683  -19.7482  -56.2140 O.2       18 UNK        -0.5000 
    104 N         -2.0794  -19.5963  -54.7106 N.am      19 UNK        -0.5000 
    105 CA        -2.0571  -18.1405  -54.5705 C.3       19 UNK         0.1400 
    106 CB        -0.8168  -17.7438  -53.7540 C.3       19 UNK        -0.1800 
    107 C         -3.3446  -17.5959  -53.9204 C.2       19 UNK         0.5000 
    108 O         -3.6802  -18.0066  -52.8117 O.2       19 UNK        -0.5000 
    109 N         -4.0273  -16.6719  -54.6138 N.am      20 UNK        -0.5000 
    110 CA        -5.3002  -16.0482  -54.2295 C.3       20 UNK         0.1400 
    111 CB        -5.1080  -15.0868  -53.0352 C.3       20 UNK        -0.1800 
    112 C         -6.4169  -17.0941  -54.0193 C.2       20 UNK         0.5000 
    113 O         -6.9248  -17.6310  -55.0055 O.2       20 UNK        -0.5000 
    114 N         -6.7758  -17.3638  -52.7601 N.am      21 UNK        -0.5000 
    115 CA        -7.7079  -18.4046  -52.3478 C.3       21 UNK         0.1400 
    116 CB        -9.0779  -17.7825  -52.0329 C.3       21 UNK        -0.1800 
    117 C         -7.1068  -19.0959  -51.1185 C.2       21 UNK         0.5000 
    118 O         -6.7056  -18.4102  -50.1757 O.2       21 UNK        -0.5000 
    119 N         -7.0455  -20.4299  -51.1605 N.am      22 UNK        -0.5000 
    120 CA        -6.3445  -21.2710  -50.1729 C.3       22 UNK         0.1400 
    121 C         -7.3072  -22.1076  -49.2805 C.2       22 UNK         0.5000 
    122 N         -8.6205  -21.9409  -49.3805 N.am      22 UNK        -0.7600 
    123 O         -6.8603  -22.9140  -48.4714 O.2       22 UNK        -0.5000 
    124 C124       -5.2615  -22.1654  -50.8431 C.3       23 UNK        -0.0398 
    125 S125       -4.2257  -21.2971  -52.0795 S.3       23 UNK        -0.2404 
    126 C126       -2.5406  -21.3289  -51.3783 C.3       23 UNK        -0.0205 
    127 H127       -0.8501  -13.1208  -53.7320 H         1 UNK         0.0600 
    128 H128       -2.4484  -12.9313  -53.0126 H         1 UNK         0.0600 
    129 H129       -1.9938  -14.4666  -53.7682 H         1 UNK         0.0600 
    130 H130       -2.7439  -13.5554  -50.8459 H         1 UNK         0.3000 
    131 H131       -0.9387  -15.3635  -49.4790 H         1 UNK         0.0600 
    132 H132       -2.4316  -15.0440  -47.5311 H         1 UNK         0.0800 
    133 H133       -3.2628  -13.7438  -48.3335 H         1 UNK         0.0800 
    134 H134       -4.5671  -17.9225  -48.2320 H         1 UNK         0.0800 
    135 H135       -3.2953  -17.1768  -47.3079 H         1 UNK         0.0800 
    136 H136       -4.1003  -19.4327  -50.0279 H         1 UNK         0.1150 
    137 H137       -0.0389  -20.5148  -50.8551 H         1 UNK         0.1150 
    138 H138       -0.9001  -17.2798  -48.1897 H         1 UNK         0.1150 
    139 H139        1.5984  -18.3557  -50.3559 H         1 UNK         0.0800 
    140 H140        1.3661  -17.7253  -48.7438 H         1 UNK         0.0800 
    141 H141        0.4848  -19.4852  -46.9427 H         1 UNK         0.0800 
    142 H142        2.0686  -19.8745  -46.3445 H         1 UNK         0.0800 
    143 H143        1.6383  -22.3198  -47.0144 H         1 UNK         0.0600 
    144 H144        0.7863  -20.9237  -44.7276 H         1 UNK         0.3000 
    145 H145       -0.3322  -23.6824  -42.7672 H         1 UNK         0.0600 
    146 H146        1.3399  -22.6492  -41.2513 H         1 UNK         0.0600 
    147 H147        2.1402  -23.5592  -42.5244 H         1 UNK         0.0600 
    148 H148        2.0846  -21.8033  -42.6048 H         1 UNK         0.0600 
    149 H149       -0.2053  -20.8512  -42.3022 H         1 UNK         0.3000 
    150 H150       -3.5520  -20.1398  -43.3977 H         1 UNK         0.0600 
    151 H151       -3.6829  -20.9963  -41.0464 H         1 UNK         0.0600 
    152 H152       -3.6531  -19.2407  -41.1024 H         1 UNK         0.0600 
    153 H153       -2.2031  -20.1316  -40.6461 H         1 UNK         0.0600 
    154 H154       -1.5688  -18.4185  -42.3392 H         1 UNK         0.3000 
    155 H155        0.0766  -17.6289  -45.4384 H         1 UNK         0.0600 
    156 H156       -1.7461  -16.0176  -43.5774 H         1 UNK         0.0600 
    157 H157       -1.9464  -16.1758  -45.3170 H         1 UNK         0.0600 
    158 H158       -0.5395  -15.3465  -44.6693 H         1 UNK         0.0600 
    159 H159        0.5760  -16.6646  -42.8398 H         1 UNK         0.3000 
    160 H160        2.7600  -19.2520  -41.6850 H         1 UNK         0.0600 
    161 H161        4.2294  -17.3093  -41.4097 H         1 UNK         0.0600 
    162 H162        3.1968  -16.3129  -42.4280 H         1 UNK         0.0600 
    163 H163        4.0834  -17.6646  -43.1244 H         1 UNK         0.0600 
    164 H164        1.6338  -16.7669  -40.6489 H         1 UNK         0.3000 
    165 H165       -0.9459  -18.3193  -38.7687 H         1 UNK         0.0600 
    166 H166        0.2298  -17.2322  -36.8781 H         1 UNK         0.0600 
    167 H167        1.0881  -18.6841  -37.3673 H         1 UNK         0.0600 
    168 H168        1.7084  -17.1042  -37.8312 H         1 UNK         0.0600 
    169 H169        0.0353  -15.6239  -38.9122 H         1 UNK         0.3000 
    170 H170       -2.1487  -14.6002  -41.5661 H         1 UNK         0.0600 
    171 H171       -3.4613  -14.6202  -39.4304 H         1 UNK         0.0600 
    172 H172       -2.0726  -13.9601  -38.5747 H         1 UNK         0.0600 
    173 H173       -2.8714  -13.0168  -39.8328 H         1 UNK         0.0600 
    174 H174       -0.4935  -12.8707  -40.3276 H         1 UNK         0.3000 
    175 H175        1.1418  -11.9693  -41.7384 H         1 UNK         0.0600 
    176 H176        3.2381  -13.8969  -40.5742 H         1 UNK         0.0600 
    177 H177        3.4323  -12.1516  -40.7389 H         1 UNK         0.0600 
    178 H178        2.2280  -12.8015  -39.6387 H         1 UNK         0.0600 
    179 H179        3.2805  -13.4745  -42.9782 H         1 UNK         0.3000 
    180 H180        3.5781  -13.0105  -45.3489 H         1 UNK         0.0600 
    181 H181        1.7066  -15.4505  -45.5639 H         1 UNK         0.0600 
    182 H182        3.1612  -15.3719  -44.5803 H         1 UNK         0.0600 
    183 H183        3.2874  -15.3136  -46.3266 H         1 UNK         0.0600 
    184 H184        0.9621  -12.7344  -46.5659 H         1 UNK         0.3000 
    185 H185        1.1944  -11.3201  -48.6083 H         1 UNK         0.0600 
    186 H186        3.2674  -11.1181  -49.9782 H         1 UNK         0.0600 
    187 H187        2.9857  -12.7151  -50.6646 H         1 UNK         0.0600 
    188 H188        1.8586  -11.3993  -50.9881 H         1 UNK         0.0600 
    189 H189        0.8038  -13.6940  -50.2380 H         1 UNK         0.3000 
    190 H190       -1.5869  -20.9726  -46.2036 H         1 UNK         0.3000 
    191 H191       -2.9620  -21.8197  -48.5177 H         1 UNK         0.0600 
    192 H192       -3.9912  -21.3154  -45.6818 H         1 UNK         0.0600 
    193 H193       -4.9985  -21.4636  -47.1136 H         1 UNK         0.0600 
    194 H194       -3.8680  -20.1277  -46.9753 H         1 UNK         0.0600 
    195 H195       -2.5678  -23.4674  -45.3357 H         1 UNK         0.3000 
    196 H196       -4.0365  -25.7936  -45.9555 H         1 UNK         0.0600 
    197 H197       -2.8243  -26.7744  -44.0070 H         1 UNK         0.0600 
    198 H198       -3.3907  -25.1498  -43.6506 H         1 UNK         0.0600 
    199 H199       -1.6902  -25.4302  -44.0185 H         1 UNK         0.0600 
    200 H200       -0.6220  -25.0156  -46.5963 H         1 UNK         0.3000 
    201 H201        0.0930  -27.5873  -47.6894 H         1 UNK         0.0600 
    202 H202        1.7605  -26.0023  -46.7414 H         1 UNK         0.0600 
    203 H203        1.3875  -24.8246  -47.9978 H         1 UNK         0.0600 
    204 H204        2.1363  -26.3588  -48.4201 H         1 UNK         0.0600 
    205 H205       -1.8014  -25.0184  -48.9485 H         1 UNK         0.3000 
    206 H206       -2.6888  -24.4455  -50.8765 H         1 UNK         0.0600 
    207 H207       -3.4713  -26.8128  -50.8863 H         1 UNK         0.0600 
    208 H208       -3.2727  -26.1751  -52.5099 H         1 UNK         0.0600 
    209 H209       -2.0694  -27.2749  -51.8515 H         1 UNK         0.0600 
    210 H210        0.0383  -23.7425  -50.4900 H         1 UNK         0.3000 
    211 H211        1.7816  -24.4149  -52.5648 H         1 UNK         0.0600 
    212 H212        1.7866  -22.0071  -50.6962 H         1 UNK         0.0600 
    213 H213        3.1651  -22.5393  -51.6492 H         1 UNK         0.0600 
    214 H214        2.5225  -23.5746  -50.3800 H         1 UNK         0.0600 
    215 H215        1.4917  -24.0534  -54.6453 H         1 UNK         0.3000 
    216 H216        1.3468  -23.1462  -56.6363 H         1 UNK         0.0600 
    217 H217        2.1908  -20.8599  -56.9945 H         1 UNK         0.0600 
    218 H218        3.1530  -21.6449  -55.7554 H         1 UNK         0.0600 
    219 H219        1.9364  -20.4506  -55.3048 H         1 UNK         0.0600 
    220 H220       -1.1010  -22.8363  -54.6539 H         1 UNK         0.3000 
    221 H221       -3.2229  -22.2074  -54.6486 H         1 UNK         0.0600 
    222 H222       -2.9992  -22.1090  -57.6987 H         1 UNK         0.0600 
    223 H223       -3.2789  -23.5631  -56.7413 H         1 UNK         0.0600 
    224 H224       -4.4792  -22.2828  -56.7647 H         1 UNK         0.0600 
    225 H225       -1.4081  -20.1096  -54.1563 H         1 UNK         0.3000 
    226 H226       -1.9543  -17.7133  -55.5700 H         1 UNK         0.0600 
    227 H227       -0.7246  -16.6601  -53.6869 H         1 UNK         0.0600 
    228 H228       -0.8651  -18.1318  -52.7356 H         1 UNK         0.0600 
    229 H229        0.0979  -18.1205  -54.2122 H         1 UNK         0.0600 
    230 H230       -3.6939  -16.4285  -55.5356 H         1 UNK         0.3000 
    231 H231       -5.6156  -15.4427  -55.0805 H         1 UNK         0.0600 
    232 H232       -4.4620  -14.2552  -53.3108 H         1 UNK         0.0600 
    233 H233       -4.6628  -15.5803  -52.1716 H         1 UNK         0.0600 
    234 H234       -6.0584  -14.6556  -52.7184 H         1 UNK         0.0600 
    235 H235       -6.2452  -16.9508  -52.0032 H         1 UNK         0.3000 
    236 H236       -7.8268  -19.1422  -53.1445 H         1 UNK         0.0600 
    237 H237       -9.5000  -17.2962  -52.9124 H         1 UNK         0.0600 
    238 H238       -9.7871  -18.5452  -51.7094 H         1 UNK         0.0600 
    239 H239       -9.0090  -17.0376  -51.2391 H         1 UNK         0.0600 
    240 H240       -7.4068  -20.9159  -51.9684 H         1 UNK         0.3000 
    241 H241       -5.8278  -20.6297  -49.4595 H         1 UNK         0.0600 
    242 H242       -9.2354  -22.4840  -48.7947 H         1 UNK         0.3800 
    243 H243       -9.0052  -21.2682  -50.0243 H         1 UNK         0.3800 
    244 H244       -5.7364  -23.0013  -51.3592 H         1 UNK         0.0800 
    245 H245       -4.6219  -22.6125  -50.0837 H         1 UNK         0.0800 
    246 H246       -2.3988  -22.2289  -50.7847 H         1 UNK         0.0800 
    247 H247       -1.8545  -21.4117  -52.2204 H         1 UNK         0.0800 
@<TRIPOS>BOND
     1    1    2 1    
     2    1  127 1    
     3    1  128 1    
     4    1  129 1    
     5    2    3 2    
     6    2    4 am   BACKBONE|DICT|INTERRES
     7    4    5 1    
     8    4  130 1    
     9    5    6 1    
    10    5   65 1    
    11    5  131 1    
    12    6    7 1    
    13    6  132 1    
    14    6  133 1    
    15    7    8 1    
    16    8    9 1    
    17    8  134 1    
    18    8  135 1    
    19    9   10 ar   
    20    9   14 ar   
    21   10   11 ar   
    22   10  136 1    
    23   11   12 ar   
    24   11  126 1    
    25   12   13 ar   
    26   12  137 1    
    27   13   14 ar   
    28   13   15 1    
    29   14  138 1    
    30   15   16 1    
    31   15  139 1    
    32   15  140 1    
    33   16   17 1    
    34   17   18 1    
    35   17  141 1    
    36   17  142 1    
    37   18   19 1    
    38   18   67 1    
    39   18  143 1    
    40   19   20 am   BACKBONE|DICT|INTERRES
    41   19  144 1    
    42   20   21 2    
    43   20   22 1    
    44   22   23 1    
    45   22   24 1    
    46   22  145 1    
    47   23  146 1    
    48   23  147 1    
    49   23  148 1    
    50   24   25 am   BACKBONE|DICT|INTERRES
    51   24  149 1    
    52   25   26 2    
    53   25   27 1    
    54   27   28 1    
    55   27   29 1    
    56   27  150 1    
    57   28  151 1    
    58   28  152 1    
    59   28  153 1    
    60   29   30 am   BACKBONE|DICT|INTERRES
    61   29  154 1    
    62   30   31 2    
    63   30   32 1    
    64   32   33 1    
    65   32   34 1    
    66   32  155 1    
    67   33  156 1    
    68   33  157 1    
    69   33  158 1    
    70   34   35 am   BACKBONE|DICT|INTERRES
    71   34  159 1    
    72   35   36 2    
    73   35   37 1    
    74   37   38 1    
    75   37   39 1    
    76   37  160 1    
    77   38  161 1    
    78   38  162 1    
    79   38  163 1    
    80   39   40 am   BACKBONE|DICT|INTERRES
    81   39  164 1    
    82   40   41 2    
    83   40   42 1    
    84   42   43 1    
    85   42   44 1    
    86   42  165 1    
    87   43  166 1    
    88   43  167 1    
    89   43  168 1    
    90   44   45 am   BACKBONE|DICT|INTERRES
    91   44  169 1    
    92   45   46 2    
    93   45   47 1    
    94   47   48 1    
    95   47   49 1    
    96   47  170 1    
    97   48  171 1    
    98   48  172 1    
    99   48  173 1    
   100   49   50 am   BACKBONE|DICT|INTERRES
   101   49  174 1    
   102   50   51 2    
   103   50   52 1    
   104   52   53 1    
   105   52   54 1    
   106   52  175 1    
   107   53  176 1    
   108   53  177 1    
   109   53  178 1    
   110   54   55 am   BACKBONE|DICT|INTERRES
   111   54  179 1    
   112   55   56 2    
   113   55   57 1    
   114   57   58 1    
   115   57   59 1    
   116   57  180 1    
   117   58  181 1    
   118   58  182 1    
   119   58  183 1    
   120   59   60 am   BACKBONE|DICT|INTERRES
   121   59  184 1    
   122   60   61 2    
   123   60   62 1    
   124   62   63 1    
   125   62   64 1    
   126   62  185 1    
   127   63  186 1    
   128   63  187 1    
   129   63  188 1    
   130   64   65 am   BACKBONE|DICT|INTERRES
   131   64  189 1    
   132   65   66 2    
   133   67   68 2    
   134   67   69 am   BACKBONE|DICT|INTERRES
   135   69   70 1    
   136   69  190 1    
   137   70   71 1    
   138   70   72 1    
   139   70  191 1    
   140   71  192 1    
   141   71  193 1    
   142   71  194 1    
   143   72   73 2    
   144   72   74 am   BACKBONE|DICT|INTERRES
   145   74   75 1    
   146   74  195 1    
   147   75   76 1    
   148   75   77 1    
   149   75  196 1    
   150   76  197 1    
   151   76  198 1    
   152   76  199 1    
   153   77   78 2    
   154   77   79 am   BACKBONE|DICT|INTERRES
   155   79   80 1    
   156   79  200 1    
   157   80   81 1    
   158   80   82 1    
   159   80  201 1    
   160   81  202 1    
   161   81  203 1    
   162   81  204 1    
   163   82   83 2    
   164   82   84 am   BACKBONE|DICT|INTERRES
   165   84   85 1    
   166   84  205 1    
   167   85   86 1    
   168   85   87 1    
   169   85  206 1    
   170   86  207 1    
   171   86  208 1    
   172   86  209 1    
   173   87   88 2    
   174   87   89 am   BACKBONE|DICT|INTERRES
   175   89   90 1    
   176   89  210 1    
   177   90   91 1    
   178   90   92 1    
   179   90  211 1    
   180   91  212 1    
   181   91  213 1    
   182   91  214 1    
   183   92   93 2    
   184   92   94 am   BACKBONE|DICT|INTERRES
   185   94   95 1    
   186   94  215 1    
   187   95   96 1    
   188   95   97 1    
   189   95  216 1    
   190   96  217 1    
   191   96  218 1    
   192   96  219 1    
   193   97   98 2    
   194   97   99 am   BACKBONE|DICT|INTERRES
   195   99  100 1    
   196   99  220 1    
   197  100  101 1    
   198  100  102 1    
   199  100  221 1    
   200  101  222 1    
   201  101  223 1    
   202  101  224 1    
   203  102  103 2    
   204  102  104 am   BACKBONE|DICT|INTERRES
   205  104  105 1    
   206  104  225 1    
   207  105  106 1    
   208  105  107 1    
   209  105  226 1    
   210  106  227 1    
   211  106  228 1    
   212  106  229 1    
   213  107  108 2    
   214  107  109 am   BACKBONE|DICT|INTERRES
   215  109  110 1    
   216  109  230 1    
   217  110  111 1    
   218  110  112 1    
   219  110  231 1    
   220  111  232 1    
   221  111  233 1    
   222  111  234 1    
   223  112  113 2    
   224  112  114 am   BACKBONE|DICT|INTERRES
   225  114  115 1    
   226  114  235 1    
   227  115  116 1    
   228  115  117 1    
   229  115  236 1    
   230  116  237 1    
   231  116  238 1    
   232  116  239 1    
   233  117  118 2    
   234  117  119 am   BACKBONE|DICT|INTERRES
   235  119  120 1    
   236  119  240 1    
   237  120  121 1    
   238  120  124 1    
   239  120  241 1    
   240  121  122 am   BACKBONE|DICT|INTERRES
   241  121  123 2    
   242  122  242 1    
   243  122  243 1    
   244  124  125 1    
   245  124  244 1    
   246  124  245 1    
   247  125  126 1    
   248  126  246 1    
   249  126  247 1    
@<TRIPOS>SUBSTRUCTURE
     1 UNK         1 GROUP             0       ****    0 ROOT    
