@<TRIPOS>MOLECULE
3R540
247   249    1
SMALL
USER_CHARGES


@<TRIPOS>ATOM
      1 CA         -1.4521  -11.6803  -47.5864 C.3       0 UNK        -0.1800 
      2 C          -1.8468  -13.1318  -47.3580 C.2       0 UNK         0.5000 
      3 O          -2.9824  -13.4033  -46.9680 O.2       0 UNK        -0.5000 
      4 N          -0.9041  -14.0561  -47.5811 N.am      1 UNK        -0.5000 
      5 CA         -1.0255  -15.5139  -47.4523 C.3       1 UNK         0.1400 
      6 C6         -1.9503  -16.1693  -48.5158 C.3       23 UNK        -0.0398 
      7 S7         -1.4824  -15.7711  -50.2377 S.3       23 UNK        -0.2404 
      8 C8         -1.3952  -17.4239  -51.0241 C.3       23 UNK        -0.0205 
      9 C9         -0.0976  -18.2120  -50.8186 C.ar      23 UNK        -0.0193 
     10 C10         0.1037  -19.3727  -51.5737 C.ar      23 UNK        -0.1150 
     11 C11         1.2650  -20.1392  -51.4229 C.ar      23 UNK        -0.0193 
     12 C12         2.2307  -19.7433  -50.4941 C.ar      23 UNK        -0.1150 
     13 C13         2.0452  -18.5924  -49.7268 C.ar      23 UNK        -0.0193 
     14 C14         0.8921  -17.8265  -49.9067 C.ar      23 UNK        -0.1150 
     15 C15         3.0880  -18.1739  -48.7006 C.3       23 UNK        -0.0205 
     16 S16         3.0515  -19.2264  -47.2143 S.3       23 UNK        -0.2404 
     17 C17         1.3683  -18.9414  -46.5647 C.3       23 UNK        -0.0398 
     18 CA          0.4980  -20.2154  -46.6436 C.3       11 UNK         0.1400 
     19 N           1.0461  -21.3215  -45.8526 N.am      11 UNK        -0.5000 
     20 C           0.6489  -22.5957  -45.9602 C.2       10 UNK         0.5000 
     21 O          -0.2355  -22.9522  -46.7390 O.2       10 UNK        -0.5000 
     22 CA          1.2775  -23.6354  -45.0101 C.3       10 UNK         0.1400 
     23 CB          1.6720  -24.9320  -45.7460 C.3       10 UNK        -0.1800 
     24 N           2.3802  -23.1213  -44.1891 N.am      10 UNK        -0.5000 
     25 C           3.6086  -22.7463  -44.5753 C.2       9 UNK         0.5000 
     26 O           4.0078  -22.8099  -45.7382 O.2       9 UNK        -0.5000 
     27 CA          4.5301  -22.1847  -43.4700 C.3       9 UNK         0.1400 
     28 CB          5.6807  -21.3347  -44.0400 C.3       9 UNK        -0.1800 
     29 N           3.7851  -21.3854  -42.4913 N.am      9 UNK        -0.5000 
     30 C           3.1811  -21.8671  -41.3957 C.2       8 UNK         0.5000 
     31 O           3.1907  -23.0610  -41.0956 O.2       8 UNK        -0.5000 
     32 CA          2.4126  -20.8795  -40.4939 C.3       8 UNK         0.1400 
     33 CB          3.2452  -20.5356  -39.2494 C.3       8 UNK        -0.1800 
     34 N           2.0173  -19.6335  -41.1506 N.am      8 UNK        -0.5000 
     35 C           1.1162  -19.5194  -42.1354 C.2       7 UNK         0.5000 
     36 O           0.5193  -20.4684  -42.6488 O.2       7 UNK        -0.5000 
     37 CA          0.8744  -18.0931  -42.6654 C.3       7 UNK         0.1400 
     38 CB         -0.0646  -17.3348  -41.7163 C.3       7 UNK        -0.1800 
     39 N           2.0792  -17.2786  -42.8877 N.am      7 UNK        -0.5000 
     40 C           3.2471  -17.6686  -43.4282 C.2       6 UNK         0.5000 
     41 O           3.4861  -18.8268  -43.7639 O.2       6 UNK        -0.5000 
     42 CA          4.3447  -16.6067  -43.6482 C.3       6 UNK         0.1400 
     43 CB          4.5817  -16.3907  -45.1514 C.3       6 UNK        -0.1800 
     44 N           4.0590  -15.3106  -43.0366 N.am      6 UNK        -0.5000 
     45 C           4.0779  -15.0342  -41.7256 C.2       5 UNK         0.5000 
     46 O           4.3938  -15.8506  -40.8600 O.2       5 UNK        -0.5000 
     47 CA          3.6433  -13.6096  -41.3154 C.3       5 UNK         0.1400 
     48 CB          4.8706  -12.7491  -40.9788 C.3       5 UNK        -0.1800 
     49 N           2.8430  -12.9203  -42.3372 N.am      5 UNK        -0.5000 
     50 C           1.6295  -13.3149  -42.7446 C.2       4 UNK         0.5000 
     51 O           1.0464  -14.2958  -42.2803 O.2       4 UNK        -0.5000 
     52 CA          1.0144  -12.5334  -43.9175 C.3       4 UNK         0.1400 
     53 CB          1.6140  -13.0156  -45.2488 C.3       4 UNK        -0.1800 
     54 N          -0.4330  -12.7190  -43.9661 N.am      4 UNK        -0.5000 
     55 C          -1.3166  -12.0312  -43.2317 C.2       3 UNK         0.5000 
     56 O          -1.0042  -11.1006  -42.4875 O.2       3 UNK        -0.5000 
     57 CA         -2.7994  -12.4346  -43.3523 C.3       3 UNK         0.1400 
     58 CB         -3.5948  -11.3640  -44.1164 C.3       3 UNK        -0.1800 
     59 N          -2.9819  -13.7254  -44.0200 N.am      3 UNK        -0.5000 
     60 C          -2.9439  -14.9113  -43.3961 C.2       2 UNK         0.5000 
     61 O          -2.7906  -15.0385  -42.1818 O.2       2 UNK        -0.5000 
     62 CA         -3.1203  -16.1676  -44.2700 C.3       2 UNK         0.1400 
     63 CB         -4.6014  -16.5765  -44.2896 C.3       2 UNK        -0.1800 
     64 N          -2.6497  -15.9713  -45.6438 N.am      2 UNK        -0.5000 
     65 C          -1.3583  -15.9300  -46.0020 C.2       1 UNK         0.5000 
     66 O          -0.4332  -16.1618  -45.2250 O.2       1 UNK        -0.5000 
     67 C          -0.9724  -19.9247  -46.2752 C.2       11 UNK         0.5000 
     68 O          -1.7394  -19.5257  -47.1496 O.2       11 UNK        -0.5000 
     69 N          -1.3673  -20.1840  -45.0180 N.am      12 UNK        -0.5000 
     70 CA         -2.7631  -20.1161  -44.5789 C.3       12 UNK         0.1400 
     71 CB         -2.8266  -20.1046  -43.0466 C.3       12 UNK        -0.1800 
     72 C          -3.6269  -21.2571  -45.1483 C.2       12 UNK         0.5000 
     73 O          -4.7890  -21.0296  -45.4848 O.2       12 UNK        -0.5000 
     74 N          -3.0408  -22.4554  -45.2831 N.am      13 UNK        -0.5000 
     75 CA         -3.6817  -23.6073  -45.9216 C.3       13 UNK         0.1400 
     76 CB         -2.8902  -24.8878  -45.6149 C.3       13 UNK        -0.1800 
     77 C          -3.8376  -23.3948  -47.4372 C.2       13 UNK         0.5000 
     78 O          -4.8822  -23.7285  -47.9960 O.2       13 UNK        -0.5000 
     79 N          -2.8216  -22.7845  -48.0632 N.am      14 UNK        -0.5000 
     80 CA         -2.8573  -22.3507  -49.4571 C.3       14 UNK         0.1400 
     81 CB         -1.4662  -21.8841  -49.8958 C.3       14 UNK        -0.1800 
     82 C          -3.9089  -21.2550  -49.7065 C.2       14 UNK         0.5000 
     83 O          -4.6018  -21.3168  -50.7197 O.2       14 UNK        -0.5000 
     84 N          -4.0551  -20.3066  -48.7683 N.am      15 UNK        -0.5000 
     85 CA         -5.0980  -19.2760  -48.7884 C.3       15 UNK         0.1400 
     86 CB         -4.9085  -18.3058  -47.6142 C.3       15 UNK        -0.1800 
     87 C          -6.5153  -19.8740  -48.7459 C.2       15 UNK         0.5000 
     88 O          -7.3718  -19.4568  -49.5248 O.2       15 UNK        -0.5000 
     89 N          -6.7218  -20.8744  -47.8764 N.am      16 UNK        -0.5000 
     90 CA         -7.9714  -21.6323  -47.7607 C.3       16 UNK         0.1400 
     91 CB         -7.9036  -22.5430  -46.5256 C.3       16 UNK        -0.1800 
     92 C          -8.3079  -22.4443  -49.0289 C.2       16 UNK         0.5000 
     93 O          -9.4842  -22.5998  -49.3572 O.2       16 UNK        -0.5000 
     94 N          -7.2707  -22.9054  -49.7403 N.am      17 UNK        -0.5000 
     95 CA         -7.3605  -23.5675  -51.0437 C.3       17 UNK         0.1400 
     96 CB         -6.1228  -24.4622  -51.2250 C.3       17 UNK        -0.1800 
     97 C          -7.5049  -22.5838  -52.2280 C.2       17 UNK         0.5000 
     98 O          -7.6067  -23.0387  -53.3680 O.2       17 UNK        -0.5000 
     99 N          -7.4996  -21.2695  -51.9519 N.am      18 UNK        -0.5000 
    100 CA        -7.5669  -20.1501  -52.8987 C.3       18 UNK         0.1400 
    101 CB        -8.9100  -20.1437  -53.6585 C.3       18 UNK        -0.1800 
    102 C         -6.3399  -20.0655  -53.8321 C.2       18 UNK         0.5000 
    103 O         -6.4689  -19.6480  -54.9848 O.2       18 UNK        -0.5000 
    104 N         -5.1704  -20.4655  -53.3119 N.am      19 UNK        -0.5000 
    105 CA        -3.8337  -20.5121  -53.9164 C.3       19 UNK         0.1400 
    106 CB        -3.3515  -19.1083  -54.3245 C.3       19 UNK        -0.1800 
    107 C         -3.6814  -21.5187  -55.0726 C.2       19 UNK         0.5000 
    108 O         -2.6951  -22.2562  -55.0953 O.2       19 UNK        -0.5000 
    109 N         -4.6462  -21.5397  -56.0016 N.am      20 UNK        -0.5000 
    110 CA        -4.7148  -22.3768  -57.2013 C.3       20 UNK         0.1400 
    111 CB        -5.0218  -23.8400  -56.8099 C.3       20 UNK        -0.1800 
    112 C         -3.4539  -22.2003  -58.0738 C.2       20 UNK         0.5000 
    113 O         -3.1899  -21.0852  -58.5294 O.2       20 UNK        -0.5000 
    114 N         -2.6695  -23.2729  -58.2476 N.am      21 UNK        -0.5000 
    115 CA        -1.3897  -23.2860  -58.9630 C.3       21 UNK         0.1400 
    116 CB        -0.8936  -24.7367  -59.0632 C.3       21 UNK        -0.1800 
    117 C         -0.3037  -22.3857  -58.3349 C.2       21 UNK         0.5000 
    118 O          0.6324  -21.9977  -59.0351 O.2       21 UNK        -0.5000 
    119 N         -0.4514  -22.0549  -57.0449 N.am      22 UNK        -0.5000 
    120 CA         0.3787  -21.0778  -56.3256 C.3       22 UNK         0.1400 
    121 C          0.0453  -19.5918  -56.6647 C.2       22 UNK         0.5000 
    122 N         -1.0341  -19.2897  -57.3799 N.am      22 UNK        -0.7600 
    123 O          0.7866  -18.6911  -56.2834 O.2       22 UNK        -0.5000 
    124 C124        0.3383  -21.3448  -54.7964 C.3       23 UNK        -0.0398 
    125 S125        1.9312  -21.0470  -53.9617 S.3       23 UNK        -0.2404 
    126 C126        1.4745  -21.4086  -52.2366 C.3       23 UNK        -0.0205 
    127 H127       -2.2427  -11.1546  -48.1217 H         1 UNK         0.0600 
    128 H128       -1.2916  -11.1797  -46.6318 H         1 UNK         0.0600 
    129 H129       -0.5361  -11.5995  -48.1721 H         1 UNK         0.0600 
    130 H130        0.0030  -13.7416  -47.8948 H         1 UNK         0.3000 
    131 H131       -0.0175  -15.8874  -47.6233 H         1 UNK         0.0600 
    132 H132       -1.9273  -17.2523  -48.3998 H         1 UNK         0.0800 
    133 H133       -2.9870  -15.8589  -48.3805 H         1 UNK         0.0800 
    134 H134       -1.5365  -17.2782  -52.0960 H         1 UNK         0.0800 
    135 H135       -2.2379  -18.0295  -50.6864 H         1 UNK         0.0800 
    136 H136       -0.6514  -19.6819  -52.2813 H         1 UNK         0.1150 
    137 H137        3.1254  -20.3346  -50.3580 H         1 UNK         0.1150 
    138 H138        0.7796  -16.9281  -49.3266 H         1 UNK         0.1150 
    139 H139        4.0800  -18.2343  -49.1502 H         1 UNK         0.0800 
    140 H140        2.9507  -17.1323  -48.4060 H         1 UNK         0.0800 
    141 H141        0.9028  -18.1204  -47.1089 H         1 UNK         0.0800 
    142 H142        1.4560  -18.6006  -45.5365 H         1 UNK         0.0800 
    143 H143        0.4948  -20.5369  -47.6875 H         1 UNK         0.0600 
    144 H144        1.7811  -21.0944  -45.1986 H         1 UNK         0.3000 
    145 H145        0.4885  -23.8955  -44.3032 H         1 UNK         0.0600 
    146 H146        2.1006  -25.6617  -45.0591 H         1 UNK         0.0600 
    147 H147        0.8015  -25.3975  -46.2098 H         1 UNK         0.0600 
    148 H148        2.3981  -24.7465  -46.5377 H         1 UNK         0.0600 
    149 H149        2.1691  -23.0201  -43.2051 H         1 UNK         0.3000 
    150 H150        4.9785  -23.0427  -42.9652 H         1 UNK         0.0600 
    151 H151        6.3361  -21.9369  -44.6701 H         1 UNK         0.0600 
    152 H152        6.2947  -20.9140  -43.2437 H         1 UNK         0.0600 
    153 H153        5.3101  -20.5103  -44.6501 H         1 UNK         0.0600 
    154 H154        3.6703  -20.4028  -42.7279 H         1 UNK         0.3000 
    155 H155        1.5017  -21.3847  -40.1663 H         1 UNK         0.0600 
    156 H156        4.1597  -20.0026  -39.5131 H         1 UNK         0.0600 
    157 H157        3.5350  -21.4382  -38.7095 H         1 UNK         0.0600 
    158 H158        2.6803  -19.9122  -38.5560 H         1 UNK         0.0600 
    159 H159        2.4746  -18.7924  -40.8294 H         1 UNK         0.3000 
    160 H160        0.3610  -18.1908  -43.6213 H         1 UNK         0.0600 
    161 H161       -0.4640  -16.4448  -42.2001 H         1 UNK         0.0600 
    162 H162        0.4497  -17.0187  -40.8081 H         1 UNK         0.0600 
    163 H163       -0.9156  -17.9431  -41.4114 H         1 UNK         0.0600 
    164 H164        1.9733  -16.2964  -42.6648 H         1 UNK         0.3000 
    165 H165        5.2648  -16.9964  -43.2080 H         1 UNK         0.0600 
    166 H166        5.3767  -15.6660  -45.3281 H         1 UNK         0.0600 
    167 H167        4.8819  -17.3204  -45.6364 H         1 UNK         0.0600 
    168 H168        3.6813  -16.0347  -45.6542 H         1 UNK         0.0600 
    169 H169        3.7907  -14.5701  -43.6665 H         1 UNK         0.3000 
    170 H170        3.0321  -13.7032  -40.4153 H         1 UNK         0.0600 
    171 H171        5.4744  -13.2166  -40.1997 H         1 UNK         0.0600 
    172 H172        5.5122  -12.6052  -41.8490 H         1 UNK         0.0600 
    173 H173        4.5752  -11.7660  -40.6117 H         1 UNK         0.0600 
    174 H174        3.2679  -12.1112  -42.7679 H         1 UNK         0.3000 
    175 H175        1.2413  -11.4724  -43.7930 H         1 UNK         0.0600 
    176 H176        1.1994  -12.4598  -46.0895 H         1 UNK         0.0600 
    177 H177        2.6945  -12.8699  -45.2714 H         1 UNK         0.0600 
    178 H178        1.4224  -14.0761  -45.4179 H         1 UNK         0.0600 
    179 H179       -0.7633  -13.5293  -44.4679 H         1 UNK         0.3000 
    180 H180       -3.2040  -12.4907  -42.3395 H         1 UNK         0.0600 
    181 H181       -3.2405  -11.2485  -45.1403 H         1 UNK         0.0600 
    182 H182       -3.5116  -10.3918  -43.6291 H         1 UNK         0.0600 
    183 H183       -4.6546  -11.6161  -44.1566 H         1 UNK         0.0600 
    184 H184       -3.1192  -13.6990  -45.0263 H         1 UNK         0.3000 
    185 H185       -2.5439  -16.9745  -43.8129 H         1 UNK         0.0600 
    186 H186       -5.2217  -15.8217  -44.7744 H         1 UNK         0.0600 
    187 H187       -4.7516  -17.5177  -44.8121 H         1 UNK         0.0600 
    188 H188       -4.9822  -16.7122  -43.2764 H         1 UNK         0.0600 
    189 H189       -3.3439  -15.6801  -46.3179 H         1 UNK         0.3000 
    190 H190       -0.6851  -20.4953  -44.3342 H         1 UNK         0.3000 
    191 H191       -3.1835  -19.1786  -44.9434 H         1 UNK         0.0600 
    192 H192       -2.3625  -20.9925  -42.6155 H         1 UNK         0.0600 
    193 H193       -3.8593  -20.0678  -42.6972 H         1 UNK         0.0600 
    194 H194       -2.3195  -19.2310  -42.6431 H         1 UNK         0.0600 
    195 H195       -2.0722  -22.5578  -45.0226 H         1 UNK         0.3000 
    196 H196       -4.6816  -23.7204  -45.4967 H         1 UNK         0.0600 
    197 H197       -3.3910  -25.7608  -46.0353 H         1 UNK         0.0600 
    198 H198       -2.8030  -25.0501  -44.5405 H         1 UNK         0.0600 
    199 H199       -1.8844  -24.8587  -46.0328 H         1 UNK         0.0600 
    200 H200       -1.9629  -22.6141  -47.5480 H         1 UNK         0.3000 
    201 H201       -3.1271  -23.2168  -50.0646 H         1 UNK         0.0600 
    202 H202       -0.7110  -22.6486  -49.7121 H         1 UNK         0.0600 
    203 H203       -1.1597  -20.9763  -49.3769 H         1 UNK         0.0600 
    204 H204       -1.4632  -21.6709  -50.9643 H         1 UNK         0.0600 
    205 H205       -3.3932  -20.2729  -48.0003 H         1 UNK         0.3000 
    206 H206       -4.9874  -18.7165  -49.7197 H         1 UNK         0.0600 
    207 H207       -3.8779  -17.9766  -47.5220 H         1 UNK         0.0600 
    208 H208       -5.5293  -17.4182  -47.7399 H         1 UNK         0.0600 
    209 H209       -5.1897  -18.7654  -46.6685 H         1 UNK         0.0600 
    210 H210       -5.9718  -21.1301  -47.2432 H         1 UNK         0.3000 
    211 H211       -8.7799  -20.9145  -47.6073 H         1 UNK         0.0600 
    212 H212       -7.1148  -23.2894  -46.6160 H         1 UNK         0.0600 
    213 H213       -8.8442  -23.0762  -46.3827 H         1 UNK         0.0600 
    214 H214       -7.7150  -21.9660  -45.6200 H         1 UNK         0.0600 
    215 H215       -6.3381  -22.7746  -49.3669 H         1 UNK         0.3000 
    216 H216       -8.2432  -24.2100  -51.0493 H         1 UNK         0.0600 
    217 H217       -6.1933  -25.0487  -52.1418 H         1 UNK         0.0600 
    218 H218       -6.0184  -25.1648  -50.3979 H         1 UNK         0.0600 
    219 H219       -5.2065  -23.8754  -51.2831 H         1 UNK         0.0600 
    220 H220       -7.3949  -20.9942  -50.9826 H         1 UNK         0.3000 
    221 H221       -7.5361  -19.2449  -52.2912 H         1 UNK         0.0600 
    222 H222       -8.9883  -20.9791  -54.3546 H         1 UNK         0.0600 
    223 H223       -9.7526  -20.1998  -52.9694 H         1 UNK         0.0600 
    224 H224       -9.0266  -19.2266  -54.2372 H         1 UNK         0.0600 
    225 H225       -5.1877  -20.8131  -52.3539 H         1 UNK         0.3000 
    226 H226       -3.1729  -20.8588  -53.1202 H         1 UNK         0.0600 
    227 H227       -3.9395  -18.6972  -55.1454 H         1 UNK         0.0600 
    228 H228       -2.3119  -19.1326  -54.6513 H         1 UNK         0.0600 
    229 H229       -3.4119  -18.4131  -53.4873 H         1 UNK         0.0600 
    230 H230       -5.3992  -20.8658  -55.8839 H         1 UNK         0.3000 
    231 H231       -5.5529  -22.0069  -57.7933 H         1 UNK         0.0600 
    232 H232       -5.9523  -23.9000  -56.2446 H         1 UNK         0.0600 
    233 H233       -4.2374  -24.2775  -56.1913 H         1 UNK         0.0600 
    234 H234       -5.1445  -24.4681  -57.6931 H         1 UNK         0.0600 
    235 H235       -2.9471  -24.1401  -57.8114 H         1 UNK         0.3000 
    236 H236       -1.5717  -22.9154  -59.9738 H         1 UNK         0.0600 
    237 H237        0.0436  -24.7925  -59.6188 H         1 UNK         0.0600 
    238 H238       -0.7171  -25.1695  -58.0777 H         1 UNK         0.0600 
    239 H239       -1.6154  -25.3665  -59.5837 H         1 UNK         0.0600 
    240 H240       -1.2666  -22.3901  -56.5419 H         1 UNK         0.3000 
    241 H241        1.4041  -21.2359  -56.6654 H         1 UNK         0.0600 
    242 H242       -1.2221  -18.3239  -57.5960 H         1 UNK         0.3800 
    243 H243       -1.6601  -20.0071  -57.7281 H         1 UNK         0.3800 
    244 H244       -0.4482  -20.7650  -54.3130 H         1 UNK         0.0800 
    245 H245        0.0877  -22.3898  -54.6065 H         1 UNK         0.0800 
    246 H246        0.5771  -22.0267  -52.2004 H         1 UNK         0.0800 
    247 H247        2.2672  -22.0127  -51.7926 H         1 UNK         0.0800 
@<TRIPOS>BOND
     1    1    2 1    
     2    1  127 1    
     3    1  128 1    
     4    1  129 1    
     5    2    3 2    
     6    2    4 am   BACKBONE|DICT|INTERRES
     7    4    5 1    
     8    4  130 1    
     9    5    6 1    
    10    5   65 1    
    11    5  131 1    
    12    6    7 1    
    13    6  132 1    
    14    6  133 1    
    15    7    8 1    
    16    8    9 1    
    17    8  134 1    
    18    8  135 1    
    19    9   10 ar   
    20    9   14 ar   
    21   10   11 ar   
    22   10  136 1    
    23   11   12 ar   
    24   11  126 1    
    25   12   13 ar   
    26   12  137 1    
    27   13   14 ar   
    28   13   15 1    
    29   14  138 1    
    30   15   16 1    
    31   15  139 1    
    32   15  140 1    
    33   16   17 1    
    34   17   18 1    
    35   17  141 1    
    36   17  142 1    
    37   18   19 1    
    38   18   67 1    
    39   18  143 1    
    40   19   20 am   BACKBONE|DICT|INTERRES
    41   19  144 1    
    42   20   21 2    
    43   20   22 1    
    44   22   23 1    
    45   22   24 1    
    46   22  145 1    
    47   23  146 1    
    48   23  147 1    
    49   23  148 1    
    50   24   25 am   BACKBONE|DICT|INTERRES
    51   24  149 1    
    52   25   26 2    
    53   25   27 1    
    54   27   28 1    
    55   27   29 1    
    56   27  150 1    
    57   28  151 1    
    58   28  152 1    
    59   28  153 1    
    60   29   30 am   BACKBONE|DICT|INTERRES
    61   29  154 1    
    62   30   31 2    
    63   30   32 1    
    64   32   33 1    
    65   32   34 1    
    66   32  155 1    
    67   33  156 1    
    68   33  157 1    
    69   33  158 1    
    70   34   35 am   BACKBONE|DICT|INTERRES
    71   34  159 1    
    72   35   36 2    
    73   35   37 1    
    74   37   38 1    
    75   37   39 1    
    76   37  160 1    
    77   38  161 1    
    78   38  162 1    
    79   38  163 1    
    80   39   40 am   BACKBONE|DICT|INTERRES
    81   39  164 1    
    82   40   41 2    
    83   40   42 1    
    84   42   43 1    
    85   42   44 1    
    86   42  165 1    
    87   43  166 1    
    88   43  167 1    
    89   43  168 1    
    90   44   45 am   BACKBONE|DICT|INTERRES
    91   44  169 1    
    92   45   46 2    
    93   45   47 1    
    94   47   48 1    
    95   47   49 1    
    96   47  170 1    
    97   48  171 1    
    98   48  172 1    
    99   48  173 1    
   100   49   50 am   BACKBONE|DICT|INTERRES
   101   49  174 1    
   102   50   51 2    
   103   50   52 1    
   104   52   53 1    
   105   52   54 1    
   106   52  175 1    
   107   53  176 1    
   108   53  177 1    
   109   53  178 1    
   110   54   55 am   BACKBONE|DICT|INTERRES
   111   54  179 1    
   112   55   56 2    
   113   55   57 1    
   114   57   58 1    
   115   57   59 1    
   116   57  180 1    
   117   58  181 1    
   118   58  182 1    
   119   58  183 1    
   120   59   60 am   BACKBONE|DICT|INTERRES
   121   59  184 1    
   122   60   61 2    
   123   60   62 1    
   124   62   63 1    
   125   62   64 1    
   126   62  185 1    
   127   63  186 1    
   128   63  187 1    
   129   63  188 1    
   130   64   65 am   BACKBONE|DICT|INTERRES
   131   64  189 1    
   132   65   66 2    
   133   67   68 2    
   134   67   69 am   BACKBONE|DICT|INTERRES
   135   69   70 1    
   136   69  190 1    
   137   70   71 1    
   138   70   72 1    
   139   70  191 1    
   140   71  192 1    
   141   71  193 1    
   142   71  194 1    
   143   72   73 2    
   144   72   74 am   BACKBONE|DICT|INTERRES
   145   74   75 1    
   146   74  195 1    
   147   75   76 1    
   148   75   77 1    
   149   75  196 1    
   150   76  197 1    
   151   76  198 1    
   152   76  199 1    
   153   77   78 2    
   154   77   79 am   BACKBONE|DICT|INTERRES
   155   79   80 1    
   156   79  200 1    
   157   80   81 1    
   158   80   82 1    
   159   80  201 1    
   160   81  202 1    
   161   81  203 1    
   162   81  204 1    
   163   82   83 2    
   164   82   84 am   BACKBONE|DICT|INTERRES
   165   84   85 1    
   166   84  205 1    
   167   85   86 1    
   168   85   87 1    
   169   85  206 1    
   170   86  207 1    
   171   86  208 1    
   172   86  209 1    
   173   87   88 2    
   174   87   89 am   BACKBONE|DICT|INTERRES
   175   89   90 1    
   176   89  210 1    
   177   90   91 1    
   178   90   92 1    
   179   90  211 1    
   180   91  212 1    
   181   91  213 1    
   182   91  214 1    
   183   92   93 2    
   184   92   94 am   BACKBONE|DICT|INTERRES
   185   94   95 1    
   186   94  215 1    
   187   95   96 1    
   188   95   97 1    
   189   95  216 1    
   190   96  217 1    
   191   96  218 1    
   192   96  219 1    
   193   97   98 2    
   194   97   99 am   BACKBONE|DICT|INTERRES
   195   99  100 1    
   196   99  220 1    
   197  100  101 1    
   198  100  102 1    
   199  100  221 1    
   200  101  222 1    
   201  101  223 1    
   202  101  224 1    
   203  102  103 2    
   204  102  104 am   BACKBONE|DICT|INTERRES
   205  104  105 1    
   206  104  225 1    
   207  105  106 1    
   208  105  107 1    
   209  105  226 1    
   210  106  227 1    
   211  106  228 1    
   212  106  229 1    
   213  107  108 2    
   214  107  109 am   BACKBONE|DICT|INTERRES
   215  109  110 1    
   216  109  230 1    
   217  110  111 1    
   218  110  112 1    
   219  110  231 1    
   220  111  232 1    
   221  111  233 1    
   222  111  234 1    
   223  112  113 2    
   224  112  114 am   BACKBONE|DICT|INTERRES
   225  114  115 1    
   226  114  235 1    
   227  115  116 1    
   228  115  117 1    
   229  115  236 1    
   230  116  237 1    
   231  116  238 1    
   232  116  239 1    
   233  117  118 2    
   234  117  119 am   BACKBONE|DICT|INTERRES
   235  119  120 1    
   236  119  240 1    
   237  120  121 1    
   238  120  124 1    
   239  120  241 1    
   240  121  122 am   BACKBONE|DICT|INTERRES
   241  121  123 2    
   242  122  242 1    
   243  122  243 1    
   244  124  125 1    
   245  124  244 1    
   246  124  245 1    
   247  125  126 1    
   248  126  246 1    
   249  126  247 1    
@<TRIPOS>SUBSTRUCTURE
     1 UNK         1 GROUP             0       ****    0 ROOT    
