@<TRIPOS>MOLECULE
3R540
247   249    1
SMALL
USER_CHARGES


@<TRIPOS>ATOM
      1 CA          3.6219   -9.4553  -47.9698 C.3       0 UNK        -0.1800 
      2 C           3.8262  -10.9280  -47.6462 C.2       0 UNK         0.5000 
      3 O           4.5656  -11.2544  -46.7167 O.2       0 UNK        -0.5000 
      4 N           3.1556  -11.8195  -48.3913 N.am      1 UNK        -0.5000 
      5 CA          3.2551  -13.2839  -48.2676 C.3       1 UNK         0.1400 
      6 C6          2.5673  -14.0100  -49.4563 C.3       23 UNK        -0.0398 
      7 S7          3.4930  -15.4895  -49.9862 S.3       23 UNK        -0.2404 
      8 C8          2.5676  -15.9845  -51.4728 C.3       23 UNK        -0.0205 
      9 C9          1.4789  -16.9955  -51.1481 C.ar      23 UNK        -0.0193 
     10 C10         0.1656  -16.5791  -50.9074 C.ar      23 UNK        -0.1150 
     11 C11        -0.8345  -17.5182  -50.6360 C.ar      23 UNK        -0.0193 
     12 C12        -0.5104  -18.8767  -50.5892 C.ar      23 UNK        -0.1150 
     13 C13         0.7950  -19.3057  -50.8412 C.ar      23 UNK        -0.0193 
     14 C14         1.7849  -18.3596  -51.1199 C.ar      23 UNK        -0.1150 
     15 C15         1.1266  -20.7919  -50.8370 C.3       23 UNK        -0.0205 
     16 S16         2.2657  -21.2640  -49.4937 S.3       23 UNK        -0.2404 
     17 C17         1.3562  -20.7339  -48.0031 C.3       23 UNK        -0.0398 
     18 CA          0.5740  -21.8705  -47.3056 C.3       11 UNK         0.1400 
     19 N           0.2044  -21.5006  -45.9392 N.am      11 UNK        -0.5000 
     20 C          -0.3522  -22.3189  -45.0359 C.2       10 UNK         0.5000 
     21 O          -0.5621  -23.5162  -45.2323 O.2       10 UNK        -0.5000 
     22 CA         -0.8017  -21.6707  -43.7121 C.3       10 UNK         0.1400 
     23 CB          0.3879  -21.4704  -42.7616 C.3       10 UNK        -0.1800 
     24 N          -1.4809  -20.3908  -43.9259 N.am      10 UNK        -0.5000 
     25 C          -2.6403  -20.2537  -44.5859 C.2       9 UNK         0.5000 
     26 O          -3.2950  -21.1990  -45.0227 O.2       9 UNK        -0.5000 
     27 CA         -3.1207  -18.8182  -44.8526 C.3       9 UNK         0.1400 
     28 CB         -3.8620  -18.2484  -43.6343 C.3       9 UNK        -0.1800 
     29 N          -2.0136  -17.9367  -45.2223 N.am      9 UNK        -0.5000 
     30 C          -1.3571  -18.0056  -46.3896 C.2       8 UNK         0.5000 
     31 O          -1.6359  -18.8031  -47.2823 O.2       8 UNK        -0.5000 
     32 CA         -0.1677  -17.0486  -46.5756 C.3       8 UNK         0.1400 
     33 CB         -0.6636  -15.6721  -47.0425 C.3       8 UNK        -0.1800 
     34 N           0.6215  -16.8945  -45.3533 N.am      8 UNK        -0.5000 
     35 C           1.3320  -17.8705  -44.7717 C.2       7 UNK         0.5000 
     36 O           1.4270  -19.0079  -45.2283 O.2       7 UNK        -0.5000 
     37 CA          1.9867  -17.5451  -43.4151 C.3       7 UNK         0.1400 
     38 CB          3.4241  -17.0410  -43.6016 C.3       7 UNK        -0.1800 
     39 N           1.2223  -16.5846  -42.6113 N.am      7 UNK        -0.5000 
     40 C          -0.0138  -16.8172  -42.1418 C.2       6 UNK         0.5000 
     41 O          -0.6405  -17.8504  -42.3848 O.2       6 UNK        -0.5000 
     42 CA         -0.6456  -15.7200  -41.2677 C.3       6 UNK         0.1400 
     43 CB         -1.7899  -16.2412  -40.3784 C.3       6 UNK        -0.1800 
     44 N           0.3741  -15.0854  -40.4352 N.am      6 UNK        -0.5000 
     45 C           0.4366  -13.7800  -40.1535 C.2       5 UNK         0.5000 
     46 O          -0.3927  -12.9575  -40.5479 O.2       5 UNK        -0.5000 
     47 CA          1.6280  -13.2937  -39.3109 C.3       5 UNK         0.1400 
     48 CB          2.6140  -14.4025  -38.8863 C.3       5 UNK        -0.1800 
     49 N           2.3413  -12.2983  -40.0980 N.am      5 UNK        -0.5000 
     50 C           2.8329  -11.1383  -39.6486 C.2       4 UNK         0.5000 
     51 O           2.7489  -10.7749  -38.4738 O.2       4 UNK        -0.5000 
     52 CA          3.5166  -10.2218  -40.6908 C.3       4 UNK         0.1400 
     53 CB          4.6495   -9.3674  -40.0838 C.3       4 UNK        -0.1800 
     54 N           3.9758  -10.9335  -41.8920 N.am      4 UNK        -0.5000 
     55 C           4.9082  -11.8970  -41.9641 C.2       3 UNK         0.5000 
     56 O           5.5898  -12.2670  -41.0069 O.2       3 UNK        -0.5000 
     57 CA          5.0770  -12.5735  -43.3421 C.3       3 UNK         0.1400 
     58 CB          5.7239  -13.9707  -43.2429 C.3       3 UNK        -0.1800 
     59 N           3.8309  -12.6441  -44.1173 N.am      3 UNK        -0.5000 
     60 C           2.6940  -13.2728  -43.7733 C.2       2 UNK         0.5000 
     61 O           2.5185  -13.8396  -42.6938 O.2       2 UNK        -0.5000 
     62 CA          1.5446  -13.2758  -44.8001 C.3       2 UNK         0.1400 
     63 CB          0.4744  -12.2475  -44.4080 C.3       2 UNK        -0.1800 
     64 N           1.9774  -13.0195  -46.1739 N.am      2 UNK        -0.5000 
     65 C           2.7617  -13.8271  -46.9052 C.2       1 UNK         0.5000 
     66 O           3.1156  -14.9438  -46.5305 O.2       1 UNK        -0.5000 
     67 C          -0.6562  -22.3138  -48.1232 C.2       11 UNK         0.5000 
     68 O          -0.6106  -23.3698  -48.7523 O.2       11 UNK        -0.5000 
     69 N          -1.7467  -21.5339  -48.0692 N.am      12 UNK        -0.5000 
     70 CA         -3.0173  -21.8525  -48.7204 C.3       12 UNK         0.1400 
     71 CB         -3.9941  -20.6757  -48.5948 C.3       12 UNK        -0.1800 
     72 C          -3.6507  -23.1530  -48.1999 C.2       12 UNK         0.5000 
     73 O          -4.1369  -23.9419  -49.0074 O.2       12 UNK        -0.5000 
     74 N          -3.5954  -23.3822  -46.8807 N.am      13 UNK        -0.5000 
     75 CA         -4.0450  -24.6184  -46.2392 C.3       13 UNK         0.1400 
     76 CB         -4.0041  -24.4613  -44.7119 C.3       13 UNK        -0.1800 
     77 C          -3.2359  -25.8478  -46.6927 C.2       13 UNK         0.5000 
     78 O          -3.8321  -26.8732  -47.0233 O.2       13 UNK        -0.5000 
     79 N          -1.9032  -25.7098  -46.7570 N.am      14 UNK        -0.5000 
     80 CA         -0.9847  -26.7327  -47.2684 C.3       14 UNK         0.1400 
     81 CB          0.4639  -26.3027  -46.9919 C.3       14 UNK        -0.1800 
     82 C          -1.1918  -27.0345  -48.7671 C.2       14 UNK         0.5000 
     83 O          -1.0826  -28.1893  -49.1796 O.2       14 UNK        -0.5000 
     84 N          -1.5289  -25.9964  -49.5420 N.am      15 UNK        -0.5000 
     85 CA         -1.8818  -26.0578  -50.9615 C.3       15 UNK         0.1400 
     86 CB         -1.6883  -24.6549  -51.5590 C.3       15 UNK        -0.1800 
     87 C          -3.3171  -26.5644  -51.2280 C.2       15 UNK         0.5000 
     88 O          -3.7057  -26.6663  -52.3930 O.2       15 UNK        -0.5000 
     89 N          -4.0896  -26.8385  -50.1639 N.am      16 UNK        -0.5000 
     90 CA         -5.4943  -27.2651  -50.1659 C.3       16 UNK         0.1400 
     91 CB         -5.6313  -28.6844  -50.7544 C.3       16 UNK        -0.1800 
     92 C          -6.4331  -26.2406  -50.8395 C.2       16 UNK         0.5000 
     93 O          -7.4042  -26.6243  -51.4951 O.2       16 UNK        -0.5000 
     94 N          -6.1016  -24.9513  -50.6812 N.am      17 UNK        -0.5000 
     95 CA         -6.7117  -23.7411  -51.2377 C.3       17 UNK         0.1400 
     96 CB         -8.1640  -23.5691  -50.7576 C.3       17 UNK        -0.1800 
     97 C          -6.6110  -23.6212  -52.7692 C.2       17 UNK         0.5000 
     98 O          -6.2000  -22.5713  -53.2625 O.2       17 UNK        -0.5000 
     99 N          -6.9826  -24.6841  -53.4907 N.am      18 UNK        -0.5000 
    100 CA        -7.1294  -24.7368  -54.9448 C.3       18 UNK         0.1400 
    101 CB        -7.6786  -26.1155  -55.3415 C.3       18 UNK        -0.1800 
    102 C         -5.8467  -24.4203  -55.7330 C.2       18 UNK         0.5000 
    103 O         -5.9254  -23.7344  -56.7529 O.2       18 UNK        -0.5000 
    104 N         -4.6945  -24.9118  -55.2551 N.am      19 UNK        -0.5000 
    105 CA        -3.3997  -24.6888  -55.9047 C.3       19 UNK         0.1400 
    106 CB        -2.4337  -25.8253  -55.5373 C.3       19 UNK        -0.1800 
    107 C         -2.7934  -23.3082  -55.5846 C.2       19 UNK         0.5000 
    108 O         -1.9660  -22.8255  -56.3587 O.2       19 UNK        -0.5000 
    109 N         -3.2117  -22.6937  -54.4691 N.am      20 UNK        -0.5000 
    110 CA        -2.8183  -21.3377  -54.0835 C.3       20 UNK         0.1400 
    111 CB        -2.8732  -21.1998  -52.5547 C.3       20 UNK        -0.1800 
    112 C         -3.7032  -20.2795  -54.7640 C.2       20 UNK         0.5000 
    113 O         -3.1824  -19.2796  -55.2582 O.2       20 UNK        -0.5000 
    114 N         -5.0208  -20.5345  -54.7820 N.am      21 UNK        -0.5000 
    115 CA        -6.0889  -19.7027  -55.3471 C.3       21 UNK         0.1400 
    116 CB        -5.9399  -19.5775  -56.8777 C.3       21 UNK        -0.1800 
    117 C         -6.2536  -18.3394  -54.6378 C.2       21 UNK         0.5000 
    118 O         -6.7064  -17.3740  -55.2560 O.2       21 UNK        -0.5000 
    119 N         -5.8978  -18.2874  -53.3472 N.am      22 UNK        -0.5000 
    120 CA        -5.9734  -17.0856  -52.4956 C.3       22 UNK         0.1400 
    121 C         -7.3966  -16.7749  -51.9441 C.2       22 UNK         0.5000 
    122 N         -8.3870  -17.6416  -52.1189 N.am      22 UNK        -0.7600 
    123 O         -7.6096  -15.7200  -51.3528 O.2       22 UNK        -0.5000 
    124 C124       -4.9328  -17.1262  -51.3454 C.3       23 UNK        -0.0398 
    125 S125       -3.2252  -17.2813  -51.9623 S.3       23 UNK        -0.2404 
    126 C126       -2.2744  -17.0805  -50.4264 C.3       23 UNK        -0.0205 
    127 H127        3.2182   -8.9333  -47.1023 H         1 UNK         0.0600 
    128 H128        2.9334   -9.3143  -48.8032 H         1 UNK         0.0600 
    129 H129        4.5740   -8.9947  -48.2334 H         1 UNK         0.0600 
    130 H130        2.5525  -11.4816  -49.1281 H         1 UNK         0.3000 
    131 H131        4.3250  -13.5012  -48.3057 H         1 UNK         0.0600 
    132 H132        1.5342  -14.2813  -49.2320 H         1 UNK         0.0800 
    133 H133        2.5178  -13.3481  -50.3220 H         1 UNK         0.0800 
    134 H134        2.1446  -15.1095  -51.9684 H         1 UNK         0.0800 
    135 H135        3.2670  -16.4224  -52.1866 H         1 UNK         0.0800 
    136 H136       -0.0812  -15.5276  -50.9483 H         1 UNK         0.1150 
    137 H137       -1.2835  -19.6004  -50.3736 H         1 UNK         0.1150 
    138 H138        2.7964  -18.6877  -51.3147 H         1 UNK         0.1150 
    139 H139        0.2188  -21.3926  -50.7687 H         1 UNK         0.0800 
    140 H140        1.5863  -21.0523  -51.7912 H         1 UNK         0.0800 
    141 H141        0.7105  -19.8827  -48.2171 H         1 UNK         0.0800 
    142 H142        2.1176  -20.3533  -47.3222 H         1 UNK         0.0800 
    143 H143        1.2378  -22.7339  -47.2236 H         1 UNK         0.0600 
    144 H144        0.4000  -20.5406  -45.6686 H         1 UNK         0.3000 
    145 H145       -1.5101  -22.3492  -43.2323 H         1 UNK         0.0600 
    146 H146        0.8766  -22.4211  -42.5450 H         1 UNK         0.0600 
    147 H147        1.1393  -20.8057  -43.1874 H         1 UNK         0.0600 
    148 H148        0.0657  -21.0449  -41.8109 H         1 UNK         0.0600 
    149 H149       -1.0272  -19.5587  -43.5653 H         1 UNK         0.3000 
    150 H150       -3.8231  -18.8488  -45.6881 H         1 UNK         0.0600 
    151 H151       -4.2081  -17.2318  -43.8207 H         1 UNK         0.0600 
    152 H152       -3.2316  -18.2325  -42.7457 H         1 UNK         0.0600 
    153 H153       -4.7390  -18.8525  -43.3988 H         1 UNK         0.0600 
    154 H154       -1.6839  -17.3016  -44.5110 H         1 UNK         0.3000 
    155 H155        0.4790  -17.4628  -47.3525 H         1 UNK         0.0600 
    156 H156       -1.2545  -15.1705  -46.2753 H         1 UNK         0.0600 
    157 H157       -1.2890  -15.7628  -47.9303 H         1 UNK         0.0600 
    158 H158        0.1679  -15.0221  -47.3050 H         1 UNK         0.0600 
    159 H159        0.5977  -15.9941  -44.9042 H         1 UNK         0.3000 
    160 H160        2.0341  -18.4777  -42.8491 H         1 UNK         0.0600 
    161 H161        4.0233  -17.7668  -44.1528 H         1 UNK         0.0600 
    162 H162        3.4554  -16.1052  -44.1576 H         1 UNK         0.0600 
    163 H163        3.9128  -16.8773  -42.6412 H         1 UNK         0.0600 
    164 H164        1.6742  -15.6997  -42.4032 H         1 UNK         0.3000 
    165 H165       -1.0598  -14.9881  -41.9641 H         1 UNK         0.0600 
    166 H166       -2.2227  -15.4379  -39.7821 H         1 UNK         0.0600 
    167 H167       -2.5952  -16.6644  -40.9790 H         1 UNK         0.0600 
    168 H168       -1.4436  -17.0171  -39.6948 H         1 UNK         0.0600 
    169 H169        1.1045  -15.6929  -40.0903 H         1 UNK         0.3000 
    170 H170        1.2080  -12.8368  -38.4127 H         1 UNK         0.0600 
    171 H171        3.4184  -13.9905  -38.2766 H         1 UNK         0.0600 
    172 H172        2.1198  -15.1671  -38.2858 H         1 UNK         0.0600 
    173 H173        3.0750  -14.8882  -39.7479 H         1 UNK         0.0600 
    174 H174        2.4423  -12.5287  -41.0804 H         1 UNK         0.3000 
    175 H175        2.7404   -9.5351  -41.0312 H         1 UNK         0.0600 
    176 H176        5.4300   -9.9842  -39.6378 H         1 UNK         0.0600 
    177 H177        5.1129   -8.7325  -40.8388 H         1 UNK         0.0600 
    178 H178        4.2678   -8.7110  -39.3010 H         1 UNK         0.0600 
    179 H179        3.4795  -10.7108  -42.7433 H         1 UNK         0.3000 
    180 H180        5.7534  -11.9359  -43.9130 H         1 UNK         0.0600 
    181 H181        6.7287  -13.9085  -42.8235 H         1 UNK         0.0600 
    182 H182        5.8104  -14.4366  -44.2246 H         1 UNK         0.0600 
    183 H183        5.1447  -14.6384  -42.6046 H         1 UNK         0.0600 
    184 H184        3.8771  -12.2045  -45.0313 H         1 UNK         0.3000 
    185 H185        1.0885  -14.2644  -44.7686 H         1 UNK         0.0600 
    186 H186        0.1092  -12.4281  -43.3957 H         1 UNK         0.0600 
    187 H187        0.8631  -11.2289  -44.4398 H         1 UNK         0.0600 
    188 H188       -0.3862  -12.3004  -45.0752 H         1 UNK         0.0600 
    189 H189        1.7350  -12.1202  -46.5636 H         1 UNK         0.3000 
    190 H190       -1.7025  -20.6464  -47.5741 H         1 UNK         0.3000 
    191 H191       -2.8085  -21.9963  -49.7804 H         1 UNK         0.0600 
    192 H192       -4.2104  -20.4412  -47.5528 H         1 UNK         0.0600 
    193 H193       -4.9417  -20.8997  -49.0864 H         1 UNK         0.0600 
    194 H194       -3.5907  -19.7800  -49.0645 H         1 UNK         0.0600 
    195 H195       -3.2347  -22.6545  -46.2695 H         1 UNK         0.3000 
    196 H196       -5.0843  -24.7820  -46.5320 H         1 UNK         0.0600 
    197 H197       -4.3565  -25.3669  -44.2167 H         1 UNK         0.0600 
    198 H198       -4.6433  -23.6415  -44.3840 H         1 UNK         0.0600 
    199 H199       -2.9951  -24.2614  -44.3519 H         1 UNK         0.0600 
    200 H200       -1.4854  -24.8407  -46.4378 H         1 UNK         0.3000 
    201 H201       -1.1752  -27.6557  -46.7171 H         1 UNK         0.0600 
    202 H202        0.6338  -26.1539  -45.9254 H         1 UNK         0.0600 
    203 H203        0.7131  -25.3719  -47.5019 H         1 UNK         0.0600 
    204 H204        1.1686  -27.0625  -47.3317 H         1 UNK         0.0600 
    205 H205       -1.5150  -25.0687  -49.1276 H         1 UNK         0.3000 
    206 H206       -1.1956  -26.7430  -51.4629 H         1 UNK         0.0600 
    207 H207       -1.8691  -24.6436  -52.6319 H         1 UNK         0.0600 
    208 H208       -2.3742  -23.9399  -51.1074 H         1 UNK         0.0600 
    209 H209       -0.6725  -24.2920  -51.4007 H         1 UNK         0.0600 
    210 H210       -3.6898  -26.6895  -49.2459 H         1 UNK         0.3000 
    211 H211       -5.7986  -27.3104  -49.1195 H         1 UNK         0.0600 
    212 H212       -5.4026  -28.7054  -51.8203 H         1 UNK         0.0600 
    213 H213       -6.6465  -29.0630  -50.6306 H         1 UNK         0.0600 
    214 H214       -4.9621  -29.3841  -50.2536 H         1 UNK         0.0600 
    215 H215       -5.2797  -24.7590  -50.1088 H         1 UNK         0.3000 
    216 H216       -6.1345  -22.9118  -50.8254 H         1 UNK         0.0600 
    217 H217       -8.5763  -22.6195  -51.1011 H         1 UNK         0.0600 
    218 H218       -8.2204  -23.5729  -49.6691 H         1 UNK         0.0600 
    219 H219       -8.8156  -24.3599  -51.1299 H         1 UNK         0.0600 
    220 H220       -7.2697  -25.5098  -52.9703 H         1 UNK         0.3000 
    221 H221       -7.8717  -23.9849  -55.2201 H         1 UNK         0.0600 
    222 H222       -7.0020  -26.9176  -55.0437 H         1 UNK         0.0600 
    223 H223       -8.6458  -26.3035  -54.8749 H         1 UNK         0.0600 
    224 H224       -7.8196  -26.1863  -56.4209 H         1 UNK         0.0600 
    225 H225       -4.7008  -25.4694  -54.4105 H         1 UNK         0.3000 
    226 H226       -3.5418  -24.7281  -56.9870 H         1 UNK         0.0600 
    227 H227       -2.8263  -26.7913  -55.8550 H         1 UNK         0.0600 
    228 H228       -1.4682  -25.6911  -56.0266 H         1 UNK         0.0600 
    229 H229       -2.2521  -25.8783  -54.4663 H         1 UNK         0.0600 
    230 H230       -3.9310  -23.1380  -53.9174 H         1 UNK         0.3000 
    231 H231       -1.7868  -21.1554  -54.3931 H         1 UNK         0.0600 
    232 H232       -3.8406  -21.4967  -52.1487 H         1 UNK         0.0600 
    233 H233       -2.1029  -21.8097  -52.0855 H         1 UNK         0.0600 
    234 H234       -2.6908  -20.1699  -52.2504 H         1 UNK         0.0600 
    235 H235       -5.3513  -21.3723  -54.3059 H         1 UNK         0.3000 
    236 H236       -7.0148  -20.2473  -55.1571 H         1 UNK         0.0600 
    237 H237       -5.0713  -18.9794  -57.1538 H         1 UNK         0.0600 
    238 H238       -5.8350  -20.5579  -57.3431 H         1 UNK         0.0600 
    239 H239       -6.8167  -19.1026  -57.3191 H         1 UNK         0.0600 
    240 H240       -5.5281  -19.1213  -52.9165 H         1 UNK         0.3000 
    241 H241       -5.7174  -16.2279  -53.1208 H         1 UNK         0.0600 
    242 H242       -9.3047  -17.4251  -51.7621 H         1 UNK         0.3800 
    243 H243       -8.2303  -18.5087  -52.6064 H         1 UNK         0.3800 
    244 H244       -4.9897  -16.2169  -50.7439 H         1 UNK         0.0800 
    245 H245       -5.1396  -17.9587  -50.6707 H         1 UNK         0.0800 
    246 H246       -2.7239  -17.6690  -49.6261 H         1 UNK         0.0800 
    247 H247       -2.3197  -16.0377  -50.1103 H         1 UNK         0.0800 
@<TRIPOS>BOND
     1    1    2 1    
     2    1  127 1    
     3    1  128 1    
     4    1  129 1    
     5    2    3 2    
     6    2    4 am   BACKBONE|DICT|INTERRES
     7    4    5 1    
     8    4  130 1    
     9    5    6 1    
    10    5   65 1    
    11    5  131 1    
    12    6    7 1    
    13    6  132 1    
    14    6  133 1    
    15    7    8 1    
    16    8    9 1    
    17    8  134 1    
    18    8  135 1    
    19    9   10 ar   
    20    9   14 ar   
    21   10   11 ar   
    22   10  136 1    
    23   11   12 ar   
    24   11  126 1    
    25   12   13 ar   
    26   12  137 1    
    27   13   14 ar   
    28   13   15 1    
    29   14  138 1    
    30   15   16 1    
    31   15  139 1    
    32   15  140 1    
    33   16   17 1    
    34   17   18 1    
    35   17  141 1    
    36   17  142 1    
    37   18   19 1    
    38   18   67 1    
    39   18  143 1    
    40   19   20 am   BACKBONE|DICT|INTERRES
    41   19  144 1    
    42   20   21 2    
    43   20   22 1    
    44   22   23 1    
    45   22   24 1    
    46   22  145 1    
    47   23  146 1    
    48   23  147 1    
    49   23  148 1    
    50   24   25 am   BACKBONE|DICT|INTERRES
    51   24  149 1    
    52   25   26 2    
    53   25   27 1    
    54   27   28 1    
    55   27   29 1    
    56   27  150 1    
    57   28  151 1    
    58   28  152 1    
    59   28  153 1    
    60   29   30 am   BACKBONE|DICT|INTERRES
    61   29  154 1    
    62   30   31 2    
    63   30   32 1    
    64   32   33 1    
    65   32   34 1    
    66   32  155 1    
    67   33  156 1    
    68   33  157 1    
    69   33  158 1    
    70   34   35 am   BACKBONE|DICT|INTERRES
    71   34  159 1    
    72   35   36 2    
    73   35   37 1    
    74   37   38 1    
    75   37   39 1    
    76   37  160 1    
    77   38  161 1    
    78   38  162 1    
    79   38  163 1    
    80   39   40 am   BACKBONE|DICT|INTERRES
    81   39  164 1    
    82   40   41 2    
    83   40   42 1    
    84   42   43 1    
    85   42   44 1    
    86   42  165 1    
    87   43  166 1    
    88   43  167 1    
    89   43  168 1    
    90   44   45 am   BACKBONE|DICT|INTERRES
    91   44  169 1    
    92   45   46 2    
    93   45   47 1    
    94   47   48 1    
    95   47   49 1    
    96   47  170 1    
    97   48  171 1    
    98   48  172 1    
    99   48  173 1    
   100   49   50 am   BACKBONE|DICT|INTERRES
   101   49  174 1    
   102   50   51 2    
   103   50   52 1    
   104   52   53 1    
   105   52   54 1    
   106   52  175 1    
   107   53  176 1    
   108   53  177 1    
   109   53  178 1    
   110   54   55 am   BACKBONE|DICT|INTERRES
   111   54  179 1    
   112   55   56 2    
   113   55   57 1    
   114   57   58 1    
   115   57   59 1    
   116   57  180 1    
   117   58  181 1    
   118   58  182 1    
   119   58  183 1    
   120   59   60 am   BACKBONE|DICT|INTERRES
   121   59  184 1    
   122   60   61 2    
   123   60   62 1    
   124   62   63 1    
   125   62   64 1    
   126   62  185 1    
   127   63  186 1    
   128   63  187 1    
   129   63  188 1    
   130   64   65 am   BACKBONE|DICT|INTERRES
   131   64  189 1    
   132   65   66 2    
   133   67   68 2    
   134   67   69 am   BACKBONE|DICT|INTERRES
   135   69   70 1    
   136   69  190 1    
   137   70   71 1    
   138   70   72 1    
   139   70  191 1    
   140   71  192 1    
   141   71  193 1    
   142   71  194 1    
   143   72   73 2    
   144   72   74 am   BACKBONE|DICT|INTERRES
   145   74   75 1    
   146   74  195 1    
   147   75   76 1    
   148   75   77 1    
   149   75  196 1    
   150   76  197 1    
   151   76  198 1    
   152   76  199 1    
   153   77   78 2    
   154   77   79 am   BACKBONE|DICT|INTERRES
   155   79   80 1    
   156   79  200 1    
   157   80   81 1    
   158   80   82 1    
   159   80  201 1    
   160   81  202 1    
   161   81  203 1    
   162   81  204 1    
   163   82   83 2    
   164   82   84 am   BACKBONE|DICT|INTERRES
   165   84   85 1    
   166   84  205 1    
   167   85   86 1    
   168   85   87 1    
   169   85  206 1    
   170   86  207 1    
   171   86  208 1    
   172   86  209 1    
   173   87   88 2    
   174   87   89 am   BACKBONE|DICT|INTERRES
   175   89   90 1    
   176   89  210 1    
   177   90   91 1    
   178   90   92 1    
   179   90  211 1    
   180   91  212 1    
   181   91  213 1    
   182   91  214 1    
   183   92   93 2    
   184   92   94 am   BACKBONE|DICT|INTERRES
   185   94   95 1    
   186   94  215 1    
   187   95   96 1    
   188   95   97 1    
   189   95  216 1    
   190   96  217 1    
   191   96  218 1    
   192   96  219 1    
   193   97   98 2    
   194   97   99 am   BACKBONE|DICT|INTERRES
   195   99  100 1    
   196   99  220 1    
   197  100  101 1    
   198  100  102 1    
   199  100  221 1    
   200  101  222 1    
   201  101  223 1    
   202  101  224 1    
   203  102  103 2    
   204  102  104 am   BACKBONE|DICT|INTERRES
   205  104  105 1    
   206  104  225 1    
   207  105  106 1    
   208  105  107 1    
   209  105  226 1    
   210  106  227 1    
   211  106  228 1    
   212  106  229 1    
   213  107  108 2    
   214  107  109 am   BACKBONE|DICT|INTERRES
   215  109  110 1    
   216  109  230 1    
   217  110  111 1    
   218  110  112 1    
   219  110  231 1    
   220  111  232 1    
   221  111  233 1    
   222  111  234 1    
   223  112  113 2    
   224  112  114 am   BACKBONE|DICT|INTERRES
   225  114  115 1    
   226  114  235 1    
   227  115  116 1    
   228  115  117 1    
   229  115  236 1    
   230  116  237 1    
   231  116  238 1    
   232  116  239 1    
   233  117  118 2    
   234  117  119 am   BACKBONE|DICT|INTERRES
   235  119  120 1    
   236  119  240 1    
   237  120  121 1    
   238  120  124 1    
   239  120  241 1    
   240  121  122 am   BACKBONE|DICT|INTERRES
   241  121  123 2    
   242  122  242 1    
   243  122  243 1    
   244  124  125 1    
   245  124  244 1    
   246  124  245 1    
   247  125  126 1    
   248  126  246 1    
   249  126  247 1    
@<TRIPOS>SUBSTRUCTURE
     1 UNK         1 GROUP             0       ****    0 ROOT    
