@<TRIPOS>MOLECULE
3R540
247   249    1
SMALL
USER_CHARGES


@<TRIPOS>ATOM
      1 CA         -3.2558  -18.6581  -47.3563 C.3       0 UNK        -0.1800 
      2 C          -2.1240  -17.6449  -47.4524 C.2       0 UNK         0.5000 
      3 O          -1.5389  -17.2852  -46.4312 O.2       0 UNK        -0.5000 
      4 N          -1.8026  -17.1950  -48.6736 N.am      1 UNK        -0.5000 
      5 CA         -0.7079  -16.2671  -48.9819 C.3       1 UNK         0.1400 
      6 C6          0.6703  -16.9067  -48.6463 C.3       23 UNK        -0.0398 
      7 S7          2.0861  -16.2368  -49.5931 S.3       23 UNK        -0.2404 
      8 C8          1.9168  -16.9233  -51.2835 C.3       23 UNK        -0.0205 
      9 C9          1.1266  -18.2216  -51.3497 C.ar      23 UNK        -0.0193 
     10 C10        -0.1633  -18.2245  -51.8830 C.ar      23 UNK        -0.1150 
     11 C11        -0.9359  -19.3870  -51.8756 C.ar      23 UNK        -0.0193 
     12 C12        -0.4055  -20.5611  -51.3351 C.ar      23 UNK        -0.1150 
     13 C13         0.8825  -20.5677  -50.7863 C.ar      23 UNK        -0.0193 
     14 C14         1.6553  -19.4035  -50.8250 C.ar      23 UNK        -0.1150 
     15 C15         1.4242  -21.8120  -50.0976 C.3       23 UNK        -0.0205 
     16 S16         1.3834  -21.6419  -48.2795 S.3       23 UNK        -0.2404 
     17 C17        -0.4080  -21.5212  -47.9539 C.3       23 UNK        -0.0398 
     18 CA         -0.9139  -22.6483  -47.0259 C.3       11 UNK         0.1400 
     19 N          -0.5193  -22.4327  -45.6278 N.am      11 UNK        -0.5000 
     20 C          -0.7646  -23.2754  -44.6111 C.2       10 UNK         0.5000 
     21 O          -1.3245  -24.3621  -44.7536 O.2       10 UNK        -0.5000 
     22 CA         -0.3960  -22.8125  -43.1879 C.3       10 UNK         0.1400 
     23 CB          0.9862  -23.3531  -42.7953 C.3       10 UNK        -0.1800 
     24 N          -0.4107  -21.3596  -43.0095 N.am      10 UNK        -0.5000 
     25 C          -1.4454  -20.5443  -43.2628 C.2       9 UNK         0.5000 
     26 O          -2.5549  -20.9403  -43.6199 O.2       9 UNK        -0.5000 
     27 CA         -1.1827  -19.0294  -43.1561 C.3       9 UNK         0.1400 
     28 CB         -1.7082  -18.4890  -41.8170 C.3       9 UNK        -0.1800 
     29 N           0.2239  -18.6352  -43.3097 N.am      9 UNK        -0.5000 
     30 C           1.0131  -18.9016  -44.3630 C.2       8 UNK         0.5000 
     31 O           0.6573  -19.5877  -45.3215 O.2       8 UNK        -0.5000 
     32 CA          2.4449  -18.3354  -44.3297 C.3       8 UNK         0.1400 
     33 CB          2.7433  -17.5108  -45.5906 C.3       8 UNK        -0.1800 
     34 N           2.6845  -17.4795  -43.1676 N.am      8 UNK        -0.5000 
     35 C           3.4144  -17.8010  -42.0923 C.2       7 UNK         0.5000 
     36 O           3.8762  -18.9248  -41.8889 O.2       7 UNK        -0.5000 
     37 CA          3.6766  -16.6485  -41.0954 C.3       7 UNK         0.1400 
     38 CB          4.8408  -16.9329  -40.1245 C.3       7 UNK        -0.1800 
     39 N           3.8577  -15.3607  -41.7797 N.am      7 UNK        -0.5000 
     40 C           4.7962  -15.0444  -42.6873 C.2       6 UNK         0.5000 
     41 O           5.7606  -15.7618  -42.9551 O.2       6 UNK        -0.5000 
     42 CA          4.6101  -13.7253  -43.4621 C.3       6 UNK         0.1400 
     43 CB          4.4228  -14.0080  -44.9617 C.3       6 UNK        -0.1800 
     44 N           3.4512  -12.9617  -42.9912 N.am      6 UNK        -0.5000 
     45 C           3.5147  -11.7775  -42.3674 C.2       5 UNK         0.5000 
     46 O           4.5637  -11.1702  -42.1494 O.2       5 UNK        -0.5000 
     47 CA          2.1805  -11.1703  -41.8891 C.3       5 UNK         0.1400 
     48 CB          1.6170  -10.2117  -42.9484 C.3       5 UNK        -0.1800 
     49 N           1.1699  -12.1797  -41.5615 N.am      5 UNK        -0.5000 
     50 C           1.2609  -13.0379  -40.5344 C.2       4 UNK         0.5000 
     51 O           2.1977  -13.0440  -39.7363 O.2       4 UNK        -0.5000 
     52 CA          0.1480  -14.0931  -40.3813 C.3       4 UNK         0.1400 
     53 CB         -0.8299  -13.6841  -39.2696 C.3       4 UNK        -0.1800 
     54 N          -0.6138  -14.3658  -41.6018 N.am      4 UNK        -0.5000 
     55 C          -0.1219  -14.8574  -42.7459 C.2       3 UNK         0.5000 
     56 O           1.0758  -15.0945  -42.9279 O.2       3 UNK        -0.5000 
     57 CA         -1.1308  -15.1519  -43.8732 C.3       3 UNK         0.1400 
     58 CB         -2.5786  -14.6990  -43.5807 C.3       3 UNK        -0.1800 
     59 N          -0.6821  -14.6349  -45.1630 N.am      3 UNK        -0.5000 
     60 C          -0.4141  -13.3599  -45.4836 C.2       2 UNK         0.5000 
     61 O          -0.5029  -12.4269  -44.6841 O.2       2 UNK        -0.5000 
     62 CA          0.0370  -13.0698  -46.9338 C.3       2 UNK         0.1400 
     63 CB          1.4160  -12.3921  -46.9532 C.3       2 UNK        -0.1800 
     64 N           0.0993  -14.2719  -47.7694 N.am      2 UNK        -0.5000 
     65 C          -0.9528  -14.8819  -48.3310 C.2       1 UNK         0.5000 
     66 O          -2.0900  -14.4051  -48.3239 O.2       1 UNK        -0.5000 
     67 C          -2.4346  -22.8376  -47.2163 C.2       11 UNK         0.5000 
     68 O          -2.8301  -23.5022  -48.1747 O.2       11 UNK        -0.5000 
     69 N          -3.2603  -22.3059  -46.3022 N.am      12 UNK        -0.5000 
     70 CA         -4.7118  -22.5006  -46.3018 C.3       12 UNK         0.1400 
     71 CB         -5.3565  -21.5231  -45.3087 C.3       12 UNK        -0.1800 
     72 C          -5.1372  -23.9504  -45.9919 C.2       12 UNK         0.5000 
     73 O          -6.2553  -24.3291  -46.3399 O.2       12 UNK        -0.5000 
     74 N          -4.2476  -24.7319  -45.3647 N.am      13 UNK        -0.5000 
     75 CA         -4.4384  -26.1493  -45.0696 C.3       13 UNK         0.1400 
     76 CB         -4.1529  -26.3976  -43.5797 C.3       13 UNK        -0.1800 
     77 C          -3.5238  -27.0161  -45.9493 C.2       13 UNK         0.5000 
     78 O          -4.0003  -27.9733  -46.5584 O.2       13 UNK        -0.5000 
     79 N          -2.2309  -26.6662  -46.0075 N.am      14 UNK        -0.5000 
     80 CA         -1.1796  -27.4428  -46.6677 C.3       14 UNK         0.1400 
     81 CB          0.1924  -26.9108  -46.2248 C.3       14 UNK        -0.1800 
     82 C          -1.2818  -27.4474  -48.2021 C.2       14 UNK         0.5000 
     83 O          -0.9918  -28.4713  -48.8219 O.2       14 UNK        -0.5000 
     84 N          -1.6942  -26.3128  -48.7800 N.am      15 UNK        -0.5000 
     85 CA         -1.8902  -26.1316  -50.2202 C.3       15 UNK         0.1400 
     86 CB         -1.0011  -24.9692  -50.6976 C.3       15 UNK        -0.1800 
     87 C          -3.3678  -25.8695  -50.5623 C.2       15 UNK         0.5000 
     88 O          -3.6741  -25.6032  -51.7239 O.2       15 UNK        -0.5000 
     89 N          -4.2509  -25.8967  -49.5499 N.am      16 UNK        -0.5000 
     90 CA         -5.6906  -25.6050  -49.6028 C.3       16 UNK         0.1400 
     91 CB         -6.4247  -26.7176  -50.3793 C.3       16 UNK        -0.1800 
     92 C          -6.0319  -24.1955  -50.1447 C.2       16 UNK         0.5000 
     93 O          -7.1522  -23.9800  -50.6097 O.2       16 UNK        -0.5000 
     94 N          -5.0486  -23.2793  -50.1194 N.am      17 UNK        -0.5000 
     95 CA         -5.0240  -21.9761  -50.7961 C.3       17 UNK         0.1400 
     96 CB         -5.9980  -20.9912  -50.1165 C.3       17 UNK        -0.1800 
     97 C          -5.2357  -22.0652  -52.3295 C.2       17 UNK         0.5000 
     98 O          -5.6958  -21.1012  -52.9420 O.2       17 UNK        -0.5000 
     99 N          -4.9044  -23.2134  -52.9374 N.am      18 UNK        -0.5000 
    100 CA        -5.1600  -23.5197  -54.3437 C.3       18 UNK         0.1400 
    101 CB        -5.4867  -25.0189  -54.4732 C.3       18 UNK        -0.1800 
    102 C         -3.9855  -23.0851  -55.2407 C.2       18 UNK         0.5000 
    103 O         -3.3400  -23.9253  -55.8711 O.2       18 UNK        -0.5000 
    104 N         -3.7333  -21.7740  -55.2937 N.am      19 UNK        -0.5000 
    105 CA        -2.7828  -21.1393  -56.2023 C.3       19 UNK         0.1400 
    106 CB        -1.3630  -21.1714  -55.6091 C.3       19 UNK        -0.1800 
    107 C         -3.2510  -19.7059  -56.4833 C.2       19 UNK         0.5000 
    108 O         -3.9403  -19.1139  -55.6491 O.2       19 UNK        -0.5000 
    109 N         -2.8586  -19.1668  -57.6457 N.am      20 UNK        -0.5000 
    110 CA        -3.2854  -17.8610  -58.1662 C.3       20 UNK         0.1400 
    111 CB        -2.6837  -17.6569  -59.5648 C.3       20 UNK        -0.1800 
    112 C         -2.9470  -16.6639  -57.2568 C.2       20 UNK         0.5000 
    113 O         -3.6894  -15.6812  -57.2442 O.2       20 UNK        -0.5000 
    114 N         -1.8662  -16.7869  -56.4745 N.am      21 UNK        -0.5000 
    115 CA        -1.4288  -15.8123  -55.4717 C.3       21 UNK         0.1400 
    116 CB        -0.0456  -16.2324  -54.9516 C.3       21 UNK        -0.1800 
    117 C         -2.4242  -15.6077  -54.3072 C.2       21 UNK         0.5000 
    118 O         -2.3516  -14.5807  -53.6319 O.2       21 UNK        -0.5000 
    119 N         -3.3393  -16.5647  -54.1071 N.am      22 UNK        -0.5000 
    120 CA        -4.4679  -16.4807  -53.1675 C.3       22 UNK         0.1400 
    121 C         -5.7550  -15.8795  -53.8090 C.2       22 UNK         0.5000 
    122 N         -5.7685  -15.5028  -55.0834 N.am      22 UNK        -0.7600 
    123 O         -6.7660  -15.7287  -53.1284 O.2       22 UNK        -0.5000 
    124 C124       -4.7524  -17.8547  -52.5041 C.3       23 UNK        -0.0398 
    125 S125       -3.4316  -18.3559  -51.3512 S.3       23 UNK        -0.2404 
    126 C126       -2.3505  -19.3460  -52.4268 C.3       23 UNK        -0.0205 
    127 H127       -3.5014  -19.0871  -48.3280 H         1 UNK         0.0600 
    128 H128       -4.1501  -18.1850  -46.9515 H         1 UNK         0.0600 
    129 H129       -2.9694  -19.4717  -46.6905 H         1 UNK         0.0600 
    130 H130       -2.3401  -17.5077  -49.4724 H         1 UNK         0.3000 
    131 H131       -0.7595  -16.1024  -50.0583 H         1 UNK         0.0600 
    132 H132        0.8841  -16.8077  -47.5840 H         1 UNK         0.0800 
    133 H133        0.6323  -17.9854  -48.7924 H         1 UNK         0.0800 
    134 H134        1.4508  -16.1657  -51.9150 H         1 UNK         0.0800 
    135 H135        2.9123  -17.0870  -51.6982 H         1 UNK         0.0800 
    136 H136       -0.5884  -17.3100  -52.2708 H         1 UNK         0.1150 
    137 H137       -1.0065  -21.4591  -51.3117 H         1 UNK         0.1150 
    138 H138        2.6436  -19.3996  -50.3866 H         1 UNK         0.1150 
    139 H139        0.8624  -22.6974  -50.3955 H         1 UNK         0.0800 
    140 H140        2.4540  -21.9820  -50.4148 H         1 UNK         0.0800 
    141 H141       -0.6224  -20.5393  -47.5289 H         1 UNK         0.0800 
    142 H142       -0.9357  -21.5503  -48.9062 H         1 UNK         0.0800 
    143 H143       -0.4552  -23.5861  -47.3462 H         1 UNK         0.0600 
    144 H144       -0.0641  -21.5470  -45.4298 H         1 UNK         0.3000 
    145 H145       -1.1382  -23.2341  -42.5073 H         1 UNK         0.0600 
    146 H146        1.2232  -23.1166  -41.7578 H         1 UNK         0.0600 
    147 H147        1.0246  -24.4387  -42.8966 H         1 UNK         0.0600 
    148 H148        1.7740  -22.9364  -43.4243 H         1 UNK         0.0600 
    149 H149        0.4614  -20.9339  -42.7331 H         1 UNK         0.3000 
    150 H150       -1.7450  -18.5571  -43.9637 H         1 UNK         0.0600 
    151 H151       -2.7624  -18.7358  -41.6832 H         1 UNK         0.0600 
    152 H152       -1.6231  -17.4045  -41.7605 H         1 UNK         0.0600 
    153 H153       -1.1630  -18.9122  -40.9724 H         1 UNK         0.0600 
    154 H154        0.6248  -18.0933  -42.5592 H         1 UNK         0.3000 
    155 H155        3.1237  -19.1904  -44.3169 H         1 UNK         0.0600 
    156 H156        3.7790  -17.1704  -45.5991 H         1 UNK         0.0600 
    157 H157        2.1032  -16.6301  -45.6481 H         1 UNK         0.0600 
    158 H158        2.5921  -18.1016  -46.4951 H         1 UNK         0.0600 
    159 H159        2.2934  -16.5421  -43.2150 H         1 UNK         0.3000 
    160 H160        2.7682  -16.5515  -40.4994 H         1 UNK         0.0600 
    161 H161        5.7772  -17.1142  -40.6525 H         1 UNK         0.0600 
    162 H162        4.6345  -17.8141  -39.5161 H         1 UNK         0.0600 
    163 H163        4.9965  -16.0975  -39.4418 H         1 UNK         0.0600 
    164 H164        3.1158  -14.6911  -41.6390 H         1 UNK         0.3000 
    165 H165        5.5313  -13.1532  -43.3362 H         1 UNK         0.0600 
    166 H166        3.5080  -14.5700  -45.1514 H         1 UNK         0.0600 
    167 H167        4.3748  -13.0794  -45.5302 H         1 UNK         0.0600 
    168 H168        5.2547  -14.5878  -45.3637 H         1 UNK         0.0600 
    169 H169        2.5438  -13.3898  -43.1287 H         1 UNK         0.3000 
    170 H170        2.3852  -10.5942  -40.9842 H         1 UNK         0.0600 
    171 H171        2.3220   -9.4067  -43.1595 H         1 UNK         0.0600 
    172 H172        1.4167  -10.7246  -43.8892 H         1 UNK         0.0600 
    173 H173        0.6882   -9.7504  -42.6123 H         1 UNK         0.0600 
    174 H174        0.3784  -12.2506  -42.1869 H         1 UNK         0.3000 
    175 H175        0.6305  -15.0259  -40.0826 H         1 UNK         0.0600 
    176 H176       -1.3688  -12.7708  -39.5248 H         1 UNK         0.0600 
    177 H177       -1.5645  -14.4673  -39.0814 H         1 UNK         0.0600 
    178 H178       -0.3037  -13.5034  -38.3311 H         1 UNK         0.0600 
    179 H179       -1.6055  -14.1823  -41.5536 H         1 UNK         0.3000 
    180 H180       -1.1451  -16.2346  -43.9800 H         1 UNK         0.0600 
    181 H181       -2.6502  -13.6215  -43.4277 H         1 UNK         0.0600 
    182 H182       -2.9804  -15.1938  -42.6957 H         1 UNK         0.0600 
    183 H183       -3.2368  -14.9568  -44.4108 H         1 UNK         0.0600 
    184 H184       -0.6021  -15.3375  -45.8864 H         1 UNK         0.3000 
    185 H185       -0.6882  -12.3761  -47.3639 H         1 UNK         0.0600 
    186 H186        1.7116  -12.1287  -47.9689 H         1 UNK         0.0600 
    187 H187        1.4135  -11.4711  -46.3688 H         1 UNK         0.0600 
    188 H188        2.1844  -13.0428  -46.5390 H         1 UNK         0.0600 
    189 H189        1.0089  -14.7033  -47.8612 H         1 UNK         0.3000 
    190 H190       -2.8742  -21.8006  -45.5116 H         1 UNK         0.3000 
    191 H191       -5.0825  -22.2628  -47.2996 H         1 UNK         0.0600 
    192 H192       -5.0855  -20.4917  -45.5341 H         1 UNK         0.0600 
    193 H193       -6.4445  -21.5890  -45.3476 H         1 UNK         0.0600 
    194 H194       -5.0526  -21.7344  -44.2830 H         1 UNK         0.0600 
    195 H195       -3.3418  -24.3437  -45.1288 H         1 UNK         0.3000 
    196 H196       -5.4695  -26.4501  -45.2669 H         1 UNK         0.0600 
    197 H197       -4.2708  -27.4526  -43.3294 H         1 UNK         0.0600 
    198 H198       -4.8430  -25.8353  -42.9506 H         1 UNK         0.0600 
    199 H199       -3.1386  -26.1050  -43.3049 H         1 UNK         0.0600 
    200 H200       -1.9145  -25.8553  -45.4781 H         1 UNK         0.3000 
    201 H201       -1.2660  -28.4774  -46.3286 H         1 UNK         0.0600 
    202 H202        0.3039  -26.9609  -45.1415 H         1 UNK         0.0600 
    203 H203        0.3401  -25.8736  -46.5277 H         1 UNK         0.0600 
    204 H204        1.0000  -27.4988  -46.6626 H         1 UNK         0.0600 
    205 H205       -1.9221  -25.5157  -48.2001 H         1 UNK         0.3000 
    206 H206       -1.5975  -27.0286  -50.7690 H         1 UNK         0.0600 
    207 H207        0.0461  -25.1525  -50.4571 H         1 UNK         0.0600 
    208 H208       -1.0665  -24.8425  -51.7790 H         1 UNK         0.0600 
    209 H209       -1.2891  -24.0226  -50.2409 H         1 UNK         0.0600 
    210 H210       -3.8911  -26.1296  -48.6364 H         1 UNK         0.3000 
    211 H211       -6.0479  -25.6353  -48.5744 H         1 UNK         0.0600 
    212 H212       -6.1689  -26.7066  -51.4394 H         1 UNK         0.0600 
    213 H213       -7.5065  -26.6031  -50.3027 H         1 UNK         0.0600 
    214 H214       -6.1768  -27.7028  -49.9843 H         1 UNK         0.0600 
    215 H215       -4.1843  -23.5420  -49.6555 H         1 UNK         0.3000 
    216 H216       -4.0152  -21.5850  -50.6571 H         1 UNK         0.0600 
    217 H217       -5.7807  -20.8878  -49.0545 H         1 UNK         0.0600 
    218 H218       -7.0351  -21.3106  -50.2194 H         1 UNK         0.0600 
    219 H219       -5.9209  -19.9957  -50.5532 H         1 UNK         0.0600 
    220 H220       -4.4939  -23.9661  -52.3914 H         1 UNK         0.3000 
    221 H221       -6.0423  -22.9710  -54.6799 H         1 UNK         0.0600 
    222 H222       -4.6374  -25.6448  -54.1982 H         1 UNK         0.0600 
    223 H223       -6.3258  -25.2957  -53.8346 H         1 UNK         0.0600 
    224 H224       -5.7607  -25.2710  -55.4983 H         1 UNK         0.0600 
    225 H225       -4.3186  -21.1317  -54.7685 H         1 UNK         0.3000 
    226 H226       -2.7842  -21.6793  -57.1517 H         1 UNK         0.0600 
    227 H227       -1.0198  -22.1960  -55.4662 H         1 UNK         0.0600 
    228 H228       -0.6488  -20.6821  -56.2722 H         1 UNK         0.0600 
    229 H229       -1.3109  -20.6697  -54.6450 H         1 UNK         0.0600 
    230 H230       -2.2776  -19.7174  -58.2617 H         1 UNK         0.3000 
    231 H231       -4.3725  -17.8903  -58.2646 H         1 UNK         0.0600 
    232 H232       -3.0014  -16.7049  -59.9925 H         1 UNK         0.0600 
    233 H233       -3.0035  -18.4412  -60.2511 H         1 UNK         0.0600 
    234 H234       -1.5934  -17.6570  -59.5375 H         1 UNK         0.0600 
    235 H235       -1.3212  -17.6328  -56.5506 H         1 UNK         0.3000 
    236 H236       -1.3241  -14.8462  -55.9697 H         1 UNK         0.0600 
    237 H237        0.7011  -16.1834  -55.7443 H         1 UNK         0.0600 
    238 H238        0.2929  -15.5759  -54.1490 H         1 UNK         0.0600 
    239 H239       -0.0537  -17.2525  -54.5682 H         1 UNK         0.0600 
    240 H240       -3.3557  -17.3671  -54.7268 H         1 UNK         0.3000 
    241 H241       -4.2044  -15.7865  -52.3675 H         1 UNK         0.0600 
    242 H242       -6.6125  -15.1091  -55.4681 H         1 UNK         0.3800 
    243 H243       -4.9501  -15.5941  -55.6744 H         1 UNK         0.3800 
    244 H244       -4.9057  -18.6261  -53.2582 H         1 UNK         0.0800 
    245 H245       -5.6740  -17.8203  -51.9211 H         1 UNK         0.0800 
    246 H246       -2.7615  -20.3495  -52.5370 H         1 UNK         0.0800 
    247 H247       -2.3194  -18.9143  -53.4254 H         1 UNK         0.0800 
@<TRIPOS>BOND
     1    1    2 1    
     2    1  127 1    
     3    1  128 1    
     4    1  129 1    
     5    2    3 2    
     6    2    4 am   BACKBONE|DICT|INTERRES
     7    4    5 1    
     8    4  130 1    
     9    5    6 1    
    10    5   65 1    
    11    5  131 1    
    12    6    7 1    
    13    6  132 1    
    14    6  133 1    
    15    7    8 1    
    16    8    9 1    
    17    8  134 1    
    18    8  135 1    
    19    9   10 ar   
    20    9   14 ar   
    21   10   11 ar   
    22   10  136 1    
    23   11   12 ar   
    24   11  126 1    
    25   12   13 ar   
    26   12  137 1    
    27   13   14 ar   
    28   13   15 1    
    29   14  138 1    
    30   15   16 1    
    31   15  139 1    
    32   15  140 1    
    33   16   17 1    
    34   17   18 1    
    35   17  141 1    
    36   17  142 1    
    37   18   19 1    
    38   18   67 1    
    39   18  143 1    
    40   19   20 am   BACKBONE|DICT|INTERRES
    41   19  144 1    
    42   20   21 2    
    43   20   22 1    
    44   22   23 1    
    45   22   24 1    
    46   22  145 1    
    47   23  146 1    
    48   23  147 1    
    49   23  148 1    
    50   24   25 am   BACKBONE|DICT|INTERRES
    51   24  149 1    
    52   25   26 2    
    53   25   27 1    
    54   27   28 1    
    55   27   29 1    
    56   27  150 1    
    57   28  151 1    
    58   28  152 1    
    59   28  153 1    
    60   29   30 am   BACKBONE|DICT|INTERRES
    61   29  154 1    
    62   30   31 2    
    63   30   32 1    
    64   32   33 1    
    65   32   34 1    
    66   32  155 1    
    67   33  156 1    
    68   33  157 1    
    69   33  158 1    
    70   34   35 am   BACKBONE|DICT|INTERRES
    71   34  159 1    
    72   35   36 2    
    73   35   37 1    
    74   37   38 1    
    75   37   39 1    
    76   37  160 1    
    77   38  161 1    
    78   38  162 1    
    79   38  163 1    
    80   39   40 am   BACKBONE|DICT|INTERRES
    81   39  164 1    
    82   40   41 2    
    83   40   42 1    
    84   42   43 1    
    85   42   44 1    
    86   42  165 1    
    87   43  166 1    
    88   43  167 1    
    89   43  168 1    
    90   44   45 am   BACKBONE|DICT|INTERRES
    91   44  169 1    
    92   45   46 2    
    93   45   47 1    
    94   47   48 1    
    95   47   49 1    
    96   47  170 1    
    97   48  171 1    
    98   48  172 1    
    99   48  173 1    
   100   49   50 am   BACKBONE|DICT|INTERRES
   101   49  174 1    
   102   50   51 2    
   103   50   52 1    
   104   52   53 1    
   105   52   54 1    
   106   52  175 1    
   107   53  176 1    
   108   53  177 1    
   109   53  178 1    
   110   54   55 am   BACKBONE|DICT|INTERRES
   111   54  179 1    
   112   55   56 2    
   113   55   57 1    
   114   57   58 1    
   115   57   59 1    
   116   57  180 1    
   117   58  181 1    
   118   58  182 1    
   119   58  183 1    
   120   59   60 am   BACKBONE|DICT|INTERRES
   121   59  184 1    
   122   60   61 2    
   123   60   62 1    
   124   62   63 1    
   125   62   64 1    
   126   62  185 1    
   127   63  186 1    
   128   63  187 1    
   129   63  188 1    
   130   64   65 am   BACKBONE|DICT|INTERRES
   131   64  189 1    
   132   65   66 2    
   133   67   68 2    
   134   67   69 am   BACKBONE|DICT|INTERRES
   135   69   70 1    
   136   69  190 1    
   137   70   71 1    
   138   70   72 1    
   139   70  191 1    
   140   71  192 1    
   141   71  193 1    
   142   71  194 1    
   143   72   73 2    
   144   72   74 am   BACKBONE|DICT|INTERRES
   145   74   75 1    
   146   74  195 1    
   147   75   76 1    
   148   75   77 1    
   149   75  196 1    
   150   76  197 1    
   151   76  198 1    
   152   76  199 1    
   153   77   78 2    
   154   77   79 am   BACKBONE|DICT|INTERRES
   155   79   80 1    
   156   79  200 1    
   157   80   81 1    
   158   80   82 1    
   159   80  201 1    
   160   81  202 1    
   161   81  203 1    
   162   81  204 1    
   163   82   83 2    
   164   82   84 am   BACKBONE|DICT|INTERRES
   165   84   85 1    
   166   84  205 1    
   167   85   86 1    
   168   85   87 1    
   169   85  206 1    
   170   86  207 1    
   171   86  208 1    
   172   86  209 1    
   173   87   88 2    
   174   87   89 am   BACKBONE|DICT|INTERRES
   175   89   90 1    
   176   89  210 1    
   177   90   91 1    
   178   90   92 1    
   179   90  211 1    
   180   91  212 1    
   181   91  213 1    
   182   91  214 1    
   183   92   93 2    
   184   92   94 am   BACKBONE|DICT|INTERRES
   185   94   95 1    
   186   94  215 1    
   187   95   96 1    
   188   95   97 1    
   189   95  216 1    
   190   96  217 1    
   191   96  218 1    
   192   96  219 1    
   193   97   98 2    
   194   97   99 am   BACKBONE|DICT|INTERRES
   195   99  100 1    
   196   99  220 1    
   197  100  101 1    
   198  100  102 1    
   199  100  221 1    
   200  101  222 1    
   201  101  223 1    
   202  101  224 1    
   203  102  103 2    
   204  102  104 am   BACKBONE|DICT|INTERRES
   205  104  105 1    
   206  104  225 1    
   207  105  106 1    
   208  105  107 1    
   209  105  226 1    
   210  106  227 1    
   211  106  228 1    
   212  106  229 1    
   213  107  108 2    
   214  107  109 am   BACKBONE|DICT|INTERRES
   215  109  110 1    
   216  109  230 1    
   217  110  111 1    
   218  110  112 1    
   219  110  231 1    
   220  111  232 1    
   221  111  233 1    
   222  111  234 1    
   223  112  113 2    
   224  112  114 am   BACKBONE|DICT|INTERRES
   225  114  115 1    
   226  114  235 1    
   227  115  116 1    
   228  115  117 1    
   229  115  236 1    
   230  116  237 1    
   231  116  238 1    
   232  116  239 1    
   233  117  118 2    
   234  117  119 am   BACKBONE|DICT|INTERRES
   235  119  120 1    
   236  119  240 1    
   237  120  121 1    
   238  120  124 1    
   239  120  241 1    
   240  121  122 am   BACKBONE|DICT|INTERRES
   241  121  123 2    
   242  122  242 1    
   243  122  243 1    
   244  124  125 1    
   245  124  244 1    
   246  124  245 1    
   247  125  126 1    
   248  126  246 1    
   249  126  247 1    
@<TRIPOS>SUBSTRUCTURE
     1 UNK         1 GROUP             0       ****    0 ROOT    
