@<TRIPOS>MOLECULE
3R540
247   249    1
SMALL
USER_CHARGES


@<TRIPOS>ATOM
      1 CA         -2.6473  -15.2016  -43.7275 C.3       0 UNK        -0.1800 
      2 C          -2.5647  -13.9753  -44.6229 C.2       0 UNK         0.5000 
      3 O          -2.8511  -12.8659  -44.1750 O.2       0 UNK        -0.5000 
      4 N          -2.1623  -14.1663  -45.8847 N.am      1 UNK        -0.5000 
      5 CA         -2.0225  -13.1229  -46.9112 C.3       1 UNK         0.1400 
      6 C6         -2.2316  -13.6940  -48.3384 C.3       23 UNK        -0.0398 
      7 S7         -3.9212  -14.3406  -48.5903 S.3       23 UNK        -0.2404 
      8 C8         -3.6755  -16.1347  -48.4029 C.3       23 UNK        -0.0205 
      9 C9         -2.9719  -16.7526  -49.5999 C.ar      23 UNK        -0.0193 
     10 C10        -3.6495  -16.8928  -50.8148 C.ar      23 UNK        -0.1150 
     11 C11        -3.0041  -17.4368  -51.9284 C.ar      23 UNK        -0.0193 
     12 C12        -1.6744  -17.8496  -51.8137 C.ar      23 UNK        -0.1150 
     13 C13        -0.9961  -17.7477  -50.5964 C.ar      23 UNK        -0.0193 
     14 C14        -1.6484  -17.1912  -49.4925 C.ar      23 UNK        -0.1150 
     15 C15         0.4459  -18.2211  -50.4932 C.3       23 UNK        -0.0205 
     16 S16         0.5541  -19.9795  -50.0293 S.3       23 UNK        -0.2404 
     17 C17         0.5078  -19.8760  -48.2084 C.3       23 UNK        -0.0398 
     18 CA         -0.3353  -20.9894  -47.5438 C.3       11 UNK         0.1400 
     19 N           0.0316  -21.1680  -46.1362 N.am      11 UNK        -0.5000 
     20 C          -0.4069  -22.1562  -45.3438 C.2       10 UNK         0.5000 
     21 O          -1.1360  -23.0693  -45.7278 O.2       10 UNK        -0.5000 
     22 CA         -0.0136  -22.0786  -43.8577 C.3       10 UNK         0.1400 
     23 CB          1.4146  -22.5983  -43.6376 C.3       10 UNK        -0.1800 
     24 N          -0.1391  -20.7221  -43.3222 N.am      10 UNK        -0.5000 
     25 C          -1.2974  -20.0536  -43.2265 C.2       9 UNK         0.5000 
     26 O          -2.3898  -20.5433  -43.5121 O.2       9 UNK        -0.5000 
     27 CA         -1.2197  -18.5775  -42.7962 C.3       9 UNK         0.1400 
     28 CB         -1.1048  -18.4479  -41.2708 C.3       9 UNK        -0.1800 
     29 N          -0.1114  -17.8670  -43.4353 N.am      9 UNK        -0.5000 
     30 C          -0.0132  -17.6340  -44.7518 C.2       8 UNK         0.5000 
     31 O          -0.8888  -17.9195  -45.5670 O.2       8 UNK        -0.5000 
     32 CA          1.3002  -17.0134  -45.2517 C.3       8 UNK         0.1400 
     33 CB          1.2665  -15.4856  -45.1309 C.3       8 UNK        -0.1800 
     34 N           2.4611  -17.5410  -44.5368 N.am      8 UNK        -0.5000 
     35 C           2.9261  -18.7895  -44.6822 C.2       7 UNK         0.5000 
     36 O           2.4345  -19.6144  -45.4513 O.2       7 UNK        -0.5000 
     37 CA          4.1093  -19.1947  -43.7854 C.3       7 UNK         0.1400 
     38 CB          5.4381  -18.7256  -44.3961 C.3       7 UNK        -0.1800 
     39 N           3.9849  -18.6670  -42.4261 N.am      7 UNK        -0.5000 
     40 C           3.0359  -19.0395  -41.5558 C.2       6 UNK         0.5000 
     41 O           2.1870  -19.8967  -41.7967 O.2       6 UNK        -0.5000 
     42 CA          3.0003  -18.2933  -40.2100 C.3       6 UNK         0.1400 
     43 CB          3.9377  -18.9645  -39.1954 C.3       6 UNK        -0.1800 
     44 N           3.3431  -16.8728  -40.3254 N.am      6 UNK        -0.5000 
     45 C           2.6348  -15.9745  -41.0218 C.2       5 UNK         0.5000 
     46 O           1.6370  -16.2565  -41.6902 O.2       5 UNK        -0.5000 
     47 CA          3.1588  -14.5282  -41.0107 C.3       5 UNK         0.1400 
     48 CB          3.9375  -14.2315  -42.3015 C.3       5 UNK        -0.1800 
     49 N           2.0664  -13.5661  -40.8761 N.am      5 UNK        -0.5000 
     50 C           1.3528  -13.3779  -39.7573 C.2       4 UNK         0.5000 
     51 O           1.5733  -13.9811  -38.7049 O.2       4 UNK        -0.5000 
     52 CA          0.2073  -12.3429  -39.8300 C.3       4 UNK         0.1400 
     53 CB         -0.2070  -11.8087  -38.4428 C.3       4 UNK        -0.1800 
     54 N           0.4677  -11.2304  -40.7526 N.am      4 UNK        -0.5000 
     55 C           1.4599  -10.3293  -40.7050 C.2       3 UNK         0.5000 
     56 O           2.3430  -10.3281  -39.8456 O.2       3 UNK        -0.5000 
     57 CA          1.4666   -9.2671  -41.8304 C.3       3 UNK         0.1400 
     58 CB          2.6350   -8.2727  -41.7017 C.3       3 UNK        -0.1800 
     59 N           1.5105   -9.8685  -43.1676 N.am      3 UNK        -0.5000 
     60 C           0.4856  -10.4666  -43.7873 C.2       2 UNK         0.5000 
     61 O          -0.6442  -10.5442  -43.2960 O.2       2 UNK        -0.5000 
     62 CA          0.7784  -11.1208  -45.1488 C.3       2 UNK         0.1400 
     63 CB          2.0053  -12.0534  -45.0741 C.3       2 UNK        -0.1800 
     64 N          -0.4082  -11.8676  -45.5568 N.am      2 UNK        -0.5000 
     65 C          -0.6754  -12.3741  -46.7641 C.2       1 UNK         0.5000 
     66 O           0.0942  -12.2816  -47.7219 O.2       1 UNK        -0.5000 
     67 C          -1.8538  -20.7656  -47.7197 C.2       11 UNK         0.5000 
     68 O          -2.4549  -21.3919  -48.5904 O.2       11 UNK        -0.5000 
     69 N          -2.4588  -19.9378  -46.8532 N.am      12 UNK        -0.5000 
     70 CA         -3.9028  -19.6948  -46.8004 C.3       12 UNK         0.1400 
     71 CB         -4.2116  -18.6005  -45.7645 C.3       12 UNK        -0.1800 
     72 C          -4.7111  -20.9636  -46.4732 C.2       12 UNK         0.5000 
     73 O          -5.7363  -21.2105  -47.1087 O.2       12 UNK        -0.5000 
     74 N          -4.2323  -21.7397  -45.4905 N.am      13 UNK        -0.5000 
     75 CA         -4.8366  -22.9978  -45.0540 C.3       13 UNK         0.1400 
     76 CB         -4.1903  -23.4437  -43.7333 C.3       13 UNK        -0.1800 
     77 C          -4.7360  -24.1072  -46.1163 C.2       13 UNK         0.5000 
     78 O          -5.7118  -24.8258  -46.3368 O.2       13 UNK        -0.5000 
     79 N          -3.5646  -24.2223  -46.7558 N.am      14 UNK        -0.5000 
     80 CA         -3.2970  -25.1722  -47.8348 C.3       14 UNK         0.1400 
     81 CB         -1.7820  -25.2457  -48.0728 C.3       14 UNK        -0.1800 
     82 C          -4.0295  -24.8164  -49.1404 C.2       14 UNK         0.5000 
     83 O          -4.4875  -25.7204  -49.8416 O.2       14 UNK        -0.5000 
     84 N          -4.1153  -23.5128  -49.4448 N.am      15 UNK        -0.5000 
     85 CA         -4.6849  -22.9219  -50.6561 C.3       15 UNK         0.1400 
     86 CB         -6.2240  -23.0487  -50.6418 C.3       15 UNK        -0.1800 
     87 C          -4.0010  -23.5006  -51.9105 C.2       15 UNK         0.5000 
     88 O          -2.7716  -23.4704  -51.9867 O.2       15 UNK        -0.5000 
     89 N          -4.7826  -24.0721  -52.8347 N.am      16 UNK        -0.5000 
     90 CA         -4.3455  -24.7073  -54.0805 C.3       16 UNK         0.1400 
     91 CB         -5.5893  -25.2297  -54.8181 C.3       16 UNK        -0.1800 
     92 C          -3.3054  -25.8396  -53.9340 C.2       16 UNK         0.5000 
     93 O          -2.6525  -26.1750  -54.9223 O.2       16 UNK        -0.5000 
     94 N          -3.1594  -26.4123  -52.7300 N.am      17 UNK        -0.5000 
     95 CA         -2.1342  -27.4106  -52.4210 C.3       17 UNK         0.1400 
     96 CB         -2.5387  -28.1794  -51.1540 C.3       17 UNK        -0.1800 
     97 C          -0.7201  -26.8100  -52.2680 C.2       17 UNK         0.5000 
     98 O           0.2531  -27.5554  -52.3899 O.2       17 UNK        -0.5000 
     99 N          -0.6219  -25.4991  -52.0034 N.am      18 UNK        -0.5000 
    100 CA         0.6402  -24.7692  -51.8554 C.3       18 UNK         0.1400 
    101 CB         0.7152  -24.1654  -50.4431 C.3       18 UNK        -0.1800 
    102 C          0.7793  -23.6604  -52.9101 C.2       18 UNK         0.5000 
    103 O          1.8597  -23.4889  -53.4767 O.2       18 UNK        -0.5000 
    104 N         -0.3076  -22.9181  -53.1396 N.am      19 UNK        -0.5000 
    105 CA        -0.3848  -21.7847  -54.0522 C.3       19 UNK         0.1400 
    106 CB        -1.5340  -20.8892  -53.5764 C.3       19 UNK        -0.1800 
    107 C         -0.6352  -22.2190  -55.5051 C.2       19 UNK         0.5000 
    108 O         -0.9255  -23.3871  -55.7752 O.2       19 UNK        -0.5000 
    109 N         -0.5871  -21.2402  -56.4175 N.am      20 UNK        -0.5000 
    110 CA        -0.8998  -21.3720  -57.8422 C.3       20 UNK         0.1400 
    111 CB        -0.2643  -20.1890  -58.5950 C.3       20 UNK        -0.1800 
    112 C         -2.4186  -21.4999  -58.1055 C.2       20 UNK         0.5000 
    113 O         -2.9978  -20.6825  -58.8228 O.2       20 UNK        -0.5000 
    114 N         -3.0286  -22.5333  -57.5107 N.am      21 UNK        -0.5000 
    115 CA        -4.4162  -22.9783  -57.6732 C.3       21 UNK         0.1400 
    116 CB        -4.6548  -23.4769  -59.1144 C.3       21 UNK        -0.1800 
    117 C         -5.4903  -21.9688  -57.2068 C.2       21 UNK         0.5000 
    118 O         -6.6136  -22.0114  -57.7134 O.2       21 UNK        -0.5000 
    119 N         -5.1530  -21.0867  -56.2540 N.am      22 UNK        -0.5000 
    120 CA        -6.1062  -20.1366  -55.6542 C.3       22 UNK         0.1400 
    121 C         -7.1300  -20.8044  -54.6877 C.2       22 UNK         0.5000 
    122 N         -8.2481  -20.1461  -54.4114 N.am      22 UNK        -0.7600 
    123 O         -6.9181  -21.8989  -54.1705 O.2       22 UNK        -0.5000 
    124 C124       -5.4011  -18.8982  -55.0377 C.3       23 UNK        -0.0398 
    125 S125       -4.5112  -19.1826  -53.4690 S.3       23 UNK        -0.2404 
    126 C126       -3.7320  -17.5513  -53.2593 C.3       23 UNK        -0.0205 
    127 H127       -3.5417  -15.1588  -43.1061 H         1 UNK         0.0600 
    128 H128       -1.7762  -15.2514  -43.0739 H         1 UNK         0.0600 
    129 H129       -2.6917  -16.1169  -44.3158 H         1 UNK         0.0600 
    130 H130       -1.9174  -15.0988  -46.1812 H         1 UNK         0.3000 
    131 H131       -2.8008  -12.3737  -46.7495 H         1 UNK         0.0600 
    132 H132       -1.4935  -14.4654  -48.5611 H         1 UNK         0.0800 
    133 H133       -2.0825  -12.9121  -49.0851 H         1 UNK         0.0800 
    134 H134       -3.1062  -16.3177  -47.4939 H         1 UNK         0.0800 
    135 H135       -4.6449  -16.6159  -48.2664 H         1 UNK         0.0800 
    136 H136       -4.6752  -16.5613  -50.8963 H         1 UNK         0.1150 
    137 H137       -1.1629  -18.2520  -52.6746 H         1 UNK         0.1150 
    138 H138       -1.1263  -17.0934  -48.5516 H         1 UNK         0.1150 
    139 H139        0.9428  -18.0875  -51.4553 H         1 UNK         0.0800 
    140 H140        1.0025  -17.6079  -49.7828 H         1 UNK         0.0800 
    141 H141        1.5446  -19.9558  -47.8811 H         1 UNK         0.0800 
    142 H142        0.1715  -18.8917  -47.8846 H         1 UNK         0.0800 
    143 H143       -0.0916  -21.9312  -48.0404 H         1 UNK         0.0600 
    144 H144        0.6774  -20.4878  -45.7482 H         1 UNK         0.3000 
    145 H145       -0.6969  -22.7221  -43.2997 H         1 UNK         0.0600 
    146 H146        1.6685  -22.6131  -42.5776 H         1 UNK         0.0600 
    147 H147        1.5209  -23.6171  -44.0122 H         1 UNK         0.0600 
    148 H148        2.1537  -21.9815  -44.1488 H         1 UNK         0.0600 
    149 H149        0.7151  -20.2770  -42.9993 H         1 UNK         0.3000 
    150 H150       -2.1502  -18.0984  -43.1047 H         1 UNK         0.0600 
    151 H151       -1.9525  -18.9222  -40.7751 H         1 UNK         0.0600 
    152 H152       -1.0906  -17.4015  -40.9647 H         1 UNK         0.0600 
    153 H153       -0.1981  -18.9191  -40.8925 H         1 UNK         0.0600 
    154 H154        0.6295  -17.5330  -42.8266 H         1 UNK         0.3000 
    155 H155        1.4094  -17.2646  -46.3089 H         1 UNK         0.0600 
    156 H156        2.2101  -15.0476  -45.4553 H         1 UNK         0.0600 
    157 H157        1.0740  -15.1610  -44.1080 H         1 UNK         0.0600 
    158 H158        0.4846  -15.0654  -45.7619 H         1 UNK         0.0600 
    159 H159        2.8827  -16.9414  -43.8438 H         1 UNK         0.3000 
    160 H160        4.1254  -20.2852  -43.7274 H         1 UNK         0.0600 
    161 H161        5.4942  -17.6380  -44.4568 H         1 UNK         0.0600 
    162 H162        5.5627  -19.1180  -45.4063 H         1 UNK         0.0600 
    163 H163        6.2869  -19.0734  -43.8070 H         1 UNK         0.0600 
    164 H164        4.6457  -17.9577  -42.1456 H         1 UNK         0.3000 
    165 H165        1.9807  -18.3583  -39.8249 H         1 UNK         0.0600 
    166 H166        4.9810  -18.9044  -39.5079 H         1 UNK         0.0600 
    167 H167        3.8535  -18.4997  -38.2129 H         1 UNK         0.0600 
    168 H168        3.6911  -20.0204  -39.0756 H         1 UNK         0.0600 
    169 H169        4.1543  -16.5640  -39.8090 H         1 UNK         0.3000 
    170 H170        3.8342  -14.3979  -40.1625 H         1 UNK         0.0600 
    171 H171        4.8021  -14.8897  -42.3952 H         1 UNK         0.0600 
    172 H172        3.3215  -14.3750  -43.1887 H         1 UNK         0.0600 
    173 H173        4.3086  -13.2063  -42.3128 H         1 UNK         0.0600 
    174 H174        1.8088  -13.0493  -41.7021 H         1 UNK         0.3000 
    175 H175       -0.6490  -12.8791  -40.2416 H         1 UNK         0.0600 
    176 H176       -1.0300  -11.0987  -38.5235 H         1 UNK         0.0600 
    177 H177       -0.5431  -12.6186  -37.7943 H         1 UNK         0.0600 
    178 H178        0.6201  -11.3080  -37.9386 H         1 UNK         0.0600 
    179 H179       -0.1841  -11.1388  -41.5278 H         1 UNK         0.3000 
    180 H180        0.5396   -8.6976  -41.7352 H         1 UNK         0.0600 
    181 H181        2.5821   -7.5009  -42.4698 H         1 UNK         0.0600 
    182 H182        2.6148   -7.7669  -40.7354 H         1 UNK         0.0600 
    183 H183        3.6008   -8.7713  -41.7927 H         1 UNK         0.0600 
    184 H184        2.4129   -9.8652  -43.6205 H         1 UNK         0.3000 
    185 H185        0.9617  -10.3267  -45.8749 H         1 UNK         0.0600 
    186 H186        2.1733  -12.5775  -46.0145 H         1 UNK         0.0600 
    187 H187        2.9185  -11.4980  -44.8597 H         1 UNK         0.0600 
    188 H188        1.8834  -12.8001  -44.2905 H         1 UNK         0.0600 
    189 H189       -1.1174  -11.9453  -44.8307 H         1 UNK         0.3000 
    190 H190       -1.8877  -19.4155  -46.1950 H         1 UNK         0.3000 
    191 H191       -4.2092  -19.3362  -47.7853 H         1 UNK         0.0600 
    192 H192       -5.2450  -18.2643  -45.8544 H         1 UNK         0.0600 
    193 H193       -3.5726  -17.7312  -45.8902 H         1 UNK         0.0600 
    194 H194       -4.0743  -18.9540  -44.7431 H         1 UNK         0.0600 
    195 H195       -3.4116  -21.4269  -44.9807 H         1 UNK         0.3000 
    196 H196       -5.8962  -22.8130  -44.8656 H         1 UNK         0.0600 
    197 H197       -4.6387  -24.3698  -43.3718 H         1 UNK         0.0600 
    198 H198       -4.3243  -22.6913  -42.9559 H         1 UNK         0.0600 
    199 H199       -3.1200  -23.6185  -43.8466 H         1 UNK         0.0600 
    200 H200       -2.7894  -23.6287  -46.4708 H         1 UNK         0.3000 
    201 H201       -3.6408  -26.1592  -47.5185 H         1 UNK         0.0600 
    202 H202       -1.2617  -25.6108  -47.1873 H         1 UNK         0.0600 
    203 H203       -1.3732  -24.2651  -48.3172 H         1 UNK         0.0600 
    204 H204       -1.5393  -25.9188  -48.8949 H         1 UNK         0.0600 
    205 H205       -3.6179  -22.8500  -48.8555 H         1 UNK         0.3000 
    206 H206       -4.4347  -21.8602  -50.6324 H         1 UNK         0.0600 
    207 H207       -6.6378  -22.6040  -49.7364 H         1 UNK         0.0600 
    208 H208       -6.6708  -22.5234  -51.4865 H         1 UNK         0.0600 
    209 H209       -6.5542  -24.0875  -50.6771 H         1 UNK         0.0600 
    210 H210       -5.7812  -24.0409  -52.6864 H         1 UNK         0.3000 
    211 H211       -3.8792  -23.9289  -54.6868 H         1 UNK         0.0600 
    212 H212       -6.1393  -25.9501  -54.2115 H         1 UNK         0.0600 
    213 H213       -5.3195  -25.7293  -55.7495 H         1 UNK         0.0600 
    214 H214       -6.2698  -24.4171  -55.0726 H         1 UNK         0.0600 
    215 H215       -3.7324  -26.0913  -51.9585 H         1 UNK         0.3000 
    216 H216       -2.0946  -28.1278  -53.2436 H         1 UNK         0.0600 
    217 H217       -1.8300  -28.9807  -50.9414 H         1 UNK         0.0600 
    218 H218       -3.5219  -28.6367  -51.2659 H         1 UNK         0.0600 
    219 H219       -2.5687  -27.5312  -50.2795 H         1 UNK         0.0600 
    220 H220       -1.4717  -24.9459  -51.9569 H         1 UNK         0.3000 
    221 H221        1.4930  -25.4396  -51.9791 H         1 UNK         0.0600 
    222 H222       -0.1241  -23.4966  -50.2466 H         1 UNK         0.0600 
    223 H223        0.7133  -24.9456  -49.6824 H         1 UNK         0.0600 
    224 H224        1.6308  -23.5873  -50.3117 H         1 UNK         0.0600 
    225 H225       -1.1731  -23.1394  -52.6521 H         1 UNK         0.3000 
    226 H226        0.5496  -21.2213  -54.0069 H         1 UNK         0.0600 
    227 H227       -1.4245  -20.6305  -52.5230 H         1 UNK         0.0600 
    228 H228       -1.5745  -19.9603  -54.1447 H         1 UNK         0.0600 
    229 H229       -2.4983  -21.3843  -53.6946 H         1 UNK         0.0600 
    230 H230       -0.3721  -20.3044  -56.1055 H         1 UNK         0.3000 
    231 H231       -0.4341  -22.2869  -58.2146 H         1 UNK         0.0600 
    232 H232       -0.4355  -20.2707  -59.6692 H         1 UNK         0.0600 
    233 H233        0.8148  -20.1585  -58.4428 H         1 UNK         0.0600 
    234 H234       -0.6768  -19.2339  -58.2673 H         1 UNK         0.0600 
    235 H235       -2.4450  -23.1127  -56.9118 H         1 UNK         0.3000 
    236 H236       -4.5223  -23.8433  -57.0216 H         1 UNK         0.0600 
    237 H237       -4.6307  -22.6585  -59.8345 H         1 UNK         0.0600 
    238 H238       -3.9004  -24.2063  -59.4096 H         1 UNK         0.0600 
    239 H239       -5.6256  -23.9652  -59.2069 H         1 UNK         0.0600 
    240 H240       -4.2269  -21.1138  -55.8564 H         1 UNK         0.3000 
    241 H241       -6.7021  -19.7489  -56.4833 H         1 UNK         0.0600 
    242 H242       -8.9142  -20.5649  -53.7815 H         1 UNK         0.3800 
    243 H243       -8.4522  -19.2467  -54.8185 H         1 UNK         0.3800 
    244 H244       -4.7009  -18.4823  -55.7637 H         1 UNK         0.0800 
    245 H245       -6.1370  -18.1123  -54.8607 H         1 UNK         0.0800 
    246 H246       -3.0341  -17.3764  -54.0796 H         1 UNK         0.0800 
    247 H247       -4.4939  -16.7736  -53.3326 H         1 UNK         0.0800 
@<TRIPOS>BOND
     1    1    2 1    
     2    1  127 1    
     3    1  128 1    
     4    1  129 1    
     5    2    3 2    
     6    2    4 am   BACKBONE|DICT|INTERRES
     7    4    5 1    
     8    4  130 1    
     9    5    6 1    
    10    5   65 1    
    11    5  131 1    
    12    6    7 1    
    13    6  132 1    
    14    6  133 1    
    15    7    8 1    
    16    8    9 1    
    17    8  134 1    
    18    8  135 1    
    19    9   10 ar   
    20    9   14 ar   
    21   10   11 ar   
    22   10  136 1    
    23   11   12 ar   
    24   11  126 1    
    25   12   13 ar   
    26   12  137 1    
    27   13   14 ar   
    28   13   15 1    
    29   14  138 1    
    30   15   16 1    
    31   15  139 1    
    32   15  140 1    
    33   16   17 1    
    34   17   18 1    
    35   17  141 1    
    36   17  142 1    
    37   18   19 1    
    38   18   67 1    
    39   18  143 1    
    40   19   20 am   BACKBONE|DICT|INTERRES
    41   19  144 1    
    42   20   21 2    
    43   20   22 1    
    44   22   23 1    
    45   22   24 1    
    46   22  145 1    
    47   23  146 1    
    48   23  147 1    
    49   23  148 1    
    50   24   25 am   BACKBONE|DICT|INTERRES
    51   24  149 1    
    52   25   26 2    
    53   25   27 1    
    54   27   28 1    
    55   27   29 1    
    56   27  150 1    
    57   28  151 1    
    58   28  152 1    
    59   28  153 1    
    60   29   30 am   BACKBONE|DICT|INTERRES
    61   29  154 1    
    62   30   31 2    
    63   30   32 1    
    64   32   33 1    
    65   32   34 1    
    66   32  155 1    
    67   33  156 1    
    68   33  157 1    
    69   33  158 1    
    70   34   35 am   BACKBONE|DICT|INTERRES
    71   34  159 1    
    72   35   36 2    
    73   35   37 1    
    74   37   38 1    
    75   37   39 1    
    76   37  160 1    
    77   38  161 1    
    78   38  162 1    
    79   38  163 1    
    80   39   40 am   BACKBONE|DICT|INTERRES
    81   39  164 1    
    82   40   41 2    
    83   40   42 1    
    84   42   43 1    
    85   42   44 1    
    86   42  165 1    
    87   43  166 1    
    88   43  167 1    
    89   43  168 1    
    90   44   45 am   BACKBONE|DICT|INTERRES
    91   44  169 1    
    92   45   46 2    
    93   45   47 1    
    94   47   48 1    
    95   47   49 1    
    96   47  170 1    
    97   48  171 1    
    98   48  172 1    
    99   48  173 1    
   100   49   50 am   BACKBONE|DICT|INTERRES
   101   49  174 1    
   102   50   51 2    
   103   50   52 1    
   104   52   53 1    
   105   52   54 1    
   106   52  175 1    
   107   53  176 1    
   108   53  177 1    
   109   53  178 1    
   110   54   55 am   BACKBONE|DICT|INTERRES
   111   54  179 1    
   112   55   56 2    
   113   55   57 1    
   114   57   58 1    
   115   57   59 1    
   116   57  180 1    
   117   58  181 1    
   118   58  182 1    
   119   58  183 1    
   120   59   60 am   BACKBONE|DICT|INTERRES
   121   59  184 1    
   122   60   61 2    
   123   60   62 1    
   124   62   63 1    
   125   62   64 1    
   126   62  185 1    
   127   63  186 1    
   128   63  187 1    
   129   63  188 1    
   130   64   65 am   BACKBONE|DICT|INTERRES
   131   64  189 1    
   132   65   66 2    
   133   67   68 2    
   134   67   69 am   BACKBONE|DICT|INTERRES
   135   69   70 1    
   136   69  190 1    
   137   70   71 1    
   138   70   72 1    
   139   70  191 1    
   140   71  192 1    
   141   71  193 1    
   142   71  194 1    
   143   72   73 2    
   144   72   74 am   BACKBONE|DICT|INTERRES
   145   74   75 1    
   146   74  195 1    
   147   75   76 1    
   148   75   77 1    
   149   75  196 1    
   150   76  197 1    
   151   76  198 1    
   152   76  199 1    
   153   77   78 2    
   154   77   79 am   BACKBONE|DICT|INTERRES
   155   79   80 1    
   156   79  200 1    
   157   80   81 1    
   158   80   82 1    
   159   80  201 1    
   160   81  202 1    
   161   81  203 1    
   162   81  204 1    
   163   82   83 2    
   164   82   84 am   BACKBONE|DICT|INTERRES
   165   84   85 1    
   166   84  205 1    
   167   85   86 1    
   168   85   87 1    
   169   85  206 1    
   170   86  207 1    
   171   86  208 1    
   172   86  209 1    
   173   87   88 2    
   174   87   89 am   BACKBONE|DICT|INTERRES
   175   89   90 1    
   176   89  210 1    
   177   90   91 1    
   178   90   92 1    
   179   90  211 1    
   180   91  212 1    
   181   91  213 1    
   182   91  214 1    
   183   92   93 2    
   184   92   94 am   BACKBONE|DICT|INTERRES
   185   94   95 1    
   186   94  215 1    
   187   95   96 1    
   188   95   97 1    
   189   95  216 1    
   190   96  217 1    
   191   96  218 1    
   192   96  219 1    
   193   97   98 2    
   194   97   99 am   BACKBONE|DICT|INTERRES
   195   99  100 1    
   196   99  220 1    
   197  100  101 1    
   198  100  102 1    
   199  100  221 1    
   200  101  222 1    
   201  101  223 1    
   202  101  224 1    
   203  102  103 2    
   204  102  104 am   BACKBONE|DICT|INTERRES
   205  104  105 1    
   206  104  225 1    
   207  105  106 1    
   208  105  107 1    
   209  105  226 1    
   210  106  227 1    
   211  106  228 1    
   212  106  229 1    
   213  107  108 2    
   214  107  109 am   BACKBONE|DICT|INTERRES
   215  109  110 1    
   216  109  230 1    
   217  110  111 1    
   218  110  112 1    
   219  110  231 1    
   220  111  232 1    
   221  111  233 1    
   222  111  234 1    
   223  112  113 2    
   224  112  114 am   BACKBONE|DICT|INTERRES
   225  114  115 1    
   226  114  235 1    
   227  115  116 1    
   228  115  117 1    
   229  115  236 1    
   230  116  237 1    
   231  116  238 1    
   232  116  239 1    
   233  117  118 2    
   234  117  119 am   BACKBONE|DICT|INTERRES
   235  119  120 1    
   236  119  240 1    
   237  120  121 1    
   238  120  124 1    
   239  120  241 1    
   240  121  122 am   BACKBONE|DICT|INTERRES
   241  121  123 2    
   242  122  242 1    
   243  122  243 1    
   244  124  125 1    
   245  124  244 1    
   246  124  245 1    
   247  125  126 1    
   248  126  246 1    
   249  126  247 1    
@<TRIPOS>SUBSTRUCTURE
     1 UNK         1 GROUP             0       ****    0 ROOT    
