@<TRIPOS>MOLECULE
3R540
247   249    1
SMALL
USER_CHARGES


@<TRIPOS>ATOM
      1 CA         -0.7245  -11.8096  -54.4248 C.3       0 UNK        -0.1800 
      2 C          -0.2562  -11.9708  -52.9858 C.2       0 UNK         0.5000 
      3 O           0.0401  -10.9785  -52.3207 O.2       0 UNK        -0.5000 
      4 N          -0.1844  -13.2188  -52.5088 N.am      1 UNK        -0.5000 
      5 CA          0.2403  -13.5995  -51.1567 C.3       1 UNK         0.1400 
      6 C6          0.5252  -15.1181  -51.1163 C.3       23 UNK        -0.0398 
      7 S7          1.4637  -15.6861  -49.6656 S.3       23 UNK        -0.2404 
      8 C8          0.7612  -17.3479  -49.4517 C.3       23 UNK        -0.0205 
      9 C9         -0.6138  -17.3240  -48.7985 C.ar      23 UNK        -0.0193 
     10 C10        -1.7772  -17.4612  -49.5652 C.ar      23 UNK        -0.1150 
     11 C11        -3.0342  -17.5475  -48.9487 C.ar      23 UNK        -0.0193 
     12 C12        -3.1022  -17.5075  -47.5537 C.ar      23 UNK        -0.1150 
     13 C13        -1.9487  -17.3864  -46.7780 C.ar      23 UNK        -0.0193 
     14 C14        -0.7124  -17.2467  -47.4081 C.ar      23 UNK        -0.1150 
     15 C15        -2.0450  -17.4644  -45.2636 C.3       23 UNK        -0.0205 
     16 S16        -2.1240  -19.1962  -44.7089 S.3       23 UNK        -0.2404 
     17 C17        -0.3599  -19.6715  -44.5973 C.3       23 UNK        -0.0398 
     18 CA          0.3220  -20.1881  -45.8903 C.3       11 UNK         0.1400 
     19 N           1.6226  -20.7776  -45.5932 N.am      11 UNK        -0.5000 
     20 C           2.6000  -20.9737  -46.4868 C.2       10 UNK         0.5000 
     21 O           2.5180  -20.6607  -47.6749 O.2       10 UNK        -0.5000 
     22 CA          3.8916  -21.6158  -45.9571 C.3       10 UNK         0.1400 
     23 CB          4.7823  -20.5580  -45.2848 C.3       10 UNK        -0.1800 
     24 N           3.6145  -22.6920  -45.0062 N.am      10 UNK        -0.5000 
     25 C           3.3089  -23.9506  -45.3522 C.2       9 UNK         0.5000 
     26 O           3.2367  -24.3408  -46.5177 O.2       9 UNK        -0.5000 
     27 CA          3.0662  -24.9506  -44.2049 C.3       9 UNK         0.1400 
     28 CB          4.3650  -25.6974  -43.8636 C.3       9 UNK        -0.1800 
     29 N           2.5606  -24.3019  -42.9946 N.am      9 UNK        -0.5000 
     30 C           1.2784  -23.9639  -42.8045 C.2       8 UNK         0.5000 
     31 O           0.3770  -24.2427  -43.5921 O.2       8 UNK        -0.5000 
     32 CA          0.9487  -23.1680  -41.5255 C.3       8 UNK         0.1400 
     33 CB          0.4778  -24.1119  -40.4093 C.3       8 UNK        -0.1800 
     34 N           2.0634  -22.3507  -41.0327 N.am      8 UNK        -0.5000 
     35 C           2.5692  -21.2990  -41.6875 C.2       7 UNK         0.5000 
     36 O           2.1704  -20.9292  -42.7956 O.2       7 UNK        -0.5000 
     37 CA          3.7432  -20.5666  -41.0279 C.3       7 UNK         0.1400 
     38 CB          5.0668  -21.2999  -41.3183 C.3       7 UNK        -0.1800 
     39 N           3.7740  -19.2136  -41.5694 N.am      7 UNK        -0.5000 
     40 C           4.4726  -18.1751  -41.0998 C.2       6 UNK         0.5000 
     41 O           5.2368  -18.2369  -40.1360 O.2       6 UNK        -0.5000 
     42 CA          4.2618  -16.8316  -41.8238 C.3       6 UNK         0.1400 
     43 CB          5.1969  -16.7207  -43.0380 C.3       6 UNK        -0.1800 
     44 N           2.8798  -16.6361  -42.2676 N.am      6 UNK        -0.5000 
     45 C           1.8296  -16.4359  -41.4615 C.2       5 UNK         0.5000 
     46 O           1.9228  -16.3541  -40.2355 O.2       5 UNK        -0.5000 
     47 CA          0.4543  -16.2916  -42.1499 C.3       5 UNK         0.1400 
     48 CB         -0.6993  -16.0972  -41.1504 C.3       5 UNK        -0.1800 
     49 N           0.4126  -15.2002  -43.1252 N.am      5 UNK        -0.5000 
     50 C           0.9771  -15.1900  -44.3379 C.2       4 UNK         0.5000 
     51 O           1.6223  -16.1386  -44.7899 O.2       4 UNK        -0.5000 
     52 CA          0.7433  -13.9231  -45.1873 C.3       4 UNK         0.1400 
     53 CB          1.8081  -13.7609  -46.2837 C.3       4 UNK        -0.1800 
     54 N          -0.5835  -13.9195  -45.8089 N.am      4 UNK        -0.5000 
     55 C          -1.7440  -13.7480  -45.1592 C.2       3 UNK         0.5000 
     56 O          -1.8145  -13.5177  -43.9505 O.2       3 UNK        -0.5000 
     57 CA         -3.0268  -13.8193  -46.0060 C.3       3 UNK         0.1400 
     58 CB         -4.2812  -13.3253  -45.2596 C.3       3 UNK        -0.1800 
     59 N          -2.8510  -13.0634  -47.2401 N.am      3 UNK        -0.5000 
     60 C          -3.4346  -13.3405  -48.4105 C.2       2 UNK         0.5000 
     61 O          -4.2102  -14.2798  -48.5890 O.2       2 UNK        -0.5000 
     62 CA         -3.1105  -12.3998  -49.5856 C.3       2 UNK         0.1400 
     63 CB         -2.8467  -10.9393  -49.1564 C.3       2 UNK        -0.1800 
     64 N          -2.0169  -12.9023  -50.4194 N.am      2 UNK        -0.5000 
     65 C          -0.7487  -13.1477  -50.0519 C.2       1 UNK         0.5000 
     66 O          -0.3349  -12.9949  -48.9015 O.2       1 UNK        -0.5000 
     67 C          -0.5297  -21.1757  -46.7081 C.2       11 UNK         0.5000 
     68 O          -0.8395  -22.2627  -46.2196 O.2       11 UNK        -0.5000 
     69 N          -0.8984  -20.7781  -47.9338 N.am      12 UNK        -0.5000 
     70 CA         -1.6311  -21.6174  -48.8809 C.3       12 UNK         0.1400 
     71 CB         -1.6502  -20.9528  -50.2643 C.3       12 UNK        -0.1800 
     72 C          -3.0589  -21.9546  -48.4217 C.2       12 UNK         0.5000 
     73 O          -3.5564  -23.0210  -48.7803 O.2       12 UNK        -0.5000 
     74 N          -3.6873  -21.0691  -47.6346 N.am      13 UNK        -0.5000 
     75 CA         -4.9955  -21.3141  -47.0234 C.3       13 UNK         0.1400 
     76 CB         -5.5937  -20.0008  -46.4974 C.3       13 UNK        -0.1800 
     77 C          -4.9177  -22.3596  -45.8978 C.2       13 UNK         0.5000 
     78 O          -5.7671  -23.2477  -45.8367 O.2       13 UNK        -0.5000 
     79 N          -3.8825  -22.2577  -45.0519 N.am      14 UNK        -0.5000 
     80 CA         -3.6112  -23.1889  -43.9542 C.3       14 UNK         0.1400 
     81 CB         -2.5541  -22.5833  -43.0214 C.3       14 UNK        -0.1800 
     82 C          -3.1772  -24.5781  -44.4573 C.2       14 UNK         0.5000 
     83 O          -3.5902  -25.5888  -43.8876 O.2       14 UNK        -0.5000 
     84 N          -2.4021  -24.6007  -45.5497 N.am      15 UNK        -0.5000 
     85 CA         -2.0004  -25.8075  -46.2739 C.3       15 UNK         0.1400 
     86 CB         -0.8162  -25.4580  -47.1891 C.3       15 UNK        -0.1800 
     87 C          -3.1449  -26.4434  -47.0937 C.2       15 UNK         0.5000 
     88 O          -2.9874  -27.5713  -47.5623 O.2       15 UNK        -0.5000 
     89 N          -4.2578  -25.7114  -47.2638 N.am      16 UNK        -0.5000 
     90 CA         -5.4574  -26.0554  -48.0364 C.3       16 UNK         0.1400 
     91 CB         -6.1802  -27.2728  -47.4235 C.3       16 UNK        -0.1800 
     92 C          -5.1862  -26.2072  -49.5491 C.2       16 UNK         0.5000 
     93 O          -5.8664  -26.9790  -50.2278 O.2       16 UNK        -0.5000 
     94 N          -4.1989  -25.4556  -50.0480 N.am      17 UNK        -0.5000 
     95 CA         -3.8181  -25.3834  -51.4550 C.3       17 UNK         0.1400 
     96 CB         -2.2934  -25.2111  -51.5508 C.3       17 UNK        -0.1800 
     97 C          -4.5400  -24.2228  -52.1585 C.2       17 UNK         0.5000 
     98 O          -5.0436  -24.4104  -53.2663 O.2       17 UNK        -0.5000 
     99 N          -4.5847  -23.0604  -51.4863 N.am      18 UNK        -0.5000 
    100 CA        -5.1574  -21.7836  -51.9258 C.3       18 UNK         0.1400 
    101 CB        -6.6939  -21.8256  -51.7793 C.3       18 UNK        -0.1800 
    102 C         -4.6582  -21.3606  -53.3281 C.2       18 UNK         0.5000 
    103 O         -3.4577  -21.1351  -53.4926 O.2       18 UNK        -0.5000 
    104 N         -5.5777  -21.2951  -54.3021 N.am      19 UNK        -0.5000 
    105 CA        -5.3668  -20.9822  -55.7185 C.3       19 UNK         0.1400 
    106 CB        -4.4185  -22.0134  -56.3730 C.3       19 UNK        -0.1800 
    107 C         -4.9433  -19.5186  -55.9696 C.2       19 UNK         0.5000 
    108 O         -5.0996  -18.6605  -55.0973 O.2       19 UNK        -0.5000 
    109 N         -4.4527  -19.2508  -57.1881 N.am      20 UNK        -0.5000 
    110 CA        -4.1005  -17.9223  -57.6992 C.3       20 UNK         0.1400 
    111 CB        -3.7844  -18.0364  -59.1985 C.3       20 UNK        -0.1800 
    112 C         -2.9387  -17.2341  -56.9575 C.2       20 UNK         0.5000 
    113 O         -2.8340  -16.0078  -57.0164 O.2       20 UNK        -0.5000 
    114 N         -2.1087  -18.0189  -56.2533 N.am      21 UNK        -0.5000 
    115 CA        -0.9860  -17.5589  -55.4295 C.3       21 UNK         0.1400 
    116 CB        -0.2989  -18.7772  -54.7943 C.3       21 UNK        -0.1800 
    117 C         -1.3907  -16.5493  -54.3388 C.2       21 UNK         0.5000 
    118 O         -0.6059  -15.6592  -54.0106 O.2       21 UNK        -0.5000 
    119 N         -2.6205  -16.6794  -53.8284 N.am      22 UNK        -0.5000 
    120 CA        -3.2380  -15.7461  -52.8775 C.3       22 UNK         0.1400 
    121 C         -3.5539  -14.3404  -53.4710 C.2       22 UNK         0.5000 
    122 N         -3.5378  -14.1377  -54.7834 N.am      22 UNK        -0.7600 
    123 O         -3.7879  -13.4022  -52.7175 O.2       22 UNK        -0.5000 
    124 C124       -4.4953  -16.3507  -52.2064 C.3       23 UNK        -0.0398 
    125 S125       -4.2197  -18.0187  -51.5104 S.3       23 UNK        -0.2404 
    126 C126       -4.3474  -17.7403  -49.7118 C.3       23 UNK        -0.0205 
    127 H127       -0.0002  -11.2279  -54.9948 H         1 UNK         0.0600 
    128 H128       -0.8493  -12.7740  -54.9186 H         1 UNK         0.0600 
    129 H129       -1.6813  -11.2882  -54.4503 H         1 UNK         0.0600 
    130 H130       -0.4042  -13.9976  -53.1265 H         1 UNK         0.3000 
    131 H131        1.1814  -13.0800  -50.9643 H         1 UNK         0.0600 
    132 H132        1.1194  -15.4023  -51.9860 H         1 UNK         0.0800 
    133 H133       -0.4052  -15.6750  -51.2006 H         1 UNK         0.0800 
    134 H134        1.4434  -17.9343  -48.8337 H         1 UNK         0.0800 
    135 H135        0.7209  -17.8569  -50.4162 H         1 UNK         0.0800 
    136 H136       -1.6913  -17.5341  -50.6389 H         1 UNK         0.1150 
    137 H137       -4.0613  -17.5946  -47.0641 H         1 UNK         0.1150 
    138 H138        0.1845  -17.1351  -46.8152 H         1 UNK         0.1150 
    139 H139       -1.2076  -16.9564  -44.7899 H         1 UNK         0.0800 
    140 H140       -2.9455  -16.9498  -44.9256 H         1 UNK         0.0800 
    141 H141       -0.3010  -20.4404  -43.8261 H         1 UNK         0.0800 
    142 H142        0.2138  -18.8313  -44.2106 H         1 UNK         0.0800 
    143 H143        0.5253  -19.3254  -46.5187 H         1 UNK         0.0600 
    144 H144        1.7837  -21.0420  -44.6255 H         1 UNK         0.3000 
    145 H145        4.4393  -22.0242  -46.8093 H         1 UNK         0.0600 
    146 H146        5.7229  -20.9921  -44.9458 H         1 UNK         0.0600 
    147 H147        5.0280  -19.7563  -45.9823 H         1 UNK         0.0600 
    148 H148        4.2931  -20.1017  -44.4239 H         1 UNK         0.0600 
    149 H149        3.5997  -22.4420  -44.0295 H         1 UNK         0.3000 
    150 H150        2.3344  -25.6839  -44.5514 H         1 UNK         0.0600 
    151 H151        4.7599  -26.2137  -44.7396 H         1 UNK         0.0600 
    152 H152        4.1959  -26.4501  -43.0933 H         1 UNK         0.0600 
    153 H153        5.1397  -25.0180  -43.5060 H         1 UNK         0.0600 
    154 H154        3.2346  -24.0661  -42.2817 H         1 UNK         0.3000 
    155 H155        0.1263  -22.4920  -41.7670 H         1 UNK         0.0600 
    156 H156        1.2679  -24.7981  -40.1021 H         1 UNK         0.0600 
    157 H157       -0.3703  -24.7136  -40.7393 H         1 UNK         0.0600 
    158 H158        0.1552  -23.5537  -39.5303 H         1 UNK         0.0600 
    159 H159        2.4463  -22.6046  -40.1331 H         1 UNK         0.3000 
    160 H160        3.5701  -20.5164  -39.9512 H         1 UNK         0.0600 
    161 H161        5.9100  -20.8093  -40.8324 H         1 UNK         0.0600 
    162 H162        5.2788  -21.3421  -42.3869 H         1 UNK         0.0600 
    163 H163        5.0385  -22.3251  -40.9477 H         1 UNK         0.0600 
    164 H164        3.1468  -19.0763  -42.3520 H         1 UNK         0.3000 
    165 H165        4.5120  -16.0316  -41.1238 H         1 UNK         0.0600 
    166 H166        5.1076  -15.7450  -43.5161 H         1 UNK         0.0600 
    167 H167        6.2393  -16.8430  -42.7410 H         1 UNK         0.0600 
    168 H168        4.9769  -17.4822  -43.7874 H         1 UNK         0.0600 
    169 H169        2.7068  -16.6432  -43.2689 H         1 UNK         0.3000 
    170 H170        0.2681  -17.2281  -42.6737 H         1 UNK         0.0600 
    171 H171       -0.7382  -16.9160  -40.4309 H         1 UNK         0.0600 
    172 H172       -0.5933  -15.1680  -40.5891 H         1 UNK         0.0600 
    173 H173       -1.6619  -16.0718  -41.6619 H         1 UNK         0.0600 
    174 H174       -0.1594  -14.4026  -42.8745 H         1 UNK         0.3000 
    175 H175        0.8183  -13.0578  -44.5254 H         1 UNK         0.0600 
    176 H176        1.7786  -14.5863  -46.9941 H         1 UNK         0.0600 
    177 H177        1.6649  -12.8352  -46.8413 H         1 UNK         0.0600 
    178 H178        2.8105  -13.7327  -45.8550 H         1 UNK         0.0600 
    179 H179       -0.6046  -14.0703  -46.8102 H         1 UNK         0.3000 
    180 H180       -3.1737  -14.8706  -46.2535 H         1 UNK         0.0600 
    181 H181       -4.1919  -12.2752  -44.9792 H         1 UNK         0.0600 
    182 H182       -4.4469  -13.8995  -44.3473 H         1 UNK         0.0600 
    183 H183       -5.1751  -13.4334  -45.8740 H         1 UNK         0.0600 
    184 H184       -2.1791  -12.3084  -47.2063 H         1 UNK         0.3000 
    185 H185       -3.9988  -12.3903  -50.2185 H         1 UNK         0.0600 
    186 H186       -3.6639  -10.5590  -48.5421 H         1 UNK         0.0600 
    187 H187       -1.9248  -10.8288  -48.5854 H         1 UNK         0.0600 
    188 H188       -2.7699  -10.2893  -50.0282 H         1 UNK         0.0600 
    189 H189       -2.2764  -13.0593  -51.3867 H         1 UNK         0.3000 
    190 H190       -0.6189  -19.8655  -48.2632 H         1 UNK         0.3000 
    191 H191       -1.0839  -22.5575  -48.9723 H         1 UNK         0.0600 
    192 H192       -2.2943  -20.0753  -50.2825 H         1 UNK         0.0600 
    193 H193       -2.0268  -21.6420  -51.0207 H         1 UNK         0.0600 
    194 H194       -0.6517  -20.6470  -50.5769 H         1 UNK         0.0600 
    195 H195       -3.2087  -20.2161  -47.3844 H         1 UNK         0.3000 
    196 H196       -5.6669  -21.7033  -47.7923 H         1 UNK         0.0600 
    197 H197       -6.5507  -20.1799  -46.0055 H         1 UNK         0.0600 
    198 H198       -5.7812  -19.2975  -47.3066 H         1 UNK         0.0600 
    199 H199       -4.9408  -19.5179  -45.7705 H         1 UNK         0.0600 
    200 H200       -3.2131  -21.5134  -45.1871 H         1 UNK         0.3000 
    201 H201       -4.5328  -23.3164  -43.3825 H         1 UNK         0.0600 
    202 H202       -2.8912  -21.6356  -42.6014 H         1 UNK         0.0600 
    203 H203       -1.6186  -22.4029  -43.5498 H         1 UNK         0.0600 
    204 H204       -2.3381  -23.2534  -42.1885 H         1 UNK         0.0600 
    205 H205       -2.0180  -23.7217  -45.8879 H         1 UNK         0.3000 
    206 H206       -1.6636  -26.5482  -45.5459 H         1 UNK         0.0600 
    207 H207        0.0112  -25.0333  -46.6192 H         1 UNK         0.0600 
    208 H208       -0.4386  -26.3448  -47.6993 H         1 UNK         0.0600 
    209 H209       -1.1024  -24.7360  -47.9538 H         1 UNK         0.0600 
    210 H210       -4.2755  -24.7950  -46.8372 H         1 UNK         0.3000 
    211 H211       -6.1260  -25.1987  -47.9412 H         1 UNK         0.0600 
    212 H212       -5.6051  -28.1909  -47.5459 H         1 UNK         0.0600 
    213 H213       -7.1502  -27.4303  -47.8962 H         1 UNK         0.0600 
    214 H214       -6.3598  -27.1280  -46.3582 H         1 UNK         0.0600 
    215 H215       -3.7567  -24.7877  -49.4235 H         1 UNK         0.3000 
    216 H216       -4.0872  -26.3123  -51.9625 H         1 UNK         0.0600 
    217 H217       -1.9724  -25.1488  -52.5914 H         1 UNK         0.0600 
    218 H218       -1.7746  -26.0572  -51.0996 H         1 UNK         0.0600 
    219 H219       -1.9540  -24.3054  -51.0467 H         1 UNK         0.0600 
    220 H220       -4.1594  -23.0441  -50.5650 H         1 UNK         0.3000 
    221 H221       -4.7841  -21.0281  -51.2331 H         1 UNK         0.0600 
    222 H222       -7.1456  -22.5959  -52.4054 H         1 UNK         0.0600 
    223 H223       -6.9769  -22.0355  -50.7476 H         1 UNK         0.0600 
    224 H224       -7.1427  -20.8668  -52.0427 H         1 UNK         0.0600 
    225 H225       -6.5354  -21.4842  -54.0447 H         1 UNK         0.3000 
    226 H226       -6.3445  -21.0937  -56.1890 H         1 UNK         0.0600 
    227 H227       -4.6983  -23.0312  -56.0998 H         1 UNK         0.0600 
    228 H228       -4.4553  -21.9577  -57.4612 H         1 UNK         0.0600 
    229 H229       -3.3818  -21.8630  -56.0698 H         1 UNK         0.0600 
    230 H230       -4.3578  -20.0141  -57.8422 H         1 UNK         0.3000 
    231 H231       -4.9773  -17.2817  -57.5836 H         1 UNK         0.0600 
    232 H232       -4.6356  -18.4315  -59.7533 H         1 UNK         0.0600 
    233 H233       -2.9303  -18.6899  -59.3806 H         1 UNK         0.0600 
    234 H234       -3.5472  -17.0604  -59.6243 H         1 UNK         0.0600 
    235 H235       -2.2880  -19.0121  -56.2539 H         1 UNK         0.3000 
    236 H236       -0.2725  -17.0615  -56.0892 H         1 UNK         0.0600 
    237 H237        0.5521  -18.4722  -54.1836 H         1 UNK         0.0600 
    238 H238       -0.9825  -19.3333  -54.1505 H         1 UNK         0.0600 
    239 H239        0.0770  -19.4610  -55.5555 H         1 UNK         0.0600 
    240 H240       -3.2102  -17.4343  -54.1550 H         1 UNK         0.3000 
    241 H241       -2.5118  -15.5738  -52.0834 H         1 UNK         0.0600 
    242 H242       -3.7448  -13.2185  -55.1385 H         1 UNK         0.3800 
    243 H243       -3.3063  -14.8804  -55.4344 H         1 UNK         0.3800 
    244 H244       -4.8624  -15.6828  -51.4253 H         1 UNK         0.0800 
    245 H245       -5.3029  -16.4347  -52.9359 H         1 UNK         0.0800 
    246 H246       -5.0101  -16.8991  -49.5057 H         1 UNK         0.0800 
    247 H247       -4.8435  -18.6205  -49.3037 H         1 UNK         0.0800 
@<TRIPOS>BOND
     1    1    2 1    
     2    1  127 1    
     3    1  128 1    
     4    1  129 1    
     5    2    3 2    
     6    2    4 am   BACKBONE|DICT|INTERRES
     7    4    5 1    
     8    4  130 1    
     9    5    6 1    
    10    5   65 1    
    11    5  131 1    
    12    6    7 1    
    13    6  132 1    
    14    6  133 1    
    15    7    8 1    
    16    8    9 1    
    17    8  134 1    
    18    8  135 1    
    19    9   10 ar   
    20    9   14 ar   
    21   10   11 ar   
    22   10  136 1    
    23   11   12 ar   
    24   11  126 1    
    25   12   13 ar   
    26   12  137 1    
    27   13   14 ar   
    28   13   15 1    
    29   14  138 1    
    30   15   16 1    
    31   15  139 1    
    32   15  140 1    
    33   16   17 1    
    34   17   18 1    
    35   17  141 1    
    36   17  142 1    
    37   18   19 1    
    38   18   67 1    
    39   18  143 1    
    40   19   20 am   BACKBONE|DICT|INTERRES
    41   19  144 1    
    42   20   21 2    
    43   20   22 1    
    44   22   23 1    
    45   22   24 1    
    46   22  145 1    
    47   23  146 1    
    48   23  147 1    
    49   23  148 1    
    50   24   25 am   BACKBONE|DICT|INTERRES
    51   24  149 1    
    52   25   26 2    
    53   25   27 1    
    54   27   28 1    
    55   27   29 1    
    56   27  150 1    
    57   28  151 1    
    58   28  152 1    
    59   28  153 1    
    60   29   30 am   BACKBONE|DICT|INTERRES
    61   29  154 1    
    62   30   31 2    
    63   30   32 1    
    64   32   33 1    
    65   32   34 1    
    66   32  155 1    
    67   33  156 1    
    68   33  157 1    
    69   33  158 1    
    70   34   35 am   BACKBONE|DICT|INTERRES
    71   34  159 1    
    72   35   36 2    
    73   35   37 1    
    74   37   38 1    
    75   37   39 1    
    76   37  160 1    
    77   38  161 1    
    78   38  162 1    
    79   38  163 1    
    80   39   40 am   BACKBONE|DICT|INTERRES
    81   39  164 1    
    82   40   41 2    
    83   40   42 1    
    84   42   43 1    
    85   42   44 1    
    86   42  165 1    
    87   43  166 1    
    88   43  167 1    
    89   43  168 1    
    90   44   45 am   BACKBONE|DICT|INTERRES
    91   44  169 1    
    92   45   46 2    
    93   45   47 1    
    94   47   48 1    
    95   47   49 1    
    96   47  170 1    
    97   48  171 1    
    98   48  172 1    
    99   48  173 1    
   100   49   50 am   BACKBONE|DICT|INTERRES
   101   49  174 1    
   102   50   51 2    
   103   50   52 1    
   104   52   53 1    
   105   52   54 1    
   106   52  175 1    
   107   53  176 1    
   108   53  177 1    
   109   53  178 1    
   110   54   55 am   BACKBONE|DICT|INTERRES
   111   54  179 1    
   112   55   56 2    
   113   55   57 1    
   114   57   58 1    
   115   57   59 1    
   116   57  180 1    
   117   58  181 1    
   118   58  182 1    
   119   58  183 1    
   120   59   60 am   BACKBONE|DICT|INTERRES
   121   59  184 1    
   122   60   61 2    
   123   60   62 1    
   124   62   63 1    
   125   62   64 1    
   126   62  185 1    
   127   63  186 1    
   128   63  187 1    
   129   63  188 1    
   130   64   65 am   BACKBONE|DICT|INTERRES
   131   64  189 1    
   132   65   66 2    
   133   67   68 2    
   134   67   69 am   BACKBONE|DICT|INTERRES
   135   69   70 1    
   136   69  190 1    
   137   70   71 1    
   138   70   72 1    
   139   70  191 1    
   140   71  192 1    
   141   71  193 1    
   142   71  194 1    
   143   72   73 2    
   144   72   74 am   BACKBONE|DICT|INTERRES
   145   74   75 1    
   146   74  195 1    
   147   75   76 1    
   148   75   77 1    
   149   75  196 1    
   150   76  197 1    
   151   76  198 1    
   152   76  199 1    
   153   77   78 2    
   154   77   79 am   BACKBONE|DICT|INTERRES
   155   79   80 1    
   156   79  200 1    
   157   80   81 1    
   158   80   82 1    
   159   80  201 1    
   160   81  202 1    
   161   81  203 1    
   162   81  204 1    
   163   82   83 2    
   164   82   84 am   BACKBONE|DICT|INTERRES
   165   84   85 1    
   166   84  205 1    
   167   85   86 1    
   168   85   87 1    
   169   85  206 1    
   170   86  207 1    
   171   86  208 1    
   172   86  209 1    
   173   87   88 2    
   174   87   89 am   BACKBONE|DICT|INTERRES
   175   89   90 1    
   176   89  210 1    
   177   90   91 1    
   178   90   92 1    
   179   90  211 1    
   180   91  212 1    
   181   91  213 1    
   182   91  214 1    
   183   92   93 2    
   184   92   94 am   BACKBONE|DICT|INTERRES
   185   94   95 1    
   186   94  215 1    
   187   95   96 1    
   188   95   97 1    
   189   95  216 1    
   190   96  217 1    
   191   96  218 1    
   192   96  219 1    
   193   97   98 2    
   194   97   99 am   BACKBONE|DICT|INTERRES
   195   99  100 1    
   196   99  220 1    
   197  100  101 1    
   198  100  102 1    
   199  100  221 1    
   200  101  222 1    
   201  101  223 1    
   202  101  224 1    
   203  102  103 2    
   204  102  104 am   BACKBONE|DICT|INTERRES
   205  104  105 1    
   206  104  225 1    
   207  105  106 1    
   208  105  107 1    
   209  105  226 1    
   210  106  227 1    
   211  106  228 1    
   212  106  229 1    
   213  107  108 2    
   214  107  109 am   BACKBONE|DICT|INTERRES
   215  109  110 1    
   216  109  230 1    
   217  110  111 1    
   218  110  112 1    
   219  110  231 1    
   220  111  232 1    
   221  111  233 1    
   222  111  234 1    
   223  112  113 2    
   224  112  114 am   BACKBONE|DICT|INTERRES
   225  114  115 1    
   226  114  235 1    
   227  115  116 1    
   228  115  117 1    
   229  115  236 1    
   230  116  237 1    
   231  116  238 1    
   232  116  239 1    
   233  117  118 2    
   234  117  119 am   BACKBONE|DICT|INTERRES
   235  119  120 1    
   236  119  240 1    
   237  120  121 1    
   238  120  124 1    
   239  120  241 1    
   240  121  122 am   BACKBONE|DICT|INTERRES
   241  121  123 2    
   242  122  242 1    
   243  122  243 1    
   244  124  125 1    
   245  124  244 1    
   246  124  245 1    
   247  125  126 1    
   248  126  246 1    
   249  126  247 1    
@<TRIPOS>SUBSTRUCTURE
     1 UNK         1 GROUP             0       ****    0 ROOT    
