@<TRIPOS>MOLECULE
3R540
247   249    1
SMALL
USER_CHARGES


@<TRIPOS>ATOM
      1 CA         -0.1253  -11.6821  -47.0823 C.3       0 UNK        -0.1800 
      2 C           0.9905  -11.7297  -48.1156 C.2       0 UNK         0.5000 
      3 O           0.7179  -11.8987  -49.3040 O.2       0 UNK        -0.5000 
      4 N           2.2401  -11.5913  -47.6675 N.am      1 UNK        -0.5000 
      5 CA          3.4403  -11.6125  -48.5005 C.3       1 UNK         0.1400 
      6 C6          3.9062  -13.0582  -48.8454 C.3       23 UNK        -0.0398 
      7 S7          4.4016  -14.1012  -47.4190 S.3       23 UNK        -0.2404 
      8 C8          2.8617  -14.9671  -46.9781 C.3       23 UNK        -0.0205 
      9 C9          2.3754  -15.8939  -48.0820 C.ar      23 UNK        -0.0193 
     10 C10         1.2729  -15.5337  -48.8614 C.ar      23 UNK        -0.1150 
     11 C11         0.8056  -16.3821  -49.8658 C.ar      23 UNK        -0.0193 
     12 C12         1.4548  -17.5966  -50.0979 C.ar      23 UNK        -0.1150 
     13 C13         2.5529  -17.9748  -49.3209 C.ar      23 UNK        -0.0193 
     14 C14         3.0091  -17.1195  -48.3122 C.ar      23 UNK        -0.1150 
     15 C15         3.2486  -19.3024  -49.5833 C.3       23 UNK        -0.0205 
     16 S16         2.6762  -20.6162  -48.4609 S.3       23 UNK        -0.2404 
     17 C17         0.9263  -20.7907  -48.9507 C.3       23 UNK        -0.0398 
     18 CA          0.2691  -22.0549  -48.3494 C.3       11 UNK         0.1400 
     19 N           0.2305  -22.0170  -46.8836 N.am      11 UNK        -0.5000 
     20 C          -0.0959  -23.0496  -46.0950 C.2       10 UNK         0.5000 
     21 O          -0.3812  -24.1691  -46.5179 O.2       10 UNK        -0.5000 
     22 CA         -0.1743  -22.7676  -44.5844 C.3       10 UNK         0.1400 
     23 CB          1.2207  -22.7875  -43.9410 C.3       10 UNK        -0.1800 
     24 N          -0.8384  -21.4950  -44.2993 N.am      10 UNK        -0.5000 
     25 C          -2.1417  -21.2613  -44.5074 C.2       9 UNK         0.5000 
     26 O          -2.9267  -22.1084  -44.9301 O.2       9 UNK        -0.5000 
     27 CA         -2.6456  -19.8321  -44.2453 C.3       9 UNK         0.1400 
     28 CB         -2.9720  -19.6315  -42.7584 C.3       9 UNK        -0.1800 
     29 N          -1.6843  -18.8203  -44.6805 N.am      9 UNK        -0.5000 
     30 C          -1.4001  -18.5625  -45.9665 C.2       8 UNK         0.5000 
     31 O          -1.9386  -19.1384  -46.9114 O.2       8 UNK        -0.5000 
     32 CA         -0.2988  -17.5193  -46.2393 C.3       8 UNK         0.1400 
     33 CB         -0.9053  -16.1075  -46.2214 C.3       8 UNK        -0.1800 
     34 N           0.8131  -17.5786  -45.2853 N.am      8 UNK        -0.5000 
     35 C           1.5374  -18.6748  -45.0118 C.2       7 UNK         0.5000 
     36 O           1.3770  -19.7531  -45.5779 O.2       7 UNK        -0.5000 
     37 CA          2.5597  -18.5877  -43.8626 C.3       7 UNK         0.1400 
     38 CB          3.9668  -18.3158  -44.4152 C.3       7 UNK        -0.1800 
     39 N           2.2347  -17.5785  -42.8531 N.am      7 UNK        -0.5000 
     40 C           1.0974  -17.5055  -42.1461 C.2       6 UNK         0.5000 
     41 O           0.1874  -18.3323  -42.2226 O.2       6 UNK        -0.5000 
     42 CA          0.9173  -16.2638  -41.2515 C.3       6 UNK         0.1400 
     43 CB          2.2481  -15.7158  -40.6928 C.3       6 UNK        -0.1800 
     44 N           0.1730  -15.1923  -41.9241 N.am      6 UNK        -0.5000 
     45 C           0.4524  -14.6089  -43.0999 C.2       5 UNK         0.5000 
     46 O           1.3700  -14.9533  -43.8458 O.2       5 UNK        -0.5000 
     47 CA         -0.4236  -13.4183  -43.5282 C.3       5 UNK         0.1400 
     48 CB         -1.8161  -13.3660  -42.8609 C.3       5 UNK        -0.1800 
     49 N           0.3206  -12.1696  -43.3560 N.am      5 UNK        -0.5000 
     50 C           0.7401  -11.6201  -42.2086 C.2       4 UNK         0.5000 
     51 O           0.4433  -12.0357  -41.0871 O.2       4 UNK        -0.5000 
     52 CA          1.7205  -10.4420  -42.3589 C.3       4 UNK         0.1400 
     53 CB          1.7373   -9.5278  -41.1211 C.3       4 UNK        -0.1800 
     54 N           3.0706  -10.9532  -42.5885 N.am      4 UNK        -0.5000 
     55 C           3.5219  -11.4357  -43.7516 C.2       3 UNK         0.5000 
     56 O           2.8638  -11.4348  -44.7980 O.2       3 UNK        -0.5000 
     57 CA          4.9238  -12.0669  -43.7221 C.3       3 UNK         0.1400 
     58 CB          4.8152  -13.5809  -43.4837 C.3       3 UNK        -0.1800 
     59 N           5.5970  -11.8367  -44.9941 N.am      3 UNK        -0.5000 
     60 C           6.3237  -10.7514  -45.2954 C.2       2 UNK         0.5000 
     61 O           6.6506   -9.8934  -44.4746 O.2       2 UNK        -0.5000 
     62 CA          6.7223  -10.5829  -46.7774 C.3       2 UNK         0.1400 
     63 CB          8.0914  -11.2244  -47.0481 C.3       2 UNK        -0.1800 
     64 N           5.7271  -11.1744  -47.6750 N.am      2 UNK        -0.5000 
     65 C           4.4847  -10.6971  -47.8313 C.2       1 UNK         0.5000 
     66 O           4.1387   -9.5819  -47.4331 O.2       1 UNK        -0.5000 
     67 C          -1.1258  -22.2984  -48.9677 C.2       11 UNK         0.5000 
     68 O          -1.2142  -22.9263  -50.0236 O.2       11 UNK        -0.5000 
     69 N          -2.1903  -21.8297  -48.3000 N.am      12 UNK        -0.5000 
     70 CA         -3.5738  -22.1455  -48.6463 C.3       12 UNK         0.1400 
     71 CB         -4.5267  -21.1257  -48.0054 C.3       12 UNK        -0.1800 
     72 C          -3.9453  -23.5845  -48.2519 C.2       12 UNK         0.5000 
     73 O          -4.4504  -24.3297  -49.0933 O.2       12 UNK        -0.5000 
     74 N          -3.6653  -23.9619  -46.9951 N.am      13 UNK        -0.5000 
     75 CA         -3.9547  -25.2800  -46.4191 C.3       13 UNK         0.1400 
     76 CB         -3.5890  -25.2857  -44.9284 C.3       13 UNK        -0.1800 
     77 C          -3.2637  -26.4485  -47.1449 C.2       13 UNK         0.5000 
     78 O          -3.8405  -27.5334  -47.2229 O.2       13 UNK        -0.5000 
     79 N          -2.0818  -26.1947  -47.7234 N.am      14 UNK        -0.5000 
     80 CA         -1.3432  -27.1134  -48.5951 C.3       14 UNK         0.1400 
     81 CB         -0.0046  -26.4648  -48.9798 C.3       14 UNK        -0.1800 
     82 C          -2.1162  -27.5392  -49.8630 C.2       14 UNK         0.5000 
     83 O          -1.8346  -28.6066  -50.4086 O.2       14 UNK        -0.5000 
     84 N          -3.0846  -26.7180  -50.2889 N.am      15 UNK        -0.5000 
     85 CA         -4.0111  -26.9813  -51.3886 C.3       15 UNK         0.1400 
     86 CB         -3.8478  -25.8686  -52.4337 C.3       15 UNK        -0.1800 
     87 C          -5.4640  -27.0751  -50.8776 C.2       15 UNK         0.5000 
     88 O          -6.3978  -26.8216  -51.6426 O.2       15 UNK        -0.5000 
     89 N          -5.6337  -27.3913  -49.5820 N.am      16 UNK        -0.5000 
     90 CA         -6.8950  -27.5486  -48.8430 C.3       16 UNK         0.1400 
     91 CB         -7.6448  -28.8002  -49.3440 C.3       16 UNK        -0.1800 
     92 C          -7.7975  -26.2939  -48.8433 C.2       16 UNK         0.5000 
     93 O          -9.0033  -26.4113  -48.6217 O.2       16 UNK        -0.5000 
     94 N          -7.2061  -25.1251  -49.1360 N.am      17 UNK        -0.5000 
     95 CA         -7.8416  -23.8343  -49.4209 C.3       17 UNK         0.1400 
     96 CB         -8.5515  -23.2805  -48.1696 C.3       17 UNK        -0.1800 
     97 C          -8.7532  -23.8375  -50.6723 C.2       17 UNK         0.5000 
     98 O          -9.4843  -22.8702  -50.8882 O.2       17 UNK        -0.5000 
     99 N          -8.6913  -24.9030  -51.4840 N.am      18 UNK        -0.5000 
    100 CA        -9.5069  -25.0953  -52.6829 C.3       18 UNK         0.1400 
    101 CB        -9.7799  -26.5972  -52.8591 C.3       18 UNK        -0.1800 
    102 C         -8.8263  -24.5236  -53.9371 C.2       18 UNK         0.5000 
    103 O         -9.5173  -24.0741  -54.8520 O.2       18 UNK        -0.5000 
    104 N         -7.4891  -24.5415  -53.9511 N.am      19 UNK        -0.5000 
    105 CA        -6.6440  -24.0273  -55.0265 C.3       19 UNK         0.1400 
    106 CB        -6.2812  -25.1729  -55.9905 C.3       19 UNK        -0.1800 
    107 C         -5.4195  -23.3317  -54.4110 C.2       19 UNK         0.5000 
    108 O         -4.2842  -23.6109  -54.7991 O.2       19 UNK        -0.5000 
    109 N         -5.6827  -22.4737  -53.4147 N.am      20 UNK        -0.5000 
    110 CA        -4.6933  -21.7372  -52.6280 C.3       20 UNK         0.1400 
    111 CB        -5.4327  -20.8539  -51.6100 C.3       20 UNK        -0.1800 
    112 C         -3.7561  -20.8677  -53.4842 C.2       20 UNK         0.5000 
    113 O         -4.2155  -20.2120  -54.4231 O.2       20 UNK        -0.5000 
    114 N         -2.4728  -20.8313  -53.0995 N.am      21 UNK        -0.5000 
    115 CA        -1.4104  -20.0604  -53.7563 C.3       21 UNK         0.1400 
    116 CB        -0.0801  -20.3540  -53.0467 C.3       21 UNK        -0.1800 
    117 C         -1.6660  -18.5401  -53.7932 C.2       21 UNK         0.5000 
    118 O         -1.1757  -17.8613  -54.6961 O.2       21 UNK        -0.5000 
    119 N         -2.4380  -18.0449  -52.8195 N.am      22 UNK        -0.5000 
    120 CA        -2.8859  -16.6496  -52.7154 C.3       22 UNK         0.1400 
    121 C         -4.0871  -16.2933  -53.6418 C.2       22 UNK         0.5000 
    122 N         -4.6928  -17.2362  -54.3561 N.am      22 UNK        -0.7600 
    123 O         -4.4745  -15.1308  -53.7206 O.2       22 UNK        -0.5000 
    124 C124       -3.1764  -16.2442  -51.2436 C.3       23 UNK        -0.0398 
    125 S125       -1.9110  -16.7683  -50.0313 S.3       23 UNK        -0.2404 
    126 C126       -0.4047  -15.9947  -50.6952 C.3       23 UNK        -0.0205 
    127 H127       -0.5687  -12.6708  -46.9650 H         1 UNK         0.0600 
    128 H128       -0.9060  -10.9922  -47.4024 H         1 UNK         0.0600 
    129 H129        0.2414  -11.3486  -46.1122 H         1 UNK         0.0600 
    130 H130        2.4170  -11.4307  -46.6776 H         1 UNK         0.3000 
    131 H131        3.2050  -11.1165  -49.4445 H         1 UNK         0.0600 
    132 H132        4.7479  -13.0182  -49.5382 H         1 UNK         0.0800 
    133 H133        3.1204  -13.5637  -49.4051 H         1 UNK         0.0800 
    134 H134        2.0966  -14.2366  -46.7145 H         1 UNK         0.0800 
    135 H135        3.0344  -15.5497  -46.0735 H         1 UNK         0.0800 
    136 H136        0.7685  -14.5960  -48.6811 H         1 UNK         0.1150 
    137 H137        1.0949  -18.2525  -50.8773 H         1 UNK         0.1150 
    138 H138        3.8567  -17.4069  -47.7060 H         1 UNK         0.1150 
    139 H139        3.0981  -19.6168  -50.6172 H         1 UNK         0.0800 
    140 H140        4.3252  -19.1787  -49.4582 H         1 UNK         0.0800 
    141 H141        0.8908  -20.8275  -50.0399 H         1 UNK         0.0800 
    142 H142        0.3812  -19.8953  -48.6462 H         1 UNK         0.0800 
    143 H143        0.8827  -22.9137  -48.6303 H         1 UNK         0.0600 
    144 H144        0.5196  -21.1433  -46.4473 H         1 UNK         0.3000 
    145 H145       -0.7636  -23.5640  -44.1260 H         1 UNK         0.0600 
    146 H146        1.1619  -22.6172  -42.8659 H         1 UNK         0.0600 
    147 H147        1.7013  -23.7550  -44.0910 H         1 UNK         0.0600 
    148 H148        1.8784  -22.0293  -44.3654 H         1 UNK         0.0600 
    149 H149       -0.2495  -20.7278  -44.0086 H         1 UNK         0.3000 
    150 H150       -3.5670  -19.6933  -44.8151 H         1 UNK         0.0600 
    151 H151       -3.7333  -20.3398  -42.4293 H         1 UNK         0.0600 
    152 H152       -3.3567  -18.6291  -42.5700 H         1 UNK         0.0600 
    153 H153       -2.0947  -19.7784  -42.1277 H         1 UNK         0.0600 
    154 H154       -1.1503  -18.3580  -43.9543 H         1 UNK         0.3000 
    155 H155        0.1081  -17.7164  -47.2324 H         1 UNK         0.0600 
    156 H156       -1.3932  -15.8924  -45.2704 H         1 UNK         0.0600 
    157 H157       -1.6548  -15.9978  -47.0058 H         1 UNK         0.0600 
    158 H158       -0.1473  -15.3437  -46.3879 H         1 UNK         0.0600 
    159 H159        1.0224  -16.7289  -44.7719 H         1 UNK         0.3000 
    160 H160        2.5684  -19.5589  -43.3642 H         1 UNK         0.0600 
    161 H161        4.0375  -17.3287  -44.8721 H         1 UNK         0.0600 
    162 H162        4.2362  -19.0494  -45.1766 H         1 UNK         0.0600 
    163 H163        4.7179  -18.3751  -43.6275 H         1 UNK         0.0600 
    164 H164        2.8853  -16.8116  -42.7664 H         1 UNK         0.3000 
    165 H165        0.3103  -16.5815  -40.4024 H         1 UNK         0.0600 
    166 H166        2.0653  -14.9280  -39.9618 H         1 UNK         0.0600 
    167 H167        2.8153  -16.4991  -40.1883 H         1 UNK         0.0600 
    168 H168        2.8823  -15.2951  -41.4722 H         1 UNK         0.0600 
    169 H169       -0.6085  -14.8223  -41.4020 H         1 UNK         0.3000 
    170 H170       -0.5855  -13.5302  -44.6005 H         1 UNK         0.0600 
    171 H171       -2.3704  -14.2867  -43.0477 H         1 UNK         0.0600 
    172 H172       -1.7661  -13.2259  -41.7813 H         1 UNK         0.0600 
    173 H173       -2.4087  -12.5474  -43.2695 H         1 UNK         0.0600 
    174 H174        0.7401  -11.8043  -44.2015 H         1 UNK         0.3000 
    175 H175        1.4091   -9.8398  -43.2155 H         1 UNK         0.0600 
    176 H176        0.7397   -9.1404  -40.9101 H         1 UNK         0.0600 
    177 H177        2.0807  -10.0547  -40.2298 H         1 UNK         0.0600 
    178 H178        2.3924   -8.6702  -41.2751 H         1 UNK         0.0600 
    179 H179        3.6592  -11.0235  -41.7710 H         1 UNK         0.3000 
    180 H180        5.5072  -11.6251  -42.9114 H         1 UNK         0.0600 
    181 H181        4.1842  -14.0650  -44.2305 H         1 UNK         0.0600 
    182 H182        4.3804  -13.7865  -42.5058 H         1 UNK         0.0600 
    183 H183        5.7948  -14.0583  -43.5111 H         1 UNK         0.0600 
    184 H184        5.3342  -12.4591  -45.7451 H         1 UNK         0.3000 
    185 H185        6.7936   -9.5139  -46.9892 H         1 UNK         0.0600 
    186 H186        8.0776  -12.2990  -46.8613 H         1 UNK         0.0600 
    187 H187        8.4037  -11.0665  -48.0805 H         1 UNK         0.0600 
    188 H188        8.8590  -10.7893  -46.4067 H         1 UNK         0.0600 
    189 H189        5.9366  -12.0977  -48.0277 H         1 UNK         0.3000 
    190 H190       -2.0418  -21.2533  -47.4805 H         1 UNK         0.3000 
    191 H191       -3.6797  -22.0668  -49.7281 H         1 UNK         0.0600 
    192 H192       -4.4567  -21.1293  -46.9178 H         1 UNK         0.0600 
    193 H193       -5.5634  -21.3398  -48.2680 H         1 UNK         0.0600 
    194 H194       -4.3058  -20.1145  -48.3479 H         1 UNK         0.0600 
    195 H195       -3.2725  -23.2765  -46.3540 H         1 UNK         0.3000 
    196 H196       -5.0316  -25.4394  -46.5041 H         1 UNK         0.0600 
    197 H197       -3.8184  -26.2493  -44.4718 H         1 UNK         0.0600 
    198 H198       -4.1489  -24.5270  -44.3815 H         1 UNK         0.0600 
    199 H199       -2.5266  -25.0947  -44.7770 H         1 UNK         0.0600 
    200 H200       -1.6381  -25.3014  -47.5303 H         1 UNK         0.3000 
    201 H201       -1.1353  -28.0182  -48.0208 H         1 UNK         0.0600 
    202 H202        0.5990  -26.2523  -48.0973 H         1 UNK         0.0600 
    203 H203       -0.1539  -25.5276  -49.5174 H         1 UNK         0.0600 
    204 H204        0.5815  -27.1236  -49.6219 H         1 UNK         0.0600 
    205 H205       -3.2631  -25.8646  -49.7695 H         1 UNK         0.3000 
    206 H206       -3.7836  -27.9360  -51.8661 H         1 UNK         0.0600 
    207 H207       -2.8151  -25.7922  -52.7741 H         1 UNK         0.0600 
    208 H208       -4.4624  -26.0636  -53.3126 H         1 UNK         0.0600 
    209 H209       -4.1391  -24.8990  -52.0295 H         1 UNK         0.0600 
    210 H210       -4.8017  -27.5453  -49.0223 H         1 UNK         0.3000 
    211 H211       -6.6190  -27.7205  -47.8019 H         1 UNK         0.0600 
    212 H212       -8.0102  -28.6704  -50.3634 H         1 UNK         0.0600 
    213 H213       -8.5063  -29.0229  -48.7135 H         1 UNK         0.0600 
    214 H214       -6.9996  -29.6786  -49.3282 H         1 UNK         0.0600 
    215 H215       -6.1980  -25.1290  -49.2652 H         1 UNK         0.3000 
    216 H216       -7.0228  -23.1547  -49.6548 H         1 UNK         0.0600 
    217 H217       -8.8843  -22.2545  -48.3300 H         1 UNK         0.0600 
    218 H218       -7.8818  -23.2714  -47.3096 H         1 UNK         0.0600 
    219 H219       -9.4299  -23.8701  -47.9065 H         1 UNK         0.0600 
    220 H220       -8.0307  -25.6422  -51.2682 H         1 UNK         0.3000 
    221 H221      -10.4664  -24.5888  -52.5587 H         1 UNK         0.0600 
    222 H222       -8.8568  -27.1621  -52.9964 H         1 UNK         0.0600 
    223 H223      -10.2959  -27.0073  -51.9908 H         1 UNK         0.0600 
    224 H224      -10.4105  -26.7804  -53.7300 H         1 UNK         0.0600 
    225 H225       -7.0051  -24.9400  -53.1569 H         1 UNK         0.3000 
    226 H226       -7.1803  -23.2611  -55.5901 H         1 UNK         0.0600 
    227 H227       -7.1755  -25.6138  -56.4310 H         1 UNK         0.0600 
    228 H228       -5.6596  -24.8135  -56.8113 H         1 UNK         0.0600 
    229 H229       -5.7330  -25.9669  -55.4825 H         1 UNK         0.0600 
    230 H230       -6.6506  -22.2972  -53.1904 H         1 UNK         0.3000 
    231 H231       -4.0924  -22.4710  -52.0878 H         1 UNK         0.0600 
    232 H232       -6.0295  -21.4528  -50.9238 H         1 UNK         0.0600 
    233 H233       -6.1008  -20.1471  -52.1042 H         1 UNK         0.0600 
    234 H234       -4.7336  -20.2707  -51.0094 H         1 UNK         0.0600 
    235 H235       -2.1825  -21.4016  -52.3175 H         1 UNK         0.3000 
    236 H236       -1.3381  -20.4073  -54.7890 H         1 UNK         0.0600 
    237 H237        0.7457  -19.8257  -53.5253 H         1 UNK         0.0600 
    238 H238       -0.1121  -20.0383  -52.0043 H         1 UNK         0.0600 
    239 H239        0.1572  -21.4178  -53.0701 H         1 UNK         0.0600 
    240 H240       -2.7831  -18.6746  -52.1118 H         1 UNK         0.3000 
    241 H241       -2.0705  -16.0169  -53.0687 H         1 UNK         0.0600 
    242 H242       -5.4642  -16.9805  -54.9519 H         1 UNK         0.3800 
    243 H243       -4.3920  -18.2043  -54.3221 H         1 UNK         0.3800 
    244 H244       -3.2929  -15.1619  -51.1666 H         1 UNK         0.0800 
    245 H245       -4.1260  -16.6728  -50.9185 H         1 UNK         0.0800 
    246 H246       -0.5272  -14.9105  -50.7144 H         1 UNK         0.0800 
    247 H247       -0.2403  -16.3113  -51.7253 H         1 UNK         0.0800 
@<TRIPOS>BOND
     1    1    2 1    
     2    1  127 1    
     3    1  128 1    
     4    1  129 1    
     5    2    3 2    
     6    2    4 am   BACKBONE|DICT|INTERRES
     7    4    5 1    
     8    4  130 1    
     9    5    6 1    
    10    5   65 1    
    11    5  131 1    
    12    6    7 1    
    13    6  132 1    
    14    6  133 1    
    15    7    8 1    
    16    8    9 1    
    17    8  134 1    
    18    8  135 1    
    19    9   10 ar   
    20    9   14 ar   
    21   10   11 ar   
    22   10  136 1    
    23   11   12 ar   
    24   11  126 1    
    25   12   13 ar   
    26   12  137 1    
    27   13   14 ar   
    28   13   15 1    
    29   14  138 1    
    30   15   16 1    
    31   15  139 1    
    32   15  140 1    
    33   16   17 1    
    34   17   18 1    
    35   17  141 1    
    36   17  142 1    
    37   18   19 1    
    38   18   67 1    
    39   18  143 1    
    40   19   20 am   BACKBONE|DICT|INTERRES
    41   19  144 1    
    42   20   21 2    
    43   20   22 1    
    44   22   23 1    
    45   22   24 1    
    46   22  145 1    
    47   23  146 1    
    48   23  147 1    
    49   23  148 1    
    50   24   25 am   BACKBONE|DICT|INTERRES
    51   24  149 1    
    52   25   26 2    
    53   25   27 1    
    54   27   28 1    
    55   27   29 1    
    56   27  150 1    
    57   28  151 1    
    58   28  152 1    
    59   28  153 1    
    60   29   30 am   BACKBONE|DICT|INTERRES
    61   29  154 1    
    62   30   31 2    
    63   30   32 1    
    64   32   33 1    
    65   32   34 1    
    66   32  155 1    
    67   33  156 1    
    68   33  157 1    
    69   33  158 1    
    70   34   35 am   BACKBONE|DICT|INTERRES
    71   34  159 1    
    72   35   36 2    
    73   35   37 1    
    74   37   38 1    
    75   37   39 1    
    76   37  160 1    
    77   38  161 1    
    78   38  162 1    
    79   38  163 1    
    80   39   40 am   BACKBONE|DICT|INTERRES
    81   39  164 1    
    82   40   41 2    
    83   40   42 1    
    84   42   43 1    
    85   42   44 1    
    86   42  165 1    
    87   43  166 1    
    88   43  167 1    
    89   43  168 1    
    90   44   45 am   BACKBONE|DICT|INTERRES
    91   44  169 1    
    92   45   46 2    
    93   45   47 1    
    94   47   48 1    
    95   47   49 1    
    96   47  170 1    
    97   48  171 1    
    98   48  172 1    
    99   48  173 1    
   100   49   50 am   BACKBONE|DICT|INTERRES
   101   49  174 1    
   102   50   51 2    
   103   50   52 1    
   104   52   53 1    
   105   52   54 1    
   106   52  175 1    
   107   53  176 1    
   108   53  177 1    
   109   53  178 1    
   110   54   55 am   BACKBONE|DICT|INTERRES
   111   54  179 1    
   112   55   56 2    
   113   55   57 1    
   114   57   58 1    
   115   57   59 1    
   116   57  180 1    
   117   58  181 1    
   118   58  182 1    
   119   58  183 1    
   120   59   60 am   BACKBONE|DICT|INTERRES
   121   59  184 1    
   122   60   61 2    
   123   60   62 1    
   124   62   63 1    
   125   62   64 1    
   126   62  185 1    
   127   63  186 1    
   128   63  187 1    
   129   63  188 1    
   130   64   65 am   BACKBONE|DICT|INTERRES
   131   64  189 1    
   132   65   66 2    
   133   67   68 2    
   134   67   69 am   BACKBONE|DICT|INTERRES
   135   69   70 1    
   136   69  190 1    
   137   70   71 1    
   138   70   72 1    
   139   70  191 1    
   140   71  192 1    
   141   71  193 1    
   142   71  194 1    
   143   72   73 2    
   144   72   74 am   BACKBONE|DICT|INTERRES
   145   74   75 1    
   146   74  195 1    
   147   75   76 1    
   148   75   77 1    
   149   75  196 1    
   150   76  197 1    
   151   76  198 1    
   152   76  199 1    
   153   77   78 2    
   154   77   79 am   BACKBONE|DICT|INTERRES
   155   79   80 1    
   156   79  200 1    
   157   80   81 1    
   158   80   82 1    
   159   80  201 1    
   160   81  202 1    
   161   81  203 1    
   162   81  204 1    
   163   82   83 2    
   164   82   84 am   BACKBONE|DICT|INTERRES
   165   84   85 1    
   166   84  205 1    
   167   85   86 1    
   168   85   87 1    
   169   85  206 1    
   170   86  207 1    
   171   86  208 1    
   172   86  209 1    
   173   87   88 2    
   174   87   89 am   BACKBONE|DICT|INTERRES
   175   89   90 1    
   176   89  210 1    
   177   90   91 1    
   178   90   92 1    
   179   90  211 1    
   180   91  212 1    
   181   91  213 1    
   182   91  214 1    
   183   92   93 2    
   184   92   94 am   BACKBONE|DICT|INTERRES
   185   94   95 1    
   186   94  215 1    
   187   95   96 1    
   188   95   97 1    
   189   95  216 1    
   190   96  217 1    
   191   96  218 1    
   192   96  219 1    
   193   97   98 2    
   194   97   99 am   BACKBONE|DICT|INTERRES
   195   99  100 1    
   196   99  220 1    
   197  100  101 1    
   198  100  102 1    
   199  100  221 1    
   200  101  222 1    
   201  101  223 1    
   202  101  224 1    
   203  102  103 2    
   204  102  104 am   BACKBONE|DICT|INTERRES
   205  104  105 1    
   206  104  225 1    
   207  105  106 1    
   208  105  107 1    
   209  105  226 1    
   210  106  227 1    
   211  106  228 1    
   212  106  229 1    
   213  107  108 2    
   214  107  109 am   BACKBONE|DICT|INTERRES
   215  109  110 1    
   216  109  230 1    
   217  110  111 1    
   218  110  112 1    
   219  110  231 1    
   220  111  232 1    
   221  111  233 1    
   222  111  234 1    
   223  112  113 2    
   224  112  114 am   BACKBONE|DICT|INTERRES
   225  114  115 1    
   226  114  235 1    
   227  115  116 1    
   228  115  117 1    
   229  115  236 1    
   230  116  237 1    
   231  116  238 1    
   232  116  239 1    
   233  117  118 2    
   234  117  119 am   BACKBONE|DICT|INTERRES
   235  119  120 1    
   236  119  240 1    
   237  120  121 1    
   238  120  124 1    
   239  120  241 1    
   240  121  122 am   BACKBONE|DICT|INTERRES
   241  121  123 2    
   242  122  242 1    
   243  122  243 1    
   244  124  125 1    
   245  124  244 1    
   246  124  245 1    
   247  125  126 1    
   248  126  246 1    
   249  126  247 1    
@<TRIPOS>SUBSTRUCTURE
     1 UNK         1 GROUP             0       ****    0 ROOT    
