@<TRIPOS>MOLECULE
3R540
247   249    1
SMALL
USER_CHARGES


@<TRIPOS>ATOM
      1 CA          5.2358  -14.0355  -42.8671 C.3       0 UNK        -0.1800 
      2 C           4.6526  -15.3787  -43.3044 C.2       0 UNK         0.5000 
      3 O           5.0721  -16.4149  -42.7928 O.2       0 UNK        -0.5000 
      4 N           3.6809  -15.4181  -44.2247 N.am      1 UNK        -0.5000 
      5 CA          3.1403  -14.3004  -45.0035 C.3       1 UNK         0.1400 
      6 C6          1.7786  -14.6632  -45.6497 C.3       23 UNK        -0.0398 
      7 S7          1.7751  -16.2346  -46.5885 S.3       23 UNK        -0.2404 
      8 C8          1.4746  -15.6503  -48.2878 C.3       23 UNK        -0.0205 
      9 C9          1.3876  -16.7453  -49.3527 C.ar      23 UNK        -0.0193 
     10 C10         0.6850  -16.4776  -50.5332 C.ar      23 UNK        -0.1150 
     11 C11         0.6493  -17.4088  -51.5753 C.ar      23 UNK        -0.0193 
     12 C12         1.3029  -18.6344  -51.4209 C.ar      23 UNK        -0.1150 
     13 C13         2.0003  -18.9265  -50.2457 C.ar      23 UNK        -0.0193 
     14 C14         2.0410  -17.9785  -49.2180 C.ar      23 UNK        -0.1150 
     15 C15         2.7640  -20.2388  -50.1159 C.3       23 UNK        -0.0205 
     16 S16         1.6691  -21.6705  -49.8572 S.3       23 UNK        -0.2404 
     17 C17         0.9965  -21.3099  -48.2052 C.3       23 UNK        -0.0398 
     18 CA          0.4133  -22.5523  -47.4869 C.3       11 UNK         0.1400 
     19 N           0.3562  -22.3156  -46.0430 N.am      11 UNK        -0.5000 
     20 C           0.1366  -23.2323  -45.0917 C.2       10 UNK         0.5000 
     21 O          -0.0446  -24.4247  -45.3342 O.2       10 UNK        -0.5000 
     22 CA          0.0451  -22.7126  -43.6391 C.3       10 UNK         0.1400 
     23 CB          0.5706  -23.7295  -42.6050 C.3       10 UNK        -0.1800 
     24 N           0.6640  -21.3918  -43.4656 N.am      10 UNK        -0.5000 
     25 C           1.9642  -21.0773  -43.5827 C.2       9 UNK         0.5000 
     26 O           2.8617  -21.9073  -43.7276 O.2       9 UNK        -0.5000 
     27 CA          2.3232  -19.5789  -43.6044 C.3       9 UNK         0.1400 
     28 CB          2.8583  -19.1891  -44.9916 C.3       9 UNK        -0.1800 
     29 N           1.1869  -18.7130  -43.2766 N.am      9 UNK        -0.5000 
     30 C           0.8172  -18.3892  -42.0300 C.2       8 UNK         0.5000 
     31 O           1.4245  -18.7464  -41.0203 O.2       8 UNK        -0.5000 
     32 CA         -0.4638  -17.5476  -41.8869 C.3       8 UNK         0.1400 
     33 CB         -0.1326  -16.0496  -41.9581 C.3       8 UNK        -0.1800 
     34 N          -1.4751  -17.8779  -42.8958 N.am      8 UNK        -0.5000 
     35 C          -2.1979  -19.0092  -42.8934 C.2       7 UNK         0.5000 
     36 O          -2.0589  -19.8987  -42.0542 O.2       7 UNK        -0.5000 
     37 CA         -3.2297  -19.2090  -44.0228 C.3       7 UNK         0.1400 
     38 CB         -4.6193  -18.7291  -43.5817 C.3       7 UNK        -0.1800 
     39 N          -2.8696  -18.5437  -45.2732 N.am      7 UNK        -0.5000 
     40 C          -1.7999  -18.8504  -46.0154 C.2       6 UNK         0.5000 
     41 O          -1.0569  -19.8050  -45.7760 O.2       6 UNK        -0.5000 
     42 CA         -1.4959  -17.9415  -47.2186 C.3       6 UNK         0.1400 
     43 CB         -2.0673  -18.5603  -48.4959 C.3       6 UNK        -0.1800 
     44 N          -1.9787  -16.5620  -47.1272 N.am      6 UNK        -0.5000 
     45 C          -1.8116  -15.6841  -46.1329 C.2       5 UNK         0.5000 
     46 O          -1.2692  -15.9653  -45.0636 O.2       5 UNK        -0.5000 
     47 CA         -2.3582  -14.2594  -46.3750 C.3       5 UNK         0.1400 
     48 CB         -2.0669  -13.3124  -45.1967 C.3       5 UNK        -0.1800 
     49 N          -1.8724  -13.6248  -47.6065 N.am      5 UNK        -0.5000 
     50 C          -2.2343  -13.9272  -48.8585 C.2       4 UNK         0.5000 
     51 O          -2.9169  -14.9071  -49.1441 O.2       4 UNK        -0.5000 
     52 CA         -1.7911  -12.9732  -49.9850 C.3       4 UNK         0.1400 
     53 CB         -2.4994  -11.6104  -49.8624 C.3       4 UNK        -0.1800 
     54 N          -0.3417  -12.8002  -50.1505 N.am      4 UNK        -0.5000 
     55 C           0.5483  -12.2794  -49.2964 C.2       3 UNK         0.5000 
     56 O           0.2884  -11.9269  -48.1418 O.2       3 UNK        -0.5000 
     57 CA          1.9744  -12.1082  -49.8400 C.3       3 UNK         0.1400 
     58 CB          2.0578  -10.8785  -50.7652 C.3       3 UNK        -0.1800 
     59 N           2.8784  -11.9546  -48.7076 N.am      3 UNK        -0.5000 
     60 C           4.2144  -12.0287  -48.7318 C.2       2 UNK         0.5000 
     61 O           4.8753  -12.2335  -49.7501 O.2       2 UNK        -0.5000 
     62 CA          4.9284  -11.8649  -47.3767 C.3       2 UNK         0.1400 
     63 CB          5.1478  -10.3784  -47.0554 C.3       2 UNK        -0.1800 
     64 N           4.1691  -12.4892  -46.2907 N.am      2 UNK        -0.5000 
     65 C           4.1441  -13.8091  -46.0663 C.2       1 UNK         0.5000 
     66 O           4.8512  -14.6190  -46.6700 O.2       1 UNK        -0.5000 
     67 C          -0.9751  -22.9472  -48.0370 C.2       11 UNK         0.5000 
     68 O          -1.0739  -23.7581  -48.9618 O.2       11 UNK        -0.5000 
     69 N          -2.0280  -22.3877  -47.4230 N.am      12 UNK        -0.5000 
     70 CA         -3.4253  -22.7339  -47.6705 C.3       12 UNK         0.1400 
     71 CB         -4.3220  -21.6751  -47.0183 C.3       12 UNK        -0.1800 
     72 C          -3.7722  -24.1370  -47.1461 C.2       12 UNK         0.5000 
     73 O          -4.4094  -24.9095  -47.8601 O.2       12 UNK        -0.5000 
     74 N          -3.3137  -24.4508  -45.9251 N.am      13 UNK        -0.5000 
     75 CA         -3.5197  -25.7395  -45.2563 C.3       13 UNK         0.1400 
     76 CB         -3.1002  -25.6223  -43.7835 C.3       13 UNK        -0.1800 
     77 C          -2.7750  -26.8961  -45.9482 C.2       13 UNK         0.5000 
     78 O          -3.3012  -28.0069  -46.0172 O.2       13 UNK        -0.5000 
     79 N          -1.5876  -26.5977  -46.4924 N.am      14 UNK        -0.5000 
     80 CA         -0.7925  -27.4904  -47.3377 C.3       14 UNK         0.1400 
     81 CB          0.6249  -26.9082  -47.4621 C.3       14 UNK        -0.1800 
     82 C          -1.3978  -27.7169  -48.7399 C.2       14 UNK         0.5000 
     83 O          -0.9243  -28.5970  -49.4590 O.2       14 UNK        -0.5000 
     84 N          -2.4044  -26.9090  -49.1111 N.am      15 UNK        -0.5000 
     85 CA         -3.1032  -26.8696  -50.4001 C.3       15 UNK         0.1400 
     86 CB         -3.8340  -28.1981  -50.6835 C.3       15 UNK        -0.1800 
     87 C          -2.2101  -26.4131  -51.5729 C.2       15 UNK         0.5000 
     88 O          -2.5531  -26.6524  -52.7311 O.2       15 UNK        -0.5000 
     89 N          -1.0989  -25.7344  -51.2583 N.am      16 UNK        -0.5000 
     90 CA         -0.1783  -25.1487  -52.2295 C.3       16 UNK         0.1400 
     91 CB          1.2058  -24.9931  -51.5829 C.3       16 UNK        -0.1800 
     92 C          -0.7153  -23.8057  -52.7502 C.2       16 UNK         0.5000 
     93 O          -0.6791  -23.5590  -53.9560 O.2       16 UNK        -0.5000 
     94 N          -1.2489  -22.9874  -51.8334 N.am      17 UNK        -0.5000 
     95 CA         -1.9527  -21.7430  -52.1487 C.3       17 UNK         0.1400 
     96 CB         -1.8816  -20.8211  -50.9309 C.3       17 UNK        -0.1800 
     97 C          -3.4250  -21.9835  -52.5272 C.2       17 UNK         0.5000 
     98 O          -4.0280  -21.1353  -53.1841 O.2       17 UNK        -0.5000 
     99 N          -3.9782  -23.1201  -52.0765 N.am      18 UNK        -0.5000 
    100 CA        -5.3271  -23.6505  -52.3241 C.3       18 UNK         0.1400 
    101 CB        -5.5422  -23.9005  -53.8300 C.3       18 UNK        -0.1800 
    102 C         -6.4945  -22.8436  -51.7109 C.2       18 UNK         0.5000 
    103 O         -7.6383  -23.2927  -51.7985 O.2       18 UNK        -0.5000 
    104 N         -6.2090  -21.7006  -51.0805 N.am      19 UNK        -0.5000 
    105 CA        -7.1635  -20.8217  -50.4168 C.3       19 UNK         0.1400 
    106 CB        -7.8936  -19.9527  -51.4568 C.3       19 UNK        -0.1800 
    107 C         -6.3933  -19.9409  -49.4286 C.2       19 UNK         0.5000 
    108 O         -5.2062  -19.6862  -49.6436 O.2       19 UNK        -0.5000 
    109 N         -7.0843  -19.4585  -48.3874 N.am      20 UNK        -0.5000 
    110 CA        -6.5343  -18.5991  -47.3303 C.3       20 UNK         0.1400 
    111 CB        -7.5965  -18.4107  -46.2369 C.3       20 UNK        -0.1800 
    112 C         -6.0279  -17.2309  -47.8257 C.2       20 UNK         0.5000 
    113 O         -5.1240  -16.6656  -47.2109 O.2       20 UNK        -0.5000 
    114 N         -6.6153  -16.7456  -48.9269 N.am      21 UNK        -0.5000 
    115 CA        -6.2372  -15.5167  -49.6265 C.3       21 UNK         0.1400 
    116 CB        -7.5242  -14.7707  -50.0190 C.3       21 UNK        -0.1800 
    117 C         -5.3568  -15.7891  -50.8664 C.2       21 UNK         0.5000 
    118 O         -5.0510  -14.8437  -51.5945 O.2       21 UNK        -0.5000 
    119 N         -4.9673  -17.0561  -51.0764 N.am      22 UNK        -0.5000 
    120 CA        -4.1739  -17.5818  -52.1951 C.3       22 UNK         0.1400 
    121 C         -4.9446  -17.5780  -53.5475 C.2       22 UNK         0.5000 
    122 N         -5.1298  -18.7366  -54.1653 N.am      22 UNK        -0.7600 
    123 O         -5.3529  -16.5412  -54.0635 O.2       22 UNK        -0.5000 
    124 C124       -2.7718  -16.9203  -52.2936 C.3       23 UNK        -0.0398 
    125 S125       -1.5698  -17.9726  -53.1726 S.3       23 UNK        -0.2404 
    126 C126       -0.0186  -17.0635  -52.9004 C.3       23 UNK        -0.0205 
    127 H127        5.7972  -13.5691  -43.6794 H         1 UNK         0.0600 
    128 H128        4.4497  -13.3524  -42.5395 H         1 UNK         0.0600 
    129 H129        5.9205  -14.1750  -42.0293 H         1 UNK         0.0600 
    130 H130        3.3341  -16.3204  -44.5160 H         1 UNK         0.3000 
    131 H131        2.9526  -13.4753  -44.3142 H         1 UNK         0.0600 
    132 H132        1.4136  -13.8500  -46.2797 H         1 UNK         0.0800 
    133 H133        1.0363  -14.7596  -44.8591 H         1 UNK         0.0800 
    134 H134        2.2724  -14.9615  -48.5667 H         1 UNK         0.0800 
    135 H135        0.5450  -15.0825  -48.2824 H         1 UNK         0.0800 
    136 H136        0.1917  -15.5252  -50.6571 H         1 UNK         0.1150 
    137 H137        1.2871  -19.3551  -52.2266 H         1 UNK         0.1150 
    138 H138        2.6089  -18.1967  -48.3255 H         1 UNK         0.1150 
    139 H139        3.3419  -20.4040  -51.0262 H         1 UNK         0.0800 
    140 H140        3.4908  -20.1868  -49.3038 H         1 UNK         0.0800 
    141 H141        1.8183  -20.9046  -47.6132 H         1 UNK         0.0800 
    142 H142        0.2641  -20.5061  -48.2813 H         1 UNK         0.0800 
    143 H143        1.0850  -23.3979  -47.6488 H         1 UNK         0.0600 
    144 H144        0.3769  -21.3451  -45.7546 H         1 UNK         0.3000 
    145 H145       -1.0180  -22.5685  -43.4414 H         1 UNK         0.0600 
    146 H146        0.5099  -23.3294  -41.5930 H         1 UNK         0.0600 
    147 H147       -0.0162  -24.6479  -42.6246 H         1 UNK         0.0600 
    148 H148        1.6070  -24.0081  -42.7957 H         1 UNK         0.0600 
    149 H149        0.0164  -20.6267  -43.3369 H         1 UNK         0.3000 
    150 H150        3.1235  -19.4250  -42.8773 H         1 UNK         0.0600 
    151 H151        3.6560  -19.8590  -45.3152 H         1 UNK         0.0600 
    152 H152        3.2796  -18.1857  -44.9773 H         1 UNK         0.0600 
    153 H153        2.0754  -19.2199  -45.7503 H         1 UNK         0.0600 
    154 H154        0.6266  -18.3794  -44.0485 H         1 UNK         0.3000 
    155 H155       -0.8883  -17.7511  -40.9014 H         1 UNK         0.0600 
    156 H156       -1.0302  -15.4391  -41.8588 H         1 UNK         0.0600 
    157 H157        0.3469  -15.7901  -42.9011 H         1 UNK         0.0600 
    158 H158        0.5490  -15.7628  -41.1565 H         1 UNK         0.0600 
    159 H159       -1.5955  -17.2067  -43.6510 H         1 UNK         0.3000 
    160 H160       -3.2869  -20.2815  -44.2170 H         1 UNK         0.0600 
    161 H161       -4.6460  -17.6479  -43.4404 H         1 UNK         0.0600 
    162 H162       -4.9138  -19.1924  -42.6390 H         1 UNK         0.0600 
    163 H163       -5.3759  -18.9925  -44.3196 H         1 UNK         0.0600 
    164 H164       -3.4228  -17.7439  -45.5496 H         1 UNK         0.3000 
    165 H165       -0.4118  -17.9121  -47.3153 H         1 UNK         0.0600 
    166 H166       -3.1459  -18.4196  -48.5631 H         1 UNK         0.0600 
    167 H167       -1.6142  -18.1202  -49.3839 H         1 UNK         0.0600 
    168 H168       -1.8776  -19.6306  -48.5244 H         1 UNK         0.0600 
    169 H169       -2.4615  -16.2066  -47.9500 H         1 UNK         0.3000 
    170 H170       -3.4428  -14.3576  -46.4567 H         1 UNK         0.0600 
    171 H171       -2.4565  -13.7150  -44.2607 H         1 UNK         0.0600 
    172 H172       -0.9961  -13.1522  -45.0665 H         1 UNK         0.0600 
    173 H173       -2.5349  -12.3396  -45.3480 H         1 UNK         0.0600 
    174 H174       -1.2283  -12.8468  -47.4947 H         1 UNK         0.3000 
    175 H175       -2.1361  -13.4261  -50.9165 H         1 UNK         0.0600 
    176 H176       -2.2866  -10.9785  -50.7246 H         1 UNK         0.0600 
    177 H177       -3.5817  -11.7377  -49.8131 H         1 UNK         0.0600 
    178 H178       -2.1938  -11.0677  -48.9674 H         1 UNK         0.0600 
    179 H179       -0.0006  -13.0581  -51.0659 H         1 UNK         0.3000 
    180 H180        2.2490  -13.0090  -50.3928 H         1 UNK         0.0600 
    181 H181        3.0542  -10.7640  -51.1917 H         1 UNK         0.0600 
    182 H182        1.3618  -10.9643  -51.6005 H         1 UNK         0.0600 
    183 H183        1.8165   -9.9592  -50.2301 H         1 UNK         0.0600 
    184 H184        2.3991  -11.7920  -47.8313 H         1 UNK         0.3000 
    185 H185        5.9078  -12.3431  -47.4502 H         1 UNK         0.0600 
    186 H186        5.6992  -10.2542  -46.1231 H         1 UNK         0.0600 
    187 H187        5.7266   -9.8917  -47.8416 H         1 UNK         0.0600 
    188 H188        4.2039   -9.8399  -46.9621 H         1 UNK         0.0600 
    189 H189        3.5852  -11.8761  -45.7398 H         1 UNK         0.3000 
    190 H190       -1.8439  -21.7104  -46.6942 H         1 UNK         0.3000 
    191 H191       -3.6060  -22.7226  -48.7470 H         1 UNK         0.0600 
    192 H192       -5.3722  -21.8572  -47.2485 H         1 UNK         0.0600 
    193 H193       -4.0703  -20.6812  -47.3854 H         1 UNK         0.0600 
    194 H194       -4.2213  -21.6658  -45.9332 H         1 UNK         0.0600 
    195 H195       -2.7723  -23.7657  -45.4226 H         1 UNK         0.3000 
    196 H196       -4.5873  -25.9673  -45.2887 H         1 UNK         0.0600 
    197 H197       -3.2892  -26.5547  -43.2500 H         1 UNK         0.0600 
    198 H198       -3.6589  -24.8376  -43.2734 H         1 UNK         0.0600 
    199 H199       -2.0383  -25.3994  -43.6842 H         1 UNK         0.0600 
    200 H200       -1.1832  -25.6863  -46.2983 H         1 UNK         0.3000 
    201 H201       -0.7259  -28.4630  -46.8462 H         1 UNK         0.0600 
    202 H202        1.0913  -26.7926  -46.4834 H         1 UNK         0.0600 
    203 H203        0.6158  -25.9307  -47.9458 H         1 UNK         0.0600 
    204 H204        1.2689  -27.5610  -48.0526 H         1 UNK         0.0600 
    205 H205       -2.7264  -26.2265  -48.4367 H         1 UNK         0.3000 
    206 H206       -3.8674  -26.0988  -50.2958 H         1 UNK         0.0600 
    207 H207       -4.4549  -28.4938  -49.8377 H         1 UNK         0.0600 
    208 H208       -4.4906  -28.1062  -51.5493 H         1 UNK         0.0600 
    209 H209       -3.1368  -29.0104  -50.8896 H         1 UNK         0.0600 
    210 H210       -0.9246  -25.5227  -50.2839 H         1 UNK         0.3000 
    211 H211       -0.0775  -25.8234  -53.0825 H         1 UNK         0.0600 
    212 H212        1.1544  -24.4281  -50.6527 H         1 UNK         0.0600 
    213 H213        1.8969  -24.4747  -52.2488 H         1 UNK         0.0600 
    214 H214        1.6406  -25.9660  -51.3534 H         1 UNK         0.0600 
    215 H215       -1.1941  -23.2530  -50.8548 H         1 UNK         0.3000 
    216 H216       -1.4625  -21.2449  -52.9880 H         1 UNK         0.0600 
    217 H217       -2.4039  -19.8851  -51.1103 H         1 UNK         0.0600 
    218 H218       -0.8532  -20.5655  -50.6851 H         1 UNK         0.0600 
    219 H219       -2.3423  -21.2795  -50.0592 H         1 UNK         0.0600 
    220 H220       -3.3772  -23.7180  -51.5305 H         1 UNK         0.3000 
    221 H221       -5.3531  -24.6223  -51.8293 H         1 UNK         0.0600 
    222 H222       -5.5776  -22.9689  -54.3955 H         1 UNK         0.0600 
    223 H223       -4.7432  -24.5158  -54.2444 H         1 UNK         0.0600 
    224 H224       -6.4808  -24.4256  -54.0105 H         1 UNK         0.0600 
    225 H225       -5.2499  -21.3817  -51.0349 H         1 UNK         0.3000 
    226 H226       -7.8848  -21.4247  -49.8613 H         1 UNK         0.0600 
    227 H227       -8.6028  -19.2766  -50.9782 H         1 UNK         0.0600 
    228 H228       -7.1944  -19.3444  -52.0320 H         1 UNK         0.0600 
    229 H229       -8.4575  -20.5650  -52.1604 H         1 UNK         0.0600 
    230 H230       -8.0583  -19.7086  -48.2919 H         1 UNK         0.3000 
    231 H231       -5.6808  -19.1115  -46.8858 H         1 UNK         0.0600 
    232 H232       -7.2277  -17.7673  -45.4368 H         1 UNK         0.0600 
    233 H233       -7.8703  -19.3641  -45.7849 H         1 UNK         0.0600 
    234 H234       -8.5035  -17.9517  -46.6321 H         1 UNK         0.0600 
    235 H235       -7.3573  -17.2866  -49.3456 H         1 UNK         0.3000 
    236 H236       -5.6626  -14.8710  -48.9593 H         1 UNK         0.0600 
    237 H237       -8.1260  -15.3492  -50.7210 H         1 UNK         0.0600 
    238 H238       -8.1390  -14.5588  -49.1440 H         1 UNK         0.0600 
    239 H239       -7.2964  -13.8144  -50.4914 H         1 UNK         0.0600 
    240 H240       -5.2370  -17.7556  -50.3959 H         1 UNK         0.3000 
    241 H241       -4.0246  -18.6250  -51.9219 H         1 UNK         0.0600 
    242 H242       -5.6141  -18.7500  -55.0481 H         1 UNK         0.3800 
    243 H243       -4.7550  -19.6076  -53.7892 H         1 UNK         0.3800 
    244 H244       -2.3784  -16.7370  -51.2928 H         1 UNK         0.0800 
    245 H245       -2.8291  -15.9459  -52.7813 H         1 UNK         0.0800 
    246 H246       -0.2033  -15.9911  -52.9784 H         1 UNK         0.0800 
    247 H247        0.6692  -17.3080  -53.7111 H         1 UNK         0.0800 
@<TRIPOS>BOND
     1    1    2 1    
     2    1  127 1    
     3    1  128 1    
     4    1  129 1    
     5    2    3 2    
     6    2    4 am   BACKBONE|DICT|INTERRES
     7    4    5 1    
     8    4  130 1    
     9    5    6 1    
    10    5   65 1    
    11    5  131 1    
    12    6    7 1    
    13    6  132 1    
    14    6  133 1    
    15    7    8 1    
    16    8    9 1    
    17    8  134 1    
    18    8  135 1    
    19    9   10 ar   
    20    9   14 ar   
    21   10   11 ar   
    22   10  136 1    
    23   11   12 ar   
    24   11  126 1    
    25   12   13 ar   
    26   12  137 1    
    27   13   14 ar   
    28   13   15 1    
    29   14  138 1    
    30   15   16 1    
    31   15  139 1    
    32   15  140 1    
    33   16   17 1    
    34   17   18 1    
    35   17  141 1    
    36   17  142 1    
    37   18   19 1    
    38   18   67 1    
    39   18  143 1    
    40   19   20 am   BACKBONE|DICT|INTERRES
    41   19  144 1    
    42   20   21 2    
    43   20   22 1    
    44   22   23 1    
    45   22   24 1    
    46   22  145 1    
    47   23  146 1    
    48   23  147 1    
    49   23  148 1    
    50   24   25 am   BACKBONE|DICT|INTERRES
    51   24  149 1    
    52   25   26 2    
    53   25   27 1    
    54   27   28 1    
    55   27   29 1    
    56   27  150 1    
    57   28  151 1    
    58   28  152 1    
    59   28  153 1    
    60   29   30 am   BACKBONE|DICT|INTERRES
    61   29  154 1    
    62   30   31 2    
    63   30   32 1    
    64   32   33 1    
    65   32   34 1    
    66   32  155 1    
    67   33  156 1    
    68   33  157 1    
    69   33  158 1    
    70   34   35 am   BACKBONE|DICT|INTERRES
    71   34  159 1    
    72   35   36 2    
    73   35   37 1    
    74   37   38 1    
    75   37   39 1    
    76   37  160 1    
    77   38  161 1    
    78   38  162 1    
    79   38  163 1    
    80   39   40 am   BACKBONE|DICT|INTERRES
    81   39  164 1    
    82   40   41 2    
    83   40   42 1    
    84   42   43 1    
    85   42   44 1    
    86   42  165 1    
    87   43  166 1    
    88   43  167 1    
    89   43  168 1    
    90   44   45 am   BACKBONE|DICT|INTERRES
    91   44  169 1    
    92   45   46 2    
    93   45   47 1    
    94   47   48 1    
    95   47   49 1    
    96   47  170 1    
    97   48  171 1    
    98   48  172 1    
    99   48  173 1    
   100   49   50 am   BACKBONE|DICT|INTERRES
   101   49  174 1    
   102   50   51 2    
   103   50   52 1    
   104   52   53 1    
   105   52   54 1    
   106   52  175 1    
   107   53  176 1    
   108   53  177 1    
   109   53  178 1    
   110   54   55 am   BACKBONE|DICT|INTERRES
   111   54  179 1    
   112   55   56 2    
   113   55   57 1    
   114   57   58 1    
   115   57   59 1    
   116   57  180 1    
   117   58  181 1    
   118   58  182 1    
   119   58  183 1    
   120   59   60 am   BACKBONE|DICT|INTERRES
   121   59  184 1    
   122   60   61 2    
   123   60   62 1    
   124   62   63 1    
   125   62   64 1    
   126   62  185 1    
   127   63  186 1    
   128   63  187 1    
   129   63  188 1    
   130   64   65 am   BACKBONE|DICT|INTERRES
   131   64  189 1    
   132   65   66 2    
   133   67   68 2    
   134   67   69 am   BACKBONE|DICT|INTERRES
   135   69   70 1    
   136   69  190 1    
   137   70   71 1    
   138   70   72 1    
   139   70  191 1    
   140   71  192 1    
   141   71  193 1    
   142   71  194 1    
   143   72   73 2    
   144   72   74 am   BACKBONE|DICT|INTERRES
   145   74   75 1    
   146   74  195 1    
   147   75   76 1    
   148   75   77 1    
   149   75  196 1    
   150   76  197 1    
   151   76  198 1    
   152   76  199 1    
   153   77   78 2    
   154   77   79 am   BACKBONE|DICT|INTERRES
   155   79   80 1    
   156   79  200 1    
   157   80   81 1    
   158   80   82 1    
   159   80  201 1    
   160   81  202 1    
   161   81  203 1    
   162   81  204 1    
   163   82   83 2    
   164   82   84 am   BACKBONE|DICT|INTERRES
   165   84   85 1    
   166   84  205 1    
   167   85   86 1    
   168   85   87 1    
   169   85  206 1    
   170   86  207 1    
   171   86  208 1    
   172   86  209 1    
   173   87   88 2    
   174   87   89 am   BACKBONE|DICT|INTERRES
   175   89   90 1    
   176   89  210 1    
   177   90   91 1    
   178   90   92 1    
   179   90  211 1    
   180   91  212 1    
   181   91  213 1    
   182   91  214 1    
   183   92   93 2    
   184   92   94 am   BACKBONE|DICT|INTERRES
   185   94   95 1    
   186   94  215 1    
   187   95   96 1    
   188   95   97 1    
   189   95  216 1    
   190   96  217 1    
   191   96  218 1    
   192   96  219 1    
   193   97   98 2    
   194   97   99 am   BACKBONE|DICT|INTERRES
   195   99  100 1    
   196   99  220 1    
   197  100  101 1    
   198  100  102 1    
   199  100  221 1    
   200  101  222 1    
   201  101  223 1    
   202  101  224 1    
   203  102  103 2    
   204  102  104 am   BACKBONE|DICT|INTERRES
   205  104  105 1    
   206  104  225 1    
   207  105  106 1    
   208  105  107 1    
   209  105  226 1    
   210  106  227 1    
   211  106  228 1    
   212  106  229 1    
   213  107  108 2    
   214  107  109 am   BACKBONE|DICT|INTERRES
   215  109  110 1    
   216  109  230 1    
   217  110  111 1    
   218  110  112 1    
   219  110  231 1    
   220  111  232 1    
   221  111  233 1    
   222  111  234 1    
   223  112  113 2    
   224  112  114 am   BACKBONE|DICT|INTERRES
   225  114  115 1    
   226  114  235 1    
   227  115  116 1    
   228  115  117 1    
   229  115  236 1    
   230  116  237 1    
   231  116  238 1    
   232  116  239 1    
   233  117  118 2    
   234  117  119 am   BACKBONE|DICT|INTERRES
   235  119  120 1    
   236  119  240 1    
   237  120  121 1    
   238  120  124 1    
   239  120  241 1    
   240  121  122 am   BACKBONE|DICT|INTERRES
   241  121  123 2    
   242  122  242 1    
   243  122  243 1    
   244  124  125 1    
   245  124  244 1    
   246  124  245 1    
   247  125  126 1    
   248  126  246 1    
   249  126  247 1    
@<TRIPOS>SUBSTRUCTURE
     1 UNK         1 GROUP             0       ****    0 ROOT    
