@<TRIPOS>MOLECULE
3R540
247   249    1
SMALL
USER_CHARGES


@<TRIPOS>ATOM
      1 CA          2.4697   -9.5060  -47.0619 C.3       0 UNK        -0.1800 
      2 C           1.6695  -10.7979  -46.9869 C.2       0 UNK         0.5000 
      3 O           0.4566  -10.7530  -46.7787 O.2       0 UNK        -0.5000 
      4 N           2.3454  -11.9464  -47.1388 N.am      1 UNK        -0.5000 
      5 CA          1.7884  -13.3024  -47.0624 C.3       1 UNK         0.1400 
      6 C6          0.8973  -13.6465  -48.2879 C.3       23 UNK        -0.0398 
      7 S7          0.5993  -15.4406  -48.4674 S.3       23 UNK        -0.2404 
      8 C8          1.8968  -15.8799  -49.6604 C.3       23 UNK        -0.0205 
      9 C9          1.8290  -17.3423  -50.0757 C.ar      23 UNK        -0.0193 
     10 C10         1.0292  -17.7264  -51.1559 C.ar      23 UNK        -0.1150 
     11 C11         1.0378  -19.0473  -51.6139 C.ar      23 UNK        -0.0193 
     12 C12         1.8452  -19.9912  -50.9717 C.ar      23 UNK        -0.1150 
     13 C13         2.6413  -19.6240  -49.8814 C.ar      23 UNK        -0.0193 
     14 C14         2.6199  -18.2990  -49.4318 C.ar      23 UNK        -0.1150 
     15 C15         3.5892  -20.6337  -49.2435 C.3       23 UNK        -0.0205 
     16 S16         2.7398  -22.0444  -48.4654 S.3       23 UNK        -0.2404 
     17 C17         1.8960  -21.2418  -47.0618 C.3       23 UNK        -0.0398 
     18 CA          0.4386  -21.7270  -46.8845 C.3       11 UNK         0.1400 
     19 N          -0.0705  -21.4402  -45.5354 N.am      11 UNK        -0.5000 
     20 C          -1.2829  -21.7704  -45.0618 C.2       10 UNK         0.5000 
     21 O          -2.1451  -22.3510  -45.7218 O.2       10 UNK        -0.5000 
     22 CA         -1.6086  -21.3301  -43.6239 C.3       10 UNK         0.1400 
     23 CB         -0.8633  -22.1877  -42.5901 C.3       10 UNK        -0.1800 
     24 N          -1.3020  -19.9170  -43.4159 N.am      10 UNK        -0.5000 
     25 C          -1.9757  -18.9112  -43.9916 C.2       9 UNK         0.5000 
     26 O          -2.9999  -19.0647  -44.6565 O.2       9 UNK        -0.5000 
     27 CA         -1.3892  -17.4982  -43.8212 C.3       9 UNK         0.1400 
     28 CB         -1.8687  -16.8844  -42.4935 C.3       9 UNK        -0.1800 
     29 N           0.0764  -17.4755  -43.9004 N.am      9 UNK        -0.5000 
     30 C           0.7841  -17.8572  -44.9763 C.2       8 UNK         0.5000 
     31 O           0.2720  -18.2081  -46.0364 O.2       8 UNK        -0.5000 
     32 CA          2.3144  -17.9430  -44.8295 C.3       8 UNK         0.1400 
     33 CB          2.9992  -16.6117  -45.1532 C.3       8 UNK        -0.1800 
     34 N           2.7150  -18.3946  -43.5002 N.am      8 UNK        -0.5000 
     35 C           2.5475  -19.6461  -43.0523 C.2       7 UNK         0.5000 
     36 O           2.0902  -20.5609  -43.7370 O.2       7 UNK        -0.5000 
     37 CA          2.8938  -19.8933  -41.5733 C.3       7 UNK         0.1400 
     38 CB          4.4044  -20.1057  -41.3955 C.3       7 UNK        -0.1800 
     39 N           2.4514  -18.7895  -40.7187 N.am      7 UNK        -0.5000 
     40 C           1.1664  -18.4661  -40.5123 C.2       6 UNK         0.5000 
     41 O           0.2239  -19.1194  -40.9585 O.2       6 UNK        -0.5000 
     42 CA          0.8906  -17.1762  -39.7157 C.3       6 UNK         0.1400 
     43 CB          0.7443  -17.4892  -38.2195 C.3       6 UNK        -0.1800 
     44 N           1.9300  -16.1588  -39.8992 N.am      6 UNK        -0.5000 
     45 C           2.1553  -15.4934  -41.0401 C.2       5 UNK         0.5000 
     46 O           1.4943  -15.6495  -42.0682 O.2       5 UNK        -0.5000 
     47 CA          3.3771  -14.5678  -41.0450 C.3       5 UNK         0.1400 
     48 CB          4.6286  -15.3443  -41.4966 C.3       5 UNK        -0.1800 
     49 N           3.1670  -13.4162  -41.9210 N.am      5 UNK        -0.5000 
     50 C           3.8154  -12.2507  -41.7812 C.2       4 UNK         0.5000 
     51 O           4.6221  -12.0271  -40.8770 O.2       4 UNK        -0.5000 
     52 CA          3.5321  -11.1421  -42.8072 C.3       4 UNK         0.1400 
     53 CB          4.3733  -11.3491  -44.0772 C.3       4 UNK        -0.1800 
     54 N           2.1163  -11.0668  -43.1605 N.am      4 UNK        -0.5000 
     55 C           1.2240  -10.2741  -42.5492 C.2       3 UNK         0.5000 
     56 O           1.5078   -9.5341  -41.6063 O.2       3 UNK        -0.5000 
     57 CA         -0.2241  -10.2791  -43.0798 C.3       3 UNK         0.1400 
     58 CB         -0.4998   -9.0096  -43.9007 C.3       3 UNK        -0.1800 
     59 N          -0.5232  -11.4506  -43.9025 N.am      3 UNK        -0.5000 
     60 C          -0.8457  -12.6530  -43.4057 C.2       2 UNK         0.5000 
     61 O          -1.0111  -12.8722  -42.2056 O.2       2 UNK        -0.5000 
     62 CA         -0.9863  -13.8138  -44.4106 C.3       2 UNK         0.1400 
     63 CB         -2.4612  -14.0232  -44.7863 C.3       2 UNK        -0.1800 
     64 N          -0.2031  -13.6544  -45.6353 N.am      2 UNK        -0.5000 
     65 C           1.1290  -13.5258  -45.6829 C.2       1 UNK         0.5000 
     66 O           1.8400  -13.5127  -44.6775 O.2       1 UNK        -0.5000 
     67 C          -0.4764  -21.1975  -48.0094 C.2       11 UNK         0.5000 
     68 O          -0.6951  -21.9092  -48.9892 O.2       11 UNK        -0.5000 
     69 N          -1.0587  -20.0071  -47.8037 N.am      12 UNK        -0.5000 
     70 CA         -2.0231  -19.3528  -48.6912 C.3       12 UNK         0.1400 
     71 CB         -2.4243  -17.9992  -48.0858 C.3       12 UNK        -0.1800 
     72 C          -3.2817  -20.1871  -49.0155 C.2       12 UNK         0.5000 
     73 O          -3.9503  -19.8905  -50.0040 O.2       12 UNK        -0.5000 
     74 N          -3.5796  -21.2074  -48.2000 N.am      13 UNK        -0.5000 
     75 CA         -4.5585  -22.2464  -48.4977 C.3       13 UNK         0.1400 
     76 CB         -5.5572  -22.3605  -47.3360 C.3       13 UNK        -0.1800 
     77 C          -3.8507  -23.5861  -48.7501 C.2       13 UNK         0.5000 
     78 O          -4.0902  -24.2131  -49.7813 O.2       13 UNK        -0.5000 
     79 N          -2.9867  -24.0061  -47.8145 N.am      14 UNK        -0.5000 
     80 CA         -2.3701  -25.3350  -47.7483 C.3       14 UNK         0.1400 
     81 CB         -1.5735  -25.4566  -46.4399 C.3       14 UNK        -0.1800 
     82 C          -1.4952  -25.7368  -48.9518 C.2       14 UNK         0.5000 
     83 O          -1.2619  -26.9318  -49.1374 O.2       14 UNK        -0.5000 
     84 N          -1.0437  -24.7647  -49.7568 N.am      15 UNK        -0.5000 
     85 CA         -0.2867  -24.9938  -50.9890 C.3       15 UNK         0.1400 
     86 CB          0.2064  -23.6489  -51.5402 C.3       15 UNK        -0.1800 
     87 C          -1.0618  -25.7709  -52.0746 C.2       15 UNK         0.5000 
     88 O          -0.4253  -26.4514  -52.8808 O.2       15 UNK        -0.5000 
     89 N          -2.4006  -25.6759  -52.0804 N.am      16 UNK        -0.5000 
     90 CA         -3.2586  -26.3640  -53.0529 C.3       16 UNK         0.1400 
     91 CB         -3.4129  -25.4839  -54.3057 C.3       16 UNK        -0.1800 
     92 C          -4.6350  -26.7760  -52.5017 C.2       16 UNK         0.5000 
     93 O          -5.4279  -27.3390  -53.2575 O.2       16 UNK        -0.5000 
     94 N          -4.9354  -26.4500  -51.2363 N.am      17 UNK        -0.5000 
     95 CA         -6.2329  -26.5242  -50.5469 C.3       17 UNK         0.1400 
     96 CB         -6.8383  -27.9409  -50.5640 C.3       17 UNK        -0.1800 
     97 C          -7.2274  -25.4613  -51.0538 C.2       17 UNK         0.5000 
     98 O          -7.8375  -24.7613  -50.2448 O.2       17 UNK        -0.5000 
     99 N          -7.3345  -25.3237  -52.3803 N.am      18 UNK        -0.5000 
    100 CA        -7.9916  -24.2235  -53.0723 C.3       18 UNK         0.1400 
    101 CB        -8.2502  -24.6347  -54.5314 C.3       18 UNK        -0.1800 
    102 C         -7.1111  -22.9646  -52.9883 C.2       18 UNK         0.5000 
    103 O         -6.1694  -22.8174  -53.7720 O.2       18 UNK        -0.5000 
    104 N         -7.4298  -22.0794  -52.0359 N.am      19 UNK        -0.5000 
    105 CA        -6.7151  -20.8244  -51.7781 C.3       19 UNK         0.1400 
    106 CB        -7.2961  -20.1742  -50.5124 C.3       19 UNK        -0.1800 
    107 C         -6.7525  -19.8314  -52.9569 C.2       19 UNK         0.5000 
    108 O         -5.8370  -19.0227  -53.1063 O.2       19 UNK        -0.5000 
    109 N         -7.7998  -19.9282  -53.7881 N.am      20 UNK        -0.5000 
    110 CA        -7.9534  -19.1704  -55.0297 C.3       20 UNK         0.1400 
    111 CB        -9.4011  -19.3143  -55.5238 C.3       20 UNK        -0.1800 
    112 C         -6.9632  -19.6025  -56.1303 C.2       20 UNK         0.5000 
    113 O         -6.6505  -18.7930  -57.0043 O.2       20 UNK        -0.5000 
    114 N         -6.4931  -20.8570  -56.0744 N.am      21 UNK        -0.5000 
    115 CA        -5.4883  -21.4012  -56.9825 C.3       21 UNK         0.1400 
    116 CB        -5.7664  -22.8937  -57.2335 C.3       21 UNK        -0.1800 
    117 C         -4.0819  -21.1805  -56.4064 C.2       21 UNK         0.5000 
    118 O         -3.2540  -20.5430  -57.0574 O.2       21 UNK        -0.5000 
    119 N         -3.8449  -21.7057  -55.1949 N.am      22 UNK        -0.5000 
    120 CA        -2.5689  -21.6402  -54.4550 C.3       22 UNK         0.1400 
    121 C         -1.3681  -22.3869  -55.1260 C.2       22 UNK         0.5000 
    122 N         -1.5728  -23.1829  -56.1684 N.am      22 UNK        -0.7600 
    123 O         -0.2289  -22.2686  -54.6883 O.2       22 UNK        -0.5000 
    124 C124       -2.2193  -20.1820  -54.0361 C.3       23 UNK        -0.0398 
    125 S125       -1.4205  -20.0636  -52.3981 S.3       23 UNK        -0.2404 
    126 C126        0.2260  -19.4343  -52.8415 C.3       23 UNK        -0.0205 
    127 H127        2.0565   -8.8530  -47.8305 H         1 UNK         0.0600 
    128 H128        3.5175   -9.6908  -47.2993 H         1 UNK         0.0600 
    129 H129        2.4240   -8.9827  -46.1068 H         1 UNK         0.0600 
    130 H130        3.3447  -11.9046  -47.2813 H         1 UNK         0.3000 
    131 H131        2.6536  -13.9663  -47.0899 H         1 UNK         0.0600 
    132 H132        1.3792  -13.2873  -49.1981 H         1 UNK         0.0800 
    133 H133       -0.0587  -13.1224  -48.2524 H         1 UNK         0.0800 
    134 H134        2.8733  -15.6586  -49.2268 H         1 UNK         0.0800 
    135 H135        1.8046  -15.2481  -50.5452 H         1 UNK         0.0800 
    136 H136        0.4225  -16.9879  -51.6611 H         1 UNK         0.1150 
    137 H137        1.8699  -21.0090  -51.3341 H         1 UNK         0.1150 
    138 H138        3.2487  -18.0004  -48.6048 H         1 UNK         0.1150 
    139 H139        4.2581  -21.0163  -50.0155 H         1 UNK         0.0800 
    140 H140        4.2286  -20.1534  -48.5012 H         1 UNK         0.0800 
    141 H141        1.9279  -20.1576  -47.1703 H         1 UNK         0.0800 
    142 H142        2.4809  -21.4764  -46.1722 H         1 UNK         0.0800 
    143 H143        0.4421  -22.8148  -46.9701 H         1 UNK         0.0600 
    144 H144        0.5804  -20.9821  -44.9041 H         1 UNK         0.3000 
    145 H145       -2.6798  -21.4724  -43.4660 H         1 UNK         0.0600 
    146 H146       -1.1400  -21.9056  -41.5740 H         1 UNK         0.0600 
    147 H147        0.2182  -22.0888  -42.6786 H         1 UNK         0.0600 
    148 H148       -1.1068  -23.2437  -42.7134 H         1 UNK         0.0600 
    149 H149       -0.5128  -19.6959  -42.8189 H         1 UNK         0.3000 
    150 H150       -1.7623  -16.8852  -44.6424 H         1 UNK         0.0600 
    151 H151       -2.9318  -16.6476  -42.5461 H         1 UNK         0.0600 
    152 H152       -1.3430  -15.9643  -42.2436 H         1 UNK         0.0600 
    153 H153       -1.7385  -17.5708  -41.6580 H         1 UNK         0.0600 
    154 H154        0.5766  -17.1255  -43.0906 H         1 UNK         0.3000 
    155 H155        2.6724  -18.6740  -45.5559 H         1 UNK         0.0600 
    156 H156        2.6730  -16.2317  -46.1214 H         1 UNK         0.0600 
    157 H157        4.0822  -16.7270  -45.1969 H         1 UNK         0.0600 
    158 H158        2.7768  -15.8575  -44.4012 H         1 UNK         0.0600 
    159 H159        3.0549  -17.6902  -42.8638 H         1 UNK         0.3000 
    160 H160        2.3781  -20.8022  -41.2557 H         1 UNK         0.0600 
    161 H161        4.9744  -19.2188  -41.6753 H         1 UNK         0.0600 
    162 H162        4.7569  -20.9317  -42.0148 H         1 UNK         0.0600 
    163 H163        4.6486  -20.3493  -40.3614 H         1 UNK         0.0600 
    164 H164        3.1680  -18.2152  -40.3012 H         1 UNK         0.3000 
    165 H165       -0.0547  -16.7613  -40.0701 H         1 UNK         0.0600 
    166 H166        0.4760  -16.5965  -37.6543 H         1 UNK         0.0600 
    167 H167       -0.0413  -18.2271  -38.0507 H         1 UNK         0.0600 
    168 H168        1.6671  -17.8899  -37.7983 H         1 UNK         0.0600 
    169 H169        2.5236  -15.9789  -39.1020 H         1 UNK         0.3000 
    170 H170        3.5271  -14.2139  -40.0227 H         1 UNK         0.0600 
    171 H171        4.5412  -15.6785  -42.5310 H         1 UNK         0.0600 
    172 H172        5.5251  -14.7287  -41.4220 H         1 UNK         0.0600 
    173 H173        4.7935  -16.2263  -40.8768 H         1 UNK         0.0600 
    174 H174        2.5151  -13.5538  -42.6884 H         1 UNK         0.3000 
    175 H175        3.8460  -10.1943  -42.3643 H         1 UNK         0.0600 
    176 H176        4.1448  -12.2930  -44.5716 H         1 UNK         0.0600 
    177 H177        4.2091  -10.5446  -44.7934 H         1 UNK         0.0600 
    178 H178        5.4377  -11.3577  -43.8391 H         1 UNK         0.0600 
    179 H179        1.7991  -11.7194  -43.8686 H         1 UNK         0.3000 
    180 H180       -0.8917  -10.2705  -42.2156 H         1 UNK         0.0600 
    181 H181       -1.5277   -8.9886  -44.2629 H         1 UNK         0.0600 
    182 H182        0.1619   -8.9343  -44.7637 H         1 UNK         0.0600 
    183 H183       -0.3506   -8.1141  -43.2961 H         1 UNK         0.0600 
    184 H184       -0.3919  -11.3486  -44.9033 H         1 UNK         0.3000 
    185 H185       -0.6091  -14.7091  -43.9199 H         1 UNK         0.0600 
    186 H186       -2.8838  -13.1339  -45.2557 H         1 UNK         0.0600 
    187 H187       -2.5843  -14.8544  -45.4804 H         1 UNK         0.0600 
    188 H188       -3.0609  -14.2443  -43.9024 H         1 UNK         0.0600 
    189 H189       -0.7234  -13.6307  -46.4995 H         1 UNK         0.3000 
    190 H190       -0.7630  -19.4645  -46.9960 H         1 UNK         0.3000 
    191 H191       -1.5046  -19.1607  -49.6311 H         1 UNK         0.0600 
    192 H192       -2.9569  -18.1232  -47.1434 H         1 UNK         0.0600 
    193 H193       -3.0772  -17.4468  -48.7625 H         1 UNK         0.0600 
    194 H194       -1.5518  -17.3756  -47.8976 H         1 UNK         0.0600 
    195 H195       -2.9710  -21.3769  -47.4079 H         1 UNK         0.3000 
    196 H196       -5.1203  -22.0063  -49.4012 H         1 UNK         0.0600 
    197 H197       -6.1102  -21.4304  -47.2046 H         1 UNK         0.0600 
    198 H198       -5.0599  -22.5883  -46.3922 H         1 UNK         0.0600 
    199 H199       -6.2868  -23.1490  -47.5256 H         1 UNK         0.0600 
    200 H200       -2.7976  -23.4023  -47.0170 H         1 UNK         0.3000 
    201 H201       -3.1882  -26.0567  -47.7068 H         1 UNK         0.0600 
    202 H202       -2.2051  -25.2638  -45.5726 H         1 UNK         0.0600 
    203 H203       -0.7403  -24.7554  -46.4104 H         1 UNK         0.0600 
    204 H204       -1.1610  -26.4596  -46.3228 H         1 UNK         0.0600 
    205 H205       -1.2272  -23.7959  -49.5123 H         1 UNK         0.3000 
    206 H206        0.5898  -25.5910  -50.7296 H         1 UNK         0.0600 
    207 H207        0.7651  -23.7819  -52.4674 H         1 UNK         0.0600 
    208 H208       -0.6230  -22.9729  -51.7503 H         1 UNK         0.0600 
    209 H209        0.8704  -23.1551  -50.8313 H         1 UNK         0.0600 
    210 H210       -2.8495  -25.0772  -51.3980 H         1 UNK         0.3000 
    211 H211       -2.7826  -27.3004  -53.3511 H         1 UNK         0.0600 
    212 H212       -3.8451  -24.5132  -54.0619 H         1 UNK         0.0600 
    213 H213       -4.0561  -25.9525  -55.0515 H         1 UNK         0.0600 
    214 H214       -2.4465  -25.3198  -54.7790 H         1 UNK         0.0600 
    215 H215       -4.2577  -25.9034  -50.7183 H         1 UNK         0.3000 
    216 H216       -6.0195  -26.2790  -49.5052 H         1 UNK         0.0600 
    217 H217       -7.7116  -27.9925  -49.9129 H         1 UNK         0.0600 
    218 H218       -6.1216  -28.6802  -50.2065 H         1 UNK         0.0600 
    219 H219       -7.1634  -28.2409  -51.5602 H         1 UNK         0.0600 
    220 H220       -6.7800  -25.9525  -52.9525 H         1 UNK         0.3000 
    221 H221       -8.9544  -24.0214  -52.5985 H         1 UNK         0.0600 
    222 H222       -7.3295  -24.9215  -55.0413 H         1 UNK         0.0600 
    223 H223       -8.9357  -25.4807  -54.5844 H         1 UNK         0.0600 
    224 H224       -8.6983  -23.8162  -55.0961 H         1 UNK         0.0600 
    225 H225       -8.1890  -22.3006  -51.4069 H         1 UNK         0.3000 
    226 H226       -5.6683  -21.0749  -51.5991 H         1 UNK         0.0600 
    227 H227       -7.2340  -20.8446  -49.6555 H         1 UNK         0.0600 
    228 H228       -6.7460  -19.2683  -50.2539 H         1 UNK         0.0600 
    229 H229       -8.3424  -19.8971  -50.6461 H         1 UNK         0.0600 
    230 H230       -8.5158  -20.6074  -53.5777 H         1 UNK         0.3000 
    231 H231       -7.7681  -18.1162  -54.8129 H         1 UNK         0.0600 
    232 H232       -9.5615  -18.7378  -56.4359 H         1 UNK         0.0600 
    233 H233      -10.1102  -18.9482  -54.7811 H         1 UNK         0.0600 
    234 H234       -9.6501  -20.3532  -55.7443 H         1 UNK         0.0600 
    235 H235       -6.7444  -21.4387  -55.2854 H         1 UNK         0.3000 
    236 H236       -5.5442  -20.8907  -57.9465 H         1 UNK         0.0600 
    237 H237       -5.7114  -23.4853  -56.3198 H         1 UNK         0.0600 
    238 H238       -6.7571  -23.0403  -57.6638 H         1 UNK         0.0600 
    239 H239       -5.0433  -23.3102  -57.9357 H         1 UNK         0.0600 
    240 H240       -4.6009  -22.1954  -54.7238 H         1 UNK         0.3000 
    241 H241       -2.7683  -22.2072  -53.5449 H         1 UNK         0.0600 
    242 H242       -0.7882  -23.6585  -56.5845 H         1 UNK         0.3800 
    243 H243       -2.4942  -23.2972  -56.5557 H         1 UNK         0.3800 
    244 H244       -1.6168  -19.6877  -54.7998 H         1 UNK         0.0800 
    245 H245       -3.1323  -19.5892  -53.9606 H         1 UNK         0.0800 
    246 H246        0.1186  -18.5702  -53.4989 H         1 UNK         0.0800 
    247 H247        0.7625  -20.1910  -53.4147 H         1 UNK         0.0800 
@<TRIPOS>BOND
     1    1    2 1    
     2    1  127 1    
     3    1  128 1    
     4    1  129 1    
     5    2    3 2    
     6    2    4 am   BACKBONE|DICT|INTERRES
     7    4    5 1    
     8    4  130 1    
     9    5    6 1    
    10    5   65 1    
    11    5  131 1    
    12    6    7 1    
    13    6  132 1    
    14    6  133 1    
    15    7    8 1    
    16    8    9 1    
    17    8  134 1    
    18    8  135 1    
    19    9   10 ar   
    20    9   14 ar   
    21   10   11 ar   
    22   10  136 1    
    23   11   12 ar   
    24   11  126 1    
    25   12   13 ar   
    26   12  137 1    
    27   13   14 ar   
    28   13   15 1    
    29   14  138 1    
    30   15   16 1    
    31   15  139 1    
    32   15  140 1    
    33   16   17 1    
    34   17   18 1    
    35   17  141 1    
    36   17  142 1    
    37   18   19 1    
    38   18   67 1    
    39   18  143 1    
    40   19   20 am   BACKBONE|DICT|INTERRES
    41   19  144 1    
    42   20   21 2    
    43   20   22 1    
    44   22   23 1    
    45   22   24 1    
    46   22  145 1    
    47   23  146 1    
    48   23  147 1    
    49   23  148 1    
    50   24   25 am   BACKBONE|DICT|INTERRES
    51   24  149 1    
    52   25   26 2    
    53   25   27 1    
    54   27   28 1    
    55   27   29 1    
    56   27  150 1    
    57   28  151 1    
    58   28  152 1    
    59   28  153 1    
    60   29   30 am   BACKBONE|DICT|INTERRES
    61   29  154 1    
    62   30   31 2    
    63   30   32 1    
    64   32   33 1    
    65   32   34 1    
    66   32  155 1    
    67   33  156 1    
    68   33  157 1    
    69   33  158 1    
    70   34   35 am   BACKBONE|DICT|INTERRES
    71   34  159 1    
    72   35   36 2    
    73   35   37 1    
    74   37   38 1    
    75   37   39 1    
    76   37  160 1    
    77   38  161 1    
    78   38  162 1    
    79   38  163 1    
    80   39   40 am   BACKBONE|DICT|INTERRES
    81   39  164 1    
    82   40   41 2    
    83   40   42 1    
    84   42   43 1    
    85   42   44 1    
    86   42  165 1    
    87   43  166 1    
    88   43  167 1    
    89   43  168 1    
    90   44   45 am   BACKBONE|DICT|INTERRES
    91   44  169 1    
    92   45   46 2    
    93   45   47 1    
    94   47   48 1    
    95   47   49 1    
    96   47  170 1    
    97   48  171 1    
    98   48  172 1    
    99   48  173 1    
   100   49   50 am   BACKBONE|DICT|INTERRES
   101   49  174 1    
   102   50   51 2    
   103   50   52 1    
   104   52   53 1    
   105   52   54 1    
   106   52  175 1    
   107   53  176 1    
   108   53  177 1    
   109   53  178 1    
   110   54   55 am   BACKBONE|DICT|INTERRES
   111   54  179 1    
   112   55   56 2    
   113   55   57 1    
   114   57   58 1    
   115   57   59 1    
   116   57  180 1    
   117   58  181 1    
   118   58  182 1    
   119   58  183 1    
   120   59   60 am   BACKBONE|DICT|INTERRES
   121   59  184 1    
   122   60   61 2    
   123   60   62 1    
   124   62   63 1    
   125   62   64 1    
   126   62  185 1    
   127   63  186 1    
   128   63  187 1    
   129   63  188 1    
   130   64   65 am   BACKBONE|DICT|INTERRES
   131   64  189 1    
   132   65   66 2    
   133   67   68 2    
   134   67   69 am   BACKBONE|DICT|INTERRES
   135   69   70 1    
   136   69  190 1    
   137   70   71 1    
   138   70   72 1    
   139   70  191 1    
   140   71  192 1    
   141   71  193 1    
   142   71  194 1    
   143   72   73 2    
   144   72   74 am   BACKBONE|DICT|INTERRES
   145   74   75 1    
   146   74  195 1    
   147   75   76 1    
   148   75   77 1    
   149   75  196 1    
   150   76  197 1    
   151   76  198 1    
   152   76  199 1    
   153   77   78 2    
   154   77   79 am   BACKBONE|DICT|INTERRES
   155   79   80 1    
   156   79  200 1    
   157   80   81 1    
   158   80   82 1    
   159   80  201 1    
   160   81  202 1    
   161   81  203 1    
   162   81  204 1    
   163   82   83 2    
   164   82   84 am   BACKBONE|DICT|INTERRES
   165   84   85 1    
   166   84  205 1    
   167   85   86 1    
   168   85   87 1    
   169   85  206 1    
   170   86  207 1    
   171   86  208 1    
   172   86  209 1    
   173   87   88 2    
   174   87   89 am   BACKBONE|DICT|INTERRES
   175   89   90 1    
   176   89  210 1    
   177   90   91 1    
   178   90   92 1    
   179   90  211 1    
   180   91  212 1    
   181   91  213 1    
   182   91  214 1    
   183   92   93 2    
   184   92   94 am   BACKBONE|DICT|INTERRES
   185   94   95 1    
   186   94  215 1    
   187   95   96 1    
   188   95   97 1    
   189   95  216 1    
   190   96  217 1    
   191   96  218 1    
   192   96  219 1    
   193   97   98 2    
   194   97   99 am   BACKBONE|DICT|INTERRES
   195   99  100 1    
   196   99  220 1    
   197  100  101 1    
   198  100  102 1    
   199  100  221 1    
   200  101  222 1    
   201  101  223 1    
   202  101  224 1    
   203  102  103 2    
   204  102  104 am   BACKBONE|DICT|INTERRES
   205  104  105 1    
   206  104  225 1    
   207  105  106 1    
   208  105  107 1    
   209  105  226 1    
   210  106  227 1    
   211  106  228 1    
   212  106  229 1    
   213  107  108 2    
   214  107  109 am   BACKBONE|DICT|INTERRES
   215  109  110 1    
   216  109  230 1    
   217  110  111 1    
   218  110  112 1    
   219  110  231 1    
   220  111  232 1    
   221  111  233 1    
   222  111  234 1    
   223  112  113 2    
   224  112  114 am   BACKBONE|DICT|INTERRES
   225  114  115 1    
   226  114  235 1    
   227  115  116 1    
   228  115  117 1    
   229  115  236 1    
   230  116  237 1    
   231  116  238 1    
   232  116  239 1    
   233  117  118 2    
   234  117  119 am   BACKBONE|DICT|INTERRES
   235  119  120 1    
   236  119  240 1    
   237  120  121 1    
   238  120  124 1    
   239  120  241 1    
   240  121  122 am   BACKBONE|DICT|INTERRES
   241  121  123 2    
   242  122  242 1    
   243  122  243 1    
   244  124  125 1    
   245  124  244 1    
   246  124  245 1    
   247  125  126 1    
   248  126  246 1    
   249  126  247 1    
@<TRIPOS>SUBSTRUCTURE
     1 UNK         1 GROUP             0       ****    0 ROOT    
