@<TRIPOS>MOLECULE
3R540
247   249    1
SMALL
USER_CHARGES


@<TRIPOS>ATOM
      1 CA         -1.5468  -12.4378  -45.1782 C.3       0 UNK        -0.1800 
      2 C          -1.4044  -12.4551  -46.6934 C.2       0 UNK         0.5000 
      3 O          -0.7607  -11.5723  -47.2589 O.2       0 UNK        -0.5000 
      4 N          -2.0081  -13.4533  -47.3497 N.am      1 UNK        -0.5000 
      5 CA         -1.9437  -13.6754  -48.8008 C.3       1 UNK         0.1400 
      6 C6         -3.1017  -14.5817  -49.2884 C.3       23 UNK        -0.0398 
      7 S7         -3.2341  -16.1710  -48.3894 S.3       23 UNK        -0.2404 
      8 C8         -3.2751  -17.3798  -49.7455 C.3       23 UNK        -0.0205 
      9 C9         -1.8891  -17.7207  -50.2728 C.ar      23 UNK        -0.0193 
     10 C10        -1.3742  -17.0598  -51.3877 C.ar      23 UNK        -0.1150 
     11 C11        -0.1297  -17.4191  -51.9080 C.ar      23 UNK        -0.0193 
     12 C12         0.6039  -18.4447  -51.3052 C.ar      23 UNK        -0.1150 
     13 C13         0.0985  -19.1317  -50.1963 C.ar      23 UNK        -0.0193 
     14 C14        -1.1493  -18.7493  -49.6836 C.ar      23 UNK        -0.1150 
     15 C15         0.8821  -20.3313  -49.6507 C.3       23 UNK        -0.0205 
     16 S16         0.9830  -20.4502  -47.8294 S.3       23 UNK        -0.2404 
     17 C17        -0.6428  -21.1530  -47.4126 C.3       23 UNK        -0.0398 
     18 CA         -0.6242  -22.4245  -46.5343 C.3       11 UNK         0.1400 
     19 N          -0.1215  -22.1933  -45.1721 N.am      11 UNK        -0.5000 
     20 C          -0.0747  -23.1051  -44.1854 C.2       10 UNK         0.5000 
     21 O          -0.4445  -24.2731  -44.3144 O.2       10 UNK        -0.5000 
     22 CA          0.3971  -22.6216  -42.8032 C.3       10 UNK         0.1400 
     23 CB          1.9275  -22.5037  -42.7387 C.3       10 UNK        -0.1800 
     24 N          -0.2284  -21.3506  -42.4385 N.am      10 UNK        -0.5000 
     25 C          -1.5102  -21.2283  -42.0629 C.2       9 UNK         0.5000 
     26 O          -2.2634  -22.1876  -41.8956 O.2       9 UNK        -0.5000 
     27 CA         -2.0580  -19.8004  -41.8680 C.3       9 UNK         0.1400 
     28 CB         -1.8337  -19.3241  -40.4253 C.3       9 UNK        -0.1800 
     29 N          -1.4787  -18.8291  -42.7964 N.am      9 UNK        -0.5000 
     30 C          -1.6368  -18.8593  -44.1271 C.2       8 UNK         0.5000 
     31 O          -2.3487  -19.6775  -44.7111 O.2       8 UNK        -0.5000 
     32 CA         -0.8096  -17.8453  -44.9426 C.3       8 UNK         0.1400 
     33 CB         -1.5218  -16.4875  -45.0179 C.3       8 UNK        -0.1800 
     34 N           0.5454  -17.6573  -44.4163 N.am      8 UNK        -0.5000 
     35 C           1.4637  -18.6293  -44.3134 C.2       7 UNK         0.5000 
     36 O           1.2630  -19.7912  -44.6543 O.2       7 UNK        -0.5000 
     37 CA          2.8026  -18.2669  -43.6524 C.3       7 UNK         0.1400 
     38 CB          3.7413  -17.5467  -44.6327 C.3       7 UNK        -0.1800 
     39 N           2.5982  -17.4548  -42.4548 N.am      7 UNK        -0.5000 
     40 C           2.0854  -17.9274  -41.3091 C.2       6 UNK         0.5000 
     41 O           1.8062  -19.1117  -41.1220 O.2       6 UNK        -0.5000 
     42 CA          1.8028  -16.8952  -40.2014 C.3       6 UNK         0.1400 
     43 CB          3.0546  -16.6699  -39.3405 C.3       6 UNK        -0.1800 
     44 N           1.3454  -15.6104  -40.7346 N.am      6 UNK        -0.5000 
     45 C           0.1740  -15.4215  -41.3592 C.2       5 UNK         0.5000 
     46 O          -0.6704  -16.3042  -41.5073 O.2       5 UNK        -0.5000 
     47 CA         -0.0632  -14.0279  -41.9727 C.3       5 UNK         0.1400 
     48 CB         -0.6795  -13.0743  -40.9394 C.3       5 UNK        -0.1800 
     49 N           1.1606  -13.4327  -42.5203 N.am      5 UNK        -0.5000 
     50 C           1.8449  -13.9422  -43.5521 C.2       4 UNK         0.5000 
     51 O           1.4834  -14.9419  -44.1809 O.2       4 UNK        -0.5000 
     52 CA          3.1762  -13.2630  -43.9009 C.3       4 UNK         0.1400 
     53 CB          4.2349  -13.5582  -42.8201 C.3       4 UNK        -0.1800 
     54 N           3.6217  -13.7803  -45.1879 N.am      4 UNK        -0.5000 
     55 C           4.5609  -13.2598  -45.9843 C.2       3 UNK         0.5000 
     56 O           5.1978  -12.2404  -45.7156 O.2       3 UNK        -0.5000 
     57 CA          4.8433  -14.0059  -47.3064 C.3       3 UNK         0.1400 
     58 CB          6.0950  -14.8857  -47.1626 C.3       3 UNK        -0.1800 
     59 N           3.7299  -14.8457  -47.7619 N.am      3 UNK        -0.5000 
     60 C           2.5516  -14.3818  -48.2003 C.2       2 UNK         0.5000 
     61 O           2.3063  -13.1785  -48.3080 O.2       2 UNK        -0.5000 
     62 CA          1.4804  -15.4347  -48.5631 C.3       2 UNK         0.1400 
     63 CB          1.5995  -16.7207  -47.7248 C.3       2 UNK        -0.1800 
     64 N           0.1400  -14.8944  -48.3637 N.am      2 UNK        -0.5000 
     65 C          -0.5698  -14.2067  -49.2666 C.2       1 UNK         0.5000 
     66 O          -0.1901  -13.9799  -50.4165 O.2       1 UNK        -0.5000 
     67 C          -2.0488  -23.0065  -46.5507 C.2       11 UNK         0.5000 
     68 O          -2.3355  -23.8561  -47.3926 O.2       11 UNK        -0.5000 
     69 N          -2.9156  -22.5432  -45.6398 N.am      12 UNK        -0.5000 
     70 CA         -4.3009  -22.9964  -45.4943 C.3       12 UNK         0.1400 
     71 CB         -4.9773  -22.1994  -44.3700 C.3       12 UNK        -0.1800 
     72 C          -4.4396  -24.5128  -45.2510 C.2       12 UNK         0.5000 
     73 O          -5.4196  -25.1058  -45.7024 O.2       12 UNK        -0.5000 
     74 N          -3.4463  -25.1101  -44.5802 N.am      13 UNK        -0.5000 
     75 CA         -3.3491  -26.5486  -44.3541 C.3       13 UNK         0.1400 
     76 CB         -2.8120  -26.7974  -42.9354 C.3       13 UNK        -0.1800 
     77 C          -2.4436  -27.2214  -45.3998 C.2       13 UNK         0.5000 
     78 O          -2.8210  -28.2537  -45.9545 O.2       13 UNK        -0.5000 
     79 N          -1.2568  -26.6444  -45.6321 N.am      14 UNK        -0.5000 
     80 CA         -0.1779  -27.2605  -46.4060 C.3       14 UNK         0.1400 
     81 CB          1.1488  -26.5805  -46.0323 C.3       14 UNK        -0.1800 
     82 C          -0.3767  -27.2180  -47.9309 C.2       14 UNK         0.5000 
     83 O           0.1087  -28.1162  -48.6203 O.2       14 UNK        -0.5000 
     84 N          -1.0447  -26.1736  -48.4337 N.am      15 UNK        -0.5000 
     85 CA         -1.1596  -25.8683  -49.8620 C.3       15 UNK         0.1400 
     86 CB         -0.2451  -24.6676  -50.1738 C.3       15 UNK        -0.1800 
     87 C          -2.6084  -25.5774  -50.2899 C.2       15 UNK         0.5000 
     88 O          -2.8150  -25.1255  -51.4167 O.2       15 UNK        -0.5000 
     89 N          -3.5800  -25.7788  -49.3848 N.am      16 UNK        -0.5000 
     90 CA         -5.0014  -25.4296  -49.5273 C.3       16 UNK         0.1400 
     91 CB         -5.6906  -26.3700  -50.5372 C.3       16 UNK        -0.1800 
     92 C          -5.2110  -23.9340  -49.8591 C.2       16 UNK         0.5000 
     93 O          -6.0299  -23.5892  -50.7140 O.2       16 UNK        -0.5000 
     94 N          -4.4008  -23.0785  -49.2154 N.am      17 UNK        -0.5000 
     95 CA         -4.2976  -21.6266  -49.4090 C.3       17 UNK         0.1400 
     96 CB         -5.6047  -20.9263  -48.9810 C.3       17 UNK        -0.1800 
     97 C          -3.8518  -21.2275  -50.8335 C.2       17 UNK         0.5000 
     98 O          -4.1587  -20.1213  -51.2778 O.2       17 UNK        -0.5000 
     99 N          -3.1849  -22.1494  -51.5499 N.am      18 UNK        -0.5000 
    100 CA        -2.7652  -22.0495  -52.9552 C.3       18 UNK         0.1400 
    101 CB        -1.6444  -20.9990  -53.1045 C.3       18 UNK        -0.1800 
    102 C         -3.9430  -21.7998  -53.9265 C.2       18 UNK         0.5000 
    103 O         -3.7460  -21.2207  -54.9964 O.2       18 UNK        -0.5000 
    104 N         -5.1638  -22.1687  -53.4983 N.am      19 UNK        -0.5000 
    105 CA        -6.4631  -21.8341  -54.0969 C.3       19 UNK         0.1400 
    106 CB        -6.6431  -22.5791  -55.4354 C.3       19 UNK        -0.1800 
    107 C         -6.7151  -20.3114  -54.2351 C.2       19 UNK         0.5000 
    108 O         -7.5746  -19.9077  -55.0198 O.2       19 UNK        -0.5000 
    109 N         -5.9383  -19.4957  -53.5013 N.am      20 UNK        -0.5000 
    110 CA        -5.8142  -18.0375  -53.5845 C.3       20 UNK         0.1400 
    111 CB        -7.1033  -17.3546  -53.0854 C.3       20 UNK        -0.1800 
    112 C         -5.3644  -17.5168  -54.9710 C.2       20 UNK         0.5000 
    113 O         -5.5432  -16.3313  -55.2556 O.2       20 UNK        -0.5000 
    114 N         -4.7797  -18.3877  -55.8104 N.am      21 UNK        -0.5000 
    115 CA        -4.4468  -18.1122  -57.2129 C.3       21 UNK         0.1400 
    116 CB        -3.9881  -19.4151  -57.8849 C.3       21 UNK        -0.1800 
    117 C         -3.3929  -17.0050  -57.3995 C.2       21 UNK         0.5000 
    118 O         -3.4771  -16.2329  -58.3554 O.2       21 UNK        -0.5000 
    119 N         -2.4415  -16.9411  -56.4649 N.am      22 UNK        -0.5000 
    120 CA        -1.4136  -15.8971  -56.3417 C.3       22 UNK         0.1400 
    121 C         -1.8334  -14.7076  -55.4257 C.2       22 UNK         0.5000 
    122 N         -3.0644  -14.6367  -54.9307 N.am      22 UNK        -0.7600 
    123 O         -1.0322  -13.8116  -55.1748 O.2       22 UNK        -0.5000 
    124 C124       -0.0308  -16.4989  -55.9599 C.3       23 UNK        -0.0398 
    125 S125       -0.0993  -17.7321  -54.6148 S.3       23 UNK        -0.2404 
    126 C126        0.3825  -16.7462  -53.1672 C.3       23 UNK        -0.0205 
    127 H127       -2.1120  -11.5607  -44.8637 H         1 UNK         0.0600 
    128 H128       -0.5632  -12.3944  -44.7119 H         1 UNK         0.0600 
    129 H129       -2.0604  -13.3256  -44.8086 H         1 UNK         0.0600 
    130 H130       -2.5473  -14.1375  -46.8377 H         1 UNK         0.3000 
    131 H131       -2.0736  -12.7049  -49.2850 H         1 UNK         0.0600 
    132 H132       -4.0469  -14.0546  -49.1532 H         1 UNK         0.0800 
    133 H133       -3.0235  -14.7569  -50.3622 H         1 UNK         0.0800 
    134 H134       -3.9186  -17.0230  -50.5511 H         1 UNK         0.0800 
    135 H135       -3.7475  -18.2866  -49.3697 H         1 UNK         0.0800 
    136 H136       -1.9511  -16.2838  -51.8698 H         1 UNK         0.1150 
    137 H137        1.5512  -18.7382  -51.7350 H         1 UNK         0.1150 
    138 H138       -1.5829  -19.2553  -48.8409 H         1 UNK         0.1150 
    139 H139        0.4563  -21.2490  -50.0582 H         1 UNK         0.0800 
    140 H140        1.9079  -20.2930  -50.0200 H         1 UNK         0.0800 
    141 H141       -1.1450  -21.3769  -48.3551 H         1 UNK         0.0800 
    142 H142       -1.2309  -20.3731  -46.9308 H         1 UNK         0.0800 
    143 H143        0.0334  -23.1604  -47.0011 H         1 UNK         0.0600 
    144 H144        0.2582  -21.2658  -44.9877 H         1 UNK         0.3000 
    145 H145        0.0961  -23.3722  -42.0692 H         1 UNK         0.0600 
    146 H146        2.2549  -22.1639  -41.7559 H         1 UNK         0.0600 
    147 H147        2.3965  -23.4711  -42.9223 H         1 UNK         0.0600 
    148 H148        2.3204  -21.8084  -43.4793 H         1 UNK         0.0600 
    149 H149        0.3285  -20.5153  -42.5624 H         1 UNK         0.3000 
    150 H150       -3.1340  -19.8338  -42.0515 H         1 UNK         0.0600 
    151 H151       -2.2850  -18.3458  -40.2586 H         1 UNK         0.0600 
    152 H152       -2.2823  -20.0156  -39.7111 H         1 UNK         0.0600 
    153 H153       -0.7727  -19.2475  -40.1870 H         1 UNK         0.0600 
    154 H154       -0.9309  -18.0777  -42.3890 H         1 UNK         0.3000 
    155 H155       -0.7154  -18.2329  -45.9585 H         1 UNK         0.0600 
    156 H156       -1.6498  -16.0446  -44.0310 H         1 UNK         0.0600 
    157 H157       -2.5137  -16.5938  -45.4579 H         1 UNK         0.0600 
    158 H158       -0.9621  -15.7828  -45.6317 H         1 UNK         0.0600 
    159 H159        0.8018  -16.7132  -44.1424 H         1 UNK         0.3000 
    160 H160        3.2875  -19.1993  -43.3545 H         1 UNK         0.0600 
    161 H161        3.3326  -16.5961  -44.9671 H         1 UNK         0.0600 
    162 H162        3.9163  -18.1564  -45.5201 H         1 UNK         0.0600 
    163 H163        4.7117  -17.3502  -44.1766 H         1 UNK         0.0600 
    164 H164        2.7591  -16.4636  -42.5419 H         1 UNK         0.3000 
    165 H165        1.0146  -17.2995  -39.5626 H         1 UNK         0.0600 
    166 H166        2.8454  -15.9963  -38.5093 H         1 UNK         0.0600 
    167 H167        3.4090  -17.6095  -38.9145 H         1 UNK         0.0600 
    168 H168        3.8733  -16.2431  -39.9214 H         1 UNK         0.0600 
    169 H169        1.9776  -14.8287  -40.6484 H         1 UNK         0.3000 
    170 H170       -0.7759  -14.1472  -42.7903 H         1 UNK         0.0600 
    171 H171       -1.6021  -13.4875  -40.5292 H         1 UNK         0.0600 
    172 H172       -0.0022  -12.8901  -40.1046 H         1 UNK         0.0600 
    173 H173       -0.9279  -12.1132  -41.3900 H         1 UNK         0.0600 
    174 H174        1.5127  -12.6105  -42.0510 H         1 UNK         0.3000 
    175 H175        3.0085  -12.1873  -43.9822 H         1 UNK         0.0600 
    176 H176        4.4287  -14.6278  -42.7293 H         1 UNK         0.0600 
    177 H177        5.1819  -13.0686  -43.0471 H         1 UNK         0.0600 
    178 H178        3.9173  -13.1957  -41.8420 H         1 UNK         0.0600 
    179 H179        3.0973  -14.5860  -45.5023 H         1 UNK         0.3000 
    180 H180        5.0389  -13.2532  -48.0730 H         1 UNK         0.0600 
    181 H181        5.9521  -15.6699  -46.4178 H         1 UNK         0.0600 
    182 H182        6.9565  -14.2925  -46.8529 H         1 UNK         0.0600 
    183 H183        6.3542  -15.3622  -48.1082 H         1 UNK         0.0600 
    184 H184        3.8711  -15.8440  -47.7128 H         1 UNK         0.3000 
    185 H185        1.6114  -15.6983  -49.6147 H         1 UNK         0.0600 
    186 H186        2.5032  -17.2808  -47.9660 H         1 UNK         0.0600 
    187 H187        1.6119  -16.4987  -46.6588 H         1 UNK         0.0600 
    188 H188        0.7577  -17.3871  -47.9097 H         1 UNK         0.0600 
    189 H189       -0.2457  -14.9850  -47.4373 H         1 UNK         0.3000 
    190 H190       -2.6166  -21.7928  -45.0266 H         1 UNK         0.3000 
    191 H191       -4.8195  -22.7692  -46.4263 H         1 UNK         0.0600 
    192 H192       -4.9371  -21.1276  -44.5662 H         1 UNK         0.0600 
    193 H193       -6.0285  -22.4739  -44.2745 H         1 UNK         0.0600 
    194 H194       -4.5015  -22.3820  -43.4064 H         1 UNK         0.0600 
    195 H195       -2.6575  -24.5500  -44.2821 H         1 UNK         0.3000 
    196 H196       -4.3375  -27.0083  -44.4202 H         1 UNK         0.0600 
    197 H197       -2.7189  -27.8653  -42.7341 H         1 UNK         0.0600 
    198 H198       -3.4839  -26.3823  -42.1839 H         1 UNK         0.0600 
    199 H199       -1.8293  -26.3473  -42.7879 H         1 UNK         0.0600 
    200 H200       -1.0156  -25.7902  -45.1337 H         1 UNK         0.3000 
    201 H201       -0.1083  -28.3110  -46.1148 H         1 UNK         0.0600 
    202 H202        1.3438  -26.6563  -44.9623 H         1 UNK         0.0600 
    203 H203        1.1466  -25.5225  -46.2976 H         1 UNK         0.0600 
    204 H204        1.9882  -27.0470  -46.5495 H         1 UNK         0.0600 
    205 H205       -1.4279  -25.4749  -47.8032 H         1 UNK         0.3000 
    206 H206       -0.8314  -26.7164  -50.4657 H         1 UNK         0.0600 
    207 H207        0.7872  -24.8753  -49.8920 H         1 UNK         0.0600 
    208 H208       -0.2463  -24.4330  -51.2391 H         1 UNK         0.0600 
    209 H209       -0.5631  -23.7714  -49.6399 H         1 UNK         0.0600 
    210 H210       -3.3054  -26.1411  -48.4829 H         1 UNK         0.3000 
    211 H211       -5.4614  -25.5935  -48.5518 H         1 UNK         0.0600 
    212 H212       -5.3117  -26.2262  -51.5495 H         1 UNK         0.0600 
    213 H213       -6.7668  -26.1947  -50.5630 H         1 UNK         0.0600 
    214 H214       -5.5394  -27.4153  -50.2680 H         1 UNK         0.0600 
    215 H215       -3.7229  -23.4787  -48.5707 H         1 UNK         0.3000 
    216 H216       -3.5105  -21.2815  -48.7393 H         1 UNK         0.0600 
    217 H217       -5.4887  -19.8427  -48.9729 H         1 UNK         0.0600 
    218 H218       -5.9036  -21.2231  -47.9762 H         1 UNK         0.0600 
    219 H219       -6.4283  -21.1568  -49.6572 H         1 UNK         0.0600 
    220 H220       -3.0433  -23.0645  -51.1384 H         1 UNK         0.3000 
    221 H221       -2.3499  -23.0215  -53.2243 H         1 UNK         0.0600 
    222 H222       -2.0025  -19.9889  -52.9011 H         1 UNK         0.0600 
    223 H223       -0.8200  -21.2022  -52.4215 H         1 UNK         0.0600 
    224 H224       -1.2337  -21.0001  -54.1147 H         1 UNK         0.0600 
    225 H225       -5.2207  -22.6293  -52.5972 H         1 UNK         0.3000 
    226 H226       -7.2195  -22.2046  -53.4036 H         1 UNK         0.0600 
    227 H227       -6.4636  -23.6479  -55.3187 H         1 UNK         0.0600 
    228 H228       -7.6582  -22.4626  -55.8165 H         1 UNK         0.0600 
    229 H229       -5.9623  -22.2059  -56.2011 H         1 UNK         0.0600 
    230 H230       -5.2840  -19.9254  -52.8525 H         1 UNK         0.3000 
    231 H231       -5.0126  -17.7704  -52.8943 H         1 UNK         0.0600 
    232 H232       -7.9400  -17.5252  -53.7633 H         1 UNK         0.0600 
    233 H233       -6.9681  -16.2760  -52.9980 H         1 UNK         0.0600 
    234 H234       -7.3878  -17.7241  -52.1002 H         1 UNK         0.0600 
    235 H235       -4.6177  -19.3363  -55.4900 H         1 UNK         0.3000 
    236 H236       -5.3616  -17.7793  -57.7074 H         1 UNK         0.0600 
    237 H237       -4.7603  -20.1826  -57.8252 H         1 UNK         0.0600 
    238 H238       -3.7682  -19.2552  -58.9412 H         1 UNK         0.0600 
    239 H239       -3.0863  -19.8119  -57.4167 H         1 UNK         0.0600 
    240 H240       -2.4551  -17.6215  -55.7184 H         1 UNK         0.3000 
    241 H241       -1.2809  -15.4380  -57.3230 H         1 UNK         0.0600 
    242 H242       -3.7728  -15.3216  -55.1666 H         1 UNK         0.3800 
    243 H243       -3.3127  -13.8485  -54.3547 H         1 UNK         0.3800 
    244 H244        0.3754  -17.0124  -56.8321 H         1 UNK         0.0800 
    245 H245        0.6993  -15.7234  -55.7218 H         1 UNK         0.0800 
    246 H246       -0.0249  -15.7368  -53.2408 H         1 UNK         0.0800 
    247 H247        1.4681  -16.6444  -53.1337 H         1 UNK         0.0800 
@<TRIPOS>BOND
     1    1    2 1    
     2    1  127 1    
     3    1  128 1    
     4    1  129 1    
     5    2    3 2    
     6    2    4 am   BACKBONE|DICT|INTERRES
     7    4    5 1    
     8    4  130 1    
     9    5    6 1    
    10    5   65 1    
    11    5  131 1    
    12    6    7 1    
    13    6  132 1    
    14    6  133 1    
    15    7    8 1    
    16    8    9 1    
    17    8  134 1    
    18    8  135 1    
    19    9   10 ar   
    20    9   14 ar   
    21   10   11 ar   
    22   10  136 1    
    23   11   12 ar   
    24   11  126 1    
    25   12   13 ar   
    26   12  137 1    
    27   13   14 ar   
    28   13   15 1    
    29   14  138 1    
    30   15   16 1    
    31   15  139 1    
    32   15  140 1    
    33   16   17 1    
    34   17   18 1    
    35   17  141 1    
    36   17  142 1    
    37   18   19 1    
    38   18   67 1    
    39   18  143 1    
    40   19   20 am   BACKBONE|DICT|INTERRES
    41   19  144 1    
    42   20   21 2    
    43   20   22 1    
    44   22   23 1    
    45   22   24 1    
    46   22  145 1    
    47   23  146 1    
    48   23  147 1    
    49   23  148 1    
    50   24   25 am   BACKBONE|DICT|INTERRES
    51   24  149 1    
    52   25   26 2    
    53   25   27 1    
    54   27   28 1    
    55   27   29 1    
    56   27  150 1    
    57   28  151 1    
    58   28  152 1    
    59   28  153 1    
    60   29   30 am   BACKBONE|DICT|INTERRES
    61   29  154 1    
    62   30   31 2    
    63   30   32 1    
    64   32   33 1    
    65   32   34 1    
    66   32  155 1    
    67   33  156 1    
    68   33  157 1    
    69   33  158 1    
    70   34   35 am   BACKBONE|DICT|INTERRES
    71   34  159 1    
    72   35   36 2    
    73   35   37 1    
    74   37   38 1    
    75   37   39 1    
    76   37  160 1    
    77   38  161 1    
    78   38  162 1    
    79   38  163 1    
    80   39   40 am   BACKBONE|DICT|INTERRES
    81   39  164 1    
    82   40   41 2    
    83   40   42 1    
    84   42   43 1    
    85   42   44 1    
    86   42  165 1    
    87   43  166 1    
    88   43  167 1    
    89   43  168 1    
    90   44   45 am   BACKBONE|DICT|INTERRES
    91   44  169 1    
    92   45   46 2    
    93   45   47 1    
    94   47   48 1    
    95   47   49 1    
    96   47  170 1    
    97   48  171 1    
    98   48  172 1    
    99   48  173 1    
   100   49   50 am   BACKBONE|DICT|INTERRES
   101   49  174 1    
   102   50   51 2    
   103   50   52 1    
   104   52   53 1    
   105   52   54 1    
   106   52  175 1    
   107   53  176 1    
   108   53  177 1    
   109   53  178 1    
   110   54   55 am   BACKBONE|DICT|INTERRES
   111   54  179 1    
   112   55   56 2    
   113   55   57 1    
   114   57   58 1    
   115   57   59 1    
   116   57  180 1    
   117   58  181 1    
   118   58  182 1    
   119   58  183 1    
   120   59   60 am   BACKBONE|DICT|INTERRES
   121   59  184 1    
   122   60   61 2    
   123   60   62 1    
   124   62   63 1    
   125   62   64 1    
   126   62  185 1    
   127   63  186 1    
   128   63  187 1    
   129   63  188 1    
   130   64   65 am   BACKBONE|DICT|INTERRES
   131   64  189 1    
   132   65   66 2    
   133   67   68 2    
   134   67   69 am   BACKBONE|DICT|INTERRES
   135   69   70 1    
   136   69  190 1    
   137   70   71 1    
   138   70   72 1    
   139   70  191 1    
   140   71  192 1    
   141   71  193 1    
   142   71  194 1    
   143   72   73 2    
   144   72   74 am   BACKBONE|DICT|INTERRES
   145   74   75 1    
   146   74  195 1    
   147   75   76 1    
   148   75   77 1    
   149   75  196 1    
   150   76  197 1    
   151   76  198 1    
   152   76  199 1    
   153   77   78 2    
   154   77   79 am   BACKBONE|DICT|INTERRES
   155   79   80 1    
   156   79  200 1    
   157   80   81 1    
   158   80   82 1    
   159   80  201 1    
   160   81  202 1    
   161   81  203 1    
   162   81  204 1    
   163   82   83 2    
   164   82   84 am   BACKBONE|DICT|INTERRES
   165   84   85 1    
   166   84  205 1    
   167   85   86 1    
   168   85   87 1    
   169   85  206 1    
   170   86  207 1    
   171   86  208 1    
   172   86  209 1    
   173   87   88 2    
   174   87   89 am   BACKBONE|DICT|INTERRES
   175   89   90 1    
   176   89  210 1    
   177   90   91 1    
   178   90   92 1    
   179   90  211 1    
   180   91  212 1    
   181   91  213 1    
   182   91  214 1    
   183   92   93 2    
   184   92   94 am   BACKBONE|DICT|INTERRES
   185   94   95 1    
   186   94  215 1    
   187   95   96 1    
   188   95   97 1    
   189   95  216 1    
   190   96  217 1    
   191   96  218 1    
   192   96  219 1    
   193   97   98 2    
   194   97   99 am   BACKBONE|DICT|INTERRES
   195   99  100 1    
   196   99  220 1    
   197  100  101 1    
   198  100  102 1    
   199  100  221 1    
   200  101  222 1    
   201  101  223 1    
   202  101  224 1    
   203  102  103 2    
   204  102  104 am   BACKBONE|DICT|INTERRES
   205  104  105 1    
   206  104  225 1    
   207  105  106 1    
   208  105  107 1    
   209  105  226 1    
   210  106  227 1    
   211  106  228 1    
   212  106  229 1    
   213  107  108 2    
   214  107  109 am   BACKBONE|DICT|INTERRES
   215  109  110 1    
   216  109  230 1    
   217  110  111 1    
   218  110  112 1    
   219  110  231 1    
   220  111  232 1    
   221  111  233 1    
   222  111  234 1    
   223  112  113 2    
   224  112  114 am   BACKBONE|DICT|INTERRES
   225  114  115 1    
   226  114  235 1    
   227  115  116 1    
   228  115  117 1    
   229  115  236 1    
   230  116  237 1    
   231  116  238 1    
   232  116  239 1    
   233  117  118 2    
   234  117  119 am   BACKBONE|DICT|INTERRES
   235  119  120 1    
   236  119  240 1    
   237  120  121 1    
   238  120  124 1    
   239  120  241 1    
   240  121  122 am   BACKBONE|DICT|INTERRES
   241  121  123 2    
   242  122  242 1    
   243  122  243 1    
   244  124  125 1    
   245  124  244 1    
   246  124  245 1    
   247  125  126 1    
   248  126  246 1    
   249  126  247 1    
@<TRIPOS>SUBSTRUCTURE
     1 UNK         1 GROUP             0       ****    0 ROOT    
