@<TRIPOS>MOLECULE
3R540
247   249    1
SMALL
USER_CHARGES


@<TRIPOS>ATOM
      1 CA         -1.1560  -11.8976  -45.6690 C.3       0 UNK        -0.1800 
      2 C           0.1241  -12.4865  -46.2435 C.2       0 UNK         0.5000 
      3 O           0.5212  -13.5937  -45.8765 O.2       0 UNK        -0.5000 
      4 N           0.7654  -11.7306  -47.1411 N.am      1 UNK        -0.5000 
      5 CA          1.9517  -12.0617  -47.9458 C.3       1 UNK         0.1400 
      6 C6          1.7668  -13.2948  -48.8699 C.3       23 UNK        -0.0398 
      7 S7          0.3768  -13.0686  -50.0356 S.3       23 UNK        -0.2404 
      8 C8         -0.8082  -14.3241  -49.4602 C.3       23 UNK        -0.0205 
      9 C9         -0.6417  -15.6334  -50.2136 C.ar      23 UNK        -0.0193 
     10 C10        -1.4014  -15.8840  -51.3586 C.ar      23 UNK        -0.1150 
     11 C11        -1.2451  -17.0772  -52.0690 C.ar      23 UNK        -0.0193 
     12 C12        -0.3169  -18.0246  -51.6270 C.ar      23 UNK        -0.1150 
     13 C13         0.4403  -17.7922  -50.4714 C.ar      23 UNK        -0.0193 
     14 C14         0.2695  -16.5943  -49.7714 C.ar      23 UNK        -0.1150 
     15 C15         1.4685  -18.8046  -49.9759 C.3       23 UNK        -0.0205 
     16 S16         0.8808  -20.5288  -49.9851 S.3       23 UNK        -0.2404 
     17 C17        -0.6730  -20.4334  -49.0350 C.3       23 UNK        -0.0398 
     18 CA         -0.8059  -21.6185  -48.0465 C.3       11 UNK         0.1400 
     19 N          -0.2445  -21.3059  -46.7318 N.am      11 UNK        -0.5000 
     20 C           0.0322  -22.2181  -45.7911 C.2       10 UNK         0.5000 
     21 O          -0.1328  -23.4287  -45.9421 O.2       10 UNK        -0.5000 
     22 CA          0.5428  -21.6852  -44.4403 C.3       10 UNK         0.1400 
     23 CB          2.0382  -21.3433  -44.5191 C.3       10 UNK        -0.1800 
     24 N          -0.2076  -20.5194  -43.9691 N.am      10 UNK        -0.5000 
     25 C          -1.5141  -20.5329  -43.6678 C.2       9 UNK         0.5000 
     26 O          -2.2200  -21.5378  -43.7380 O.2       9 UNK        -0.5000 
     27 CA         -2.1554  -19.1944  -43.2628 C.3       9 UNK         0.1400 
     28 CB         -1.8170  -18.8441  -41.8063 C.3       9 UNK        -0.1800 
     29 N          -1.7728  -18.0903  -44.1427 N.am      9 UNK        -0.5000 
     30 C          -2.0384  -18.0390  -45.4566 C.2       8 UNK         0.5000 
     31 O          -2.6554  -18.9098  -46.0682 O.2       8 UNK        -0.5000 
     32 CA         -1.4726  -16.8369  -46.2321 C.3       8 UNK         0.1400 
     33 CB         -2.3148  -15.5829  -45.9581 C.3       8 UNK        -0.1800 
     34 N          -0.0644  -16.5784  -45.9227 N.am      8 UNK        -0.5000 
     35 C           0.9198  -17.4765  -46.0826 C.2       7 UNK         0.5000 
     36 O           0.7565  -18.5961  -46.5650 O.2       7 UNK        -0.5000 
     37 CA          2.3101  -17.0860  -45.5614 C.3       7 UNK         0.1400 
     38 CB          3.0381  -16.1558  -46.5398 C.3       7 UNK        -0.1800 
     39 N           2.2441  -16.4831  -44.2298 N.am      7 UNK        -0.5000 
     40 C           1.8901  -17.1629  -43.1292 C.2       6 UNK         0.5000 
     41 O           1.6166  -18.3631  -43.1223 O.2       6 UNK        -0.5000 
     42 CA          1.7923  -16.3624  -41.8227 C.3       6 UNK         0.1400 
     43 CB          3.1806  -16.1784  -41.1935 C.3       6 UNK        -0.1800 
     44 N           1.1685  -15.0560  -42.0126 N.am      6 UNK        -0.5000 
     45 C          -0.1194  -14.8576  -42.3201 C.2       5 UNK         0.5000 
     46 O          -0.9154  -15.7727  -42.5354 O.2       5 UNK        -0.5000 
     47 CA         -0.5795  -13.3880  -42.4046 C.3       5 UNK         0.1400 
     48 CB         -2.1123  -13.2230  -42.3422 C.3       5 UNK        -0.1800 
     49 N           0.0795  -12.5122  -41.4304 N.am      5 UNK        -0.5000 
     50 C           0.0325  -12.5911  -40.0930 C.2       4 UNK         0.5000 
     51 O          -0.6290  -13.4279  -39.4762 O.2       4 UNK        -0.5000 
     52 CA          0.9090  -11.5751  -39.3282 C.3       4 UNK         0.1400 
     53 CB          0.8623  -11.7754  -37.8023 C.3       4 UNK        -0.1800 
     54 N           2.3040  -11.6470  -39.7672 N.am      4 UNK        -0.5000 
     55 C           2.8087  -11.0669  -40.8633 C.2       3 UNK         0.5000 
     56 O           2.1475  -10.3292  -41.5981 O.2       3 UNK        -0.5000 
     57 CA          4.2806  -11.3798  -41.2176 C.3       3 UNK         0.1400 
     58 CB          4.8579  -12.5978  -40.4626 C.3       3 UNK        -0.1800 
     59 N           4.5021  -11.5450  -42.6594 N.am      3 UNK        -0.5000 
     60 C           3.8486  -12.3631  -43.4968 C.2       2 UNK         0.5000 
     61 O           2.9099  -13.0966  -43.1744 O.2       2 UNK        -0.5000 
     62 CA          4.3697  -12.4054  -44.9366 C.3       2 UNK         0.1400 
     63 CB          5.2955  -13.6202  -45.1270 C.3       2 UNK        -0.1800 
     64 N           3.2365  -12.4621  -45.8564 N.am      2 UNK        -0.5000 
     65 C           3.2769  -12.1220  -47.1502 C.2       1 UNK         0.5000 
     66 O           4.3199  -11.8082  -47.7261 O.2       1 UNK        -0.5000 
     67 C          -2.2595  -22.1284  -47.9621 C.2       11 UNK         0.5000 
     68 O          -2.6255  -23.0126  -48.7367 O.2       11 UNK        -0.5000 
     69 N          -3.0618  -21.5900  -47.0343 N.am      12 UNK        -0.5000 
     70 CA         -4.4345  -22.0334  -46.7797 C.3       12 UNK         0.1400 
     71 CB         -5.1683  -20.9757  -45.9427 C.3       12 UNK        -0.1800 
     72 C          -4.5010  -23.4112  -46.0942 C.2       12 UNK         0.5000 
     73 O          -5.4285  -24.1752  -46.3598 O.2       12 UNK        -0.5000 
     74 N          -3.5178  -23.7063  -45.2337 N.am      13 UNK        -0.5000 
     75 CA         -3.3851  -24.9729  -44.5115 C.3       13 UNK         0.1400 
     76 CB         -2.4537  -24.7629  -43.3069 C.3       13 UNK        -0.1800 
     77 C          -2.8797  -26.1401  -45.3834 C.2       13 UNK         0.5000 
     78 O          -2.9778  -27.2907  -44.9526 O.2       13 UNK        -0.5000 
     79 N          -2.3325  -25.8401  -46.5697 N.am      14 UNK        -0.5000 
     80 CA         -1.8255  -26.8198  -47.5301 C.3       14 UNK         0.1400 
     81 CB         -1.1073  -26.0773  -48.6673 C.3       14 UNK        -0.1800 
     82 C          -2.9406  -27.7182  -48.0995 C.2       14 UNK         0.5000 
     83 O          -4.0779  -27.2701  -48.2620 O.2       14 UNK        -0.5000 
     84 N          -2.5844  -28.9618  -48.4384 N.am      15 UNK        -0.5000 
     85 CA         -3.4737  -29.9545  -49.0423 C.3       15 UNK         0.1400 
     86 CB         -2.9535  -31.3604  -48.6909 C.3       15 UNK        -0.1800 
     87 C          -3.5974  -29.7285  -50.5630 C.2       15 UNK         0.5000 
     88 O          -3.0926  -30.5299  -51.3521 O.2       15 UNK        -0.5000 
     89 N          -4.2413  -28.6205  -50.9450 N.am      16 UNK        -0.5000 
     90 CA         -4.4582  -28.2106  -52.3309 C.3       16 UNK         0.1400 
     91 CB         -3.1862  -27.5983  -52.9509 C.3       16 UNK        -0.1800 
     92 C          -5.7193  -27.3349  -52.4818 C.2       16 UNK         0.5000 
     93 O          -6.6146  -27.7372  -53.2229 O.2       16 UNK        -0.5000 
     94 N          -5.8760  -26.1979  -51.7850 N.am      17 UNK        -0.5000 
     95 CA         -4.8911  -25.4334  -51.0198 C.3       17 UNK         0.1400 
     96 CB         -5.6306  -24.6476  -49.9271 C.3       17 UNK        -0.1800 
     97 C          -4.1241  -24.4686  -51.9361 C.2       17 UNK         0.5000 
     98 O          -4.6660  -24.0031  -52.9404 O.2       17 UNK        -0.5000 
     99 N          -2.8801  -24.1585  -51.5548 N.am      18 UNK        -0.5000 
    100 CA        -1.9730  -23.2823  -52.2990 C.3       18 UNK         0.1400 
    101 CB        -0.5588  -23.4162  -51.7204 C.3       18 UNK        -0.1800 
    102 C         -2.4316  -21.8123  -52.3310 C.2       18 UNK         0.5000 
    103 O         -2.0450  -21.0778  -53.2375 O.2       18 UNK        -0.5000 
    104 N         -3.3038  -21.4213  -51.3911 N.am      19 UNK        -0.5000 
    105 CA        -3.9840  -20.1243  -51.3705 C.3       19 UNK         0.1400 
    106 CB        -4.7756  -19.9906  -50.0613 C.3       19 UNK        -0.1800 
    107 C         -4.9014  -19.8922  -52.5908 C.2       19 UNK         0.5000 
    108 O         -5.1307  -18.7413  -52.9607 O.2       19 UNK        -0.5000 
    109 N         -5.3846  -20.9784  -53.2113 N.am      20 UNK        -0.5000 
    110 CA        -6.2037  -20.9464  -54.4228 C.3       20 UNK         0.1400 
    111 CB        -7.1771  -22.1364  -54.3897 C.3       20 UNK        -0.1800 
    112 C         -5.3659  -20.9643  -55.7185 C.2       20 UNK         0.5000 
    113 O         -5.9427  -20.8199  -56.7970 O.2       20 UNK        -0.5000 
    114 N         -4.0403  -21.1554  -55.6175 N.am      21 UNK        -0.5000 
    115 CA        -3.1361  -21.2400  -56.7694 C.3       21 UNK         0.1400 
    116 CB        -1.8518  -21.9794  -56.3628 C.3       21 UNK        -0.1800 
    117 C         -2.7988  -19.8673  -57.3834 C.2       21 UNK         0.5000 
    118 O         -2.3890  -19.8154  -58.5441 O.2       21 UNK        -0.5000 
    119 N         -2.9677  -18.7884  -56.6077 N.am      22 UNK        -0.5000 
    120 CA        -2.8085  -17.3988  -57.0606 C.3       22 UNK         0.1400 
    121 C         -3.8977  -16.9928  -58.0931 C.2       22 UNK         0.5000 
    122 N         -3.5251  -16.3008  -59.1611 N.am      22 UNK        -0.7600 
    123 O         -5.0833  -17.2593  -57.9095 O.2       22 UNK        -0.5000 
    124 C124       -2.8082  -16.4065  -55.8721 C.3       23 UNK        -0.0398 
    125 S125       -1.3516  -16.5877  -54.7859 S.3       23 UNK        -0.2404 
    126 C126       -2.0927  -17.3348  -53.3040 C.3       23 UNK        -0.0205 
    127 H127       -1.8290  -12.6866  -45.3369 H         1 UNK         0.0600 
    128 H128       -1.6831  -11.3027  -46.4151 H         1 UNK         0.0600 
    129 H129       -0.9294  -11.2564  -44.8175 H         1 UNK         0.0600 
    130 H130        0.3772  -10.8210  -47.3479 H         1 UNK         0.3000 
    131 H131        2.0711  -11.1998  -48.6047 H         1 UNK         0.0600 
    132 H132        1.6197  -14.2006  -48.2847 H         1 UNK         0.0800 
    133 H133        2.6658  -13.4637  -49.4652 H         1 UNK         0.0800 
    134 H134       -0.6883  -14.4890  -48.3906 H         1 UNK         0.0800 
    135 H135       -1.8209  -13.9419  -49.5969 H         1 UNK         0.0800 
    136 H136       -2.1102  -15.1446  -51.7045 H         1 UNK         0.1150 
    137 H137       -0.1897  -18.9449  -52.1803 H         1 UNK         0.1150 
    138 H138        0.8546  -16.4020  -48.8847 H         1 UNK         0.1150 
    139 H139        2.3535  -18.7362  -50.6091 H         1 UNK         0.0800 
    140 H140        1.7978  -18.5602  -48.9660 H         1 UNK         0.0800 
    141 H141       -1.4745  -20.4213  -49.7707 H         1 UNK         0.0800 
    142 H142       -0.7512  -19.4786  -48.5140 H         1 UNK         0.0800 
    143 H143       -0.2333  -22.4621  -48.4375 H         1 UNK         0.0600 
    144 H144       -0.0337  -20.3278  -46.5471 H         1 UNK         0.3000 
    145 H145        0.4161  -22.4803  -43.7028 H         1 UNK         0.0600 
    146 H146        2.4271  -21.0524  -43.5431 H         1 UNK         0.0600 
    147 H147        2.6185  -22.2022  -44.8580 H         1 UNK         0.0600 
    148 H148        2.2284  -20.5233  -45.2121 H         1 UNK         0.0600 
    149 H149        0.3164  -19.6564  -43.8569 H         1 UNK         0.3000 
    150 H150       -3.2382  -19.3130  -43.3373 H         1 UNK         0.0600 
    151 H151       -2.0993  -19.6545  -41.1331 H         1 UNK         0.0600 
    152 H152       -2.3519  -17.9513  -41.4822 H         1 UNK         0.0600 
    153 H153       -0.7506  -18.6610  -41.6726 H         1 UNK         0.0600 
    154 H154       -1.2879  -17.3116  -43.7060 H         1 UNK         0.3000 
    155 H155       -1.5404  -17.0680  -47.2972 H         1 UNK         0.0600 
    156 H156       -3.3715  -15.7712  -46.1519 H         1 UNK         0.0600 
    157 H157       -2.2237  -15.2594  -44.9221 H         1 UNK         0.0600 
    158 H158       -2.0165  -14.7532  -46.5945 H         1 UNK         0.0600 
    159 H159        0.1633  -15.6596  -45.5600 H         1 UNK         0.3000 
    160 H160        2.8940  -18.0062  -45.4885 H         1 UNK         0.0600 
    161 H161        2.6562  -15.1390  -46.4818 H         1 UNK         0.0600 
    162 H162        2.9308  -16.4970  -47.5700 H         1 UNK         0.0600 
    163 H163        4.1058  -16.1279  -46.3271 H         1 UNK         0.0600 
    164 H164        2.4179  -15.4902  -44.1539 H         1 UNK         0.3000 
    165 H165        1.1746  -16.9332  -41.1261 H         1 UNK         0.0600 
    166 H166        3.1121  -15.6700  -40.2317 H         1 UNK         0.0600 
    167 H167        3.6598  -17.1423  -41.0177 H         1 UNK         0.0600 
    168 H168        3.8406  -15.5964  -41.8382 H         1 UNK         0.0600 
    169 H169        1.7809  -14.2478  -41.9863 H         1 UNK         0.3000 
    170 H170       -0.2415  -13.0410  -43.3767 H         1 UNK         0.0600 
    171 H171       -2.5217  -13.5973  -41.4036 H         1 UNK         0.0600 
    172 H172       -2.3997  -12.1764  -42.4409 H         1 UNK         0.0600 
    173 H173       -2.6022  -13.7683  -43.1483 H         1 UNK         0.0600 
    174 H174        0.6905  -11.8030  -41.8221 H         1 UNK         0.3000 
    175 H175        0.5142  -10.5800  -39.5437 H         1 UNK         0.0600 
    176 H176        1.4599  -11.0226  -37.2880 H         1 UNK         0.0600 
    177 H177        1.2380  -12.7575  -37.5124 H         1 UNK         0.0600 
    178 H178       -0.1581  -11.6887  -37.4270 H         1 UNK         0.0600 
    179 H179        2.9034  -12.2608  -39.2347 H         1 UNK         0.3000 
    180 H180        4.8544  -10.5017  -40.9183 H         1 UNK         0.0600 
    181 H181        4.2827  -13.5024  -40.6567 H         1 UNK         0.0600 
    182 H182        4.8726  -12.4320  -39.3848 H         1 UNK         0.0600 
    183 H183        5.8872  -12.7920  -40.7646 H         1 UNK         0.0600 
    184 H184        5.2390  -10.9697  -43.0422 H         1 UNK         0.3000 
    185 H185        4.9324  -11.4908  -45.1358 H         1 UNK         0.0600 
    186 H186        6.1980  -13.5144  -44.5241 H         1 UNK         0.0600 
    187 H187        4.8090  -14.5446  -44.8168 H         1 UNK         0.0600 
    188 H188        5.6106  -13.7338  -46.1640 H         1 UNK         0.0600 
    189 H189        2.3486  -12.7335  -45.4457 H         1 UNK         0.3000 
    190 H190       -2.7276  -20.8058  -46.4807 H         1 UNK         0.3000 
    191 H191       -4.9500  -22.1180  -47.7383 H         1 UNK         0.0600 
    192 H192       -4.6799  -20.8146  -44.9812 H         1 UNK         0.0600 
    193 H193       -6.1973  -21.2777  -45.7440 H         1 UNK         0.0600 
    194 H194       -5.2053  -20.0190  -46.4641 H         1 UNK         0.0600 
    195 H195       -2.8356  -22.9884  -45.0113 H         1 UNK         0.3000 
    196 H196       -4.3689  -25.2564  -44.1321 H         1 UNK         0.0600 
    197 H197       -2.3397  -25.6821  -42.7311 H         1 UNK         0.0600 
    198 H198       -2.8498  -24.0055  -42.6303 H         1 UNK         0.0600 
    199 H199       -1.4588  -24.4450  -43.6207 H         1 UNK         0.0600 
    200 H200       -2.2944  -24.8692  -46.8452 H         1 UNK         0.3000 
    201 H201       -1.0992  -27.4483  -47.0107 H         1 UNK         0.0600 
    202 H202       -0.3233  -25.4242  -48.2826 H         1 UNK         0.0600 
    203 H203       -1.8003  -25.4653  -49.2420 H         1 UNK         0.0600 
    204 H204       -0.6384  -26.7776  -49.3595 H         1 UNK         0.0600 
    205 H205       -1.6231  -29.2461  -48.3159 H         1 UNK         0.3000 
    206 H206       -4.4726  -29.8561  -48.6114 H         1 UNK         0.0600 
    207 H207       -2.9342  -31.5138  -47.6117 H         1 UNK         0.0600 
    208 H208       -3.5967  -32.1322  -49.1155 H         1 UNK         0.0600 
    209 H209       -1.9446  -31.5265  -49.0706 H         1 UNK         0.0600 
    210 H210       -4.6309  -28.0198  -50.2268 H         1 UNK         0.3000 
    211 H211       -4.6759  -29.1138  -52.9060 H         1 UNK         0.0600 
    212 H212       -2.6691  -26.9327  -52.2619 H         1 UNK         0.0600 
    213 H213       -3.4135  -27.0361  -53.8577 H         1 UNK         0.0600 
    214 H214       -2.4792  -28.3807  -53.2269 H         1 UNK         0.0600 
    215 H215       -6.7363  -25.6959  -51.9444 H         1 UNK         0.3000 
    216 H216       -4.1718  -26.0920  -50.5406 H         1 UNK         0.0600 
    217 H217       -6.1809  -25.3173  -49.2657 H         1 UNK         0.0600 
    218 H218       -4.9321  -24.0924  -49.3027 H         1 UNK         0.0600 
    219 H219       -6.3385  -23.9318  -50.3471 H         1 UNK         0.0600 
    220 H220       -2.5400  -24.4903  -50.6631 H         1 UNK         0.3000 
    221 H221       -1.9463  -23.6285  -53.3343 H         1 UNK         0.0600 
    222 H222       -0.5345  -23.1667  -50.6611 H         1 UNK         0.0600 
    223 H223       -0.1834  -24.4336  -51.8313 H         1 UNK         0.0600 
    224 H224        0.1404  -22.7538  -52.2327 H         1 UNK         0.0600 
    225 H225       -3.5447  -22.0822  -50.6645 H         1 UNK         0.3000 
    226 H226       -3.2199  -19.3452  -51.3837 H         1 UNK         0.0600 
    227 H227       -4.1124  -20.0006  -49.1971 H         1 UNK         0.0600 
    228 H228       -5.3247  -19.0486  -50.0300 H         1 UNK         0.0600 
    229 H229       -5.4998  -20.7976  -49.9435 H         1 UNK         0.0600 
    230 H230       -5.1289  -21.8994  -52.8742 H         1 UNK         0.3000 
    231 H231       -6.7985  -20.0307  -54.4341 H         1 UNK         0.0600 
    232 H232       -7.8713  -22.0966  -55.2300 H         1 UNK         0.0600 
    233 H233       -7.7734  -22.1350  -53.4772 H         1 UNK         0.0600 
    234 H234       -6.6519  -23.0901  -54.4468 H         1 UNK         0.0600 
    235 H235       -3.6154  -21.2366  -54.7022 H         1 UNK         0.3000 
    236 H236       -3.6257  -21.8330  -57.5449 H         1 UNK         0.0600 
    237 H237       -2.0749  -22.9343  -55.8868 H         1 UNK         0.0600 
    238 H238       -1.2339  -22.1885  -57.2369 H         1 UNK         0.0600 
    239 H239       -1.2458  -21.3896  -55.6750 H         1 UNK         0.0600 
    240 H240       -3.3262  -18.9211  -55.6747 H         1 UNK         0.3000 
    241 H241       -1.8371  -17.3294  -57.5547 H         1 UNK         0.0600 
    242 H242       -2.5588  -16.0649  -59.3290 H         1 UNK         0.3800 
    243 H243       -4.2248  -16.0174  -59.8300 H         1 UNK         0.3800 
    244 H244       -2.7920  -15.3789  -56.2403 H         1 UNK         0.0800 
    245 H245       -3.7305  -16.4991  -55.2961 H         1 UNK         0.0800 
    246 H246       -3.0910  -16.9287  -53.1365 H         1 UNK         0.0800 
    247 H247       -2.2154  -18.4052  -53.4703 H         1 UNK         0.0800 
@<TRIPOS>BOND
     1    1    2 1    
     2    1  127 1    
     3    1  128 1    
     4    1  129 1    
     5    2    3 2    
     6    2    4 am   BACKBONE|DICT|INTERRES
     7    4    5 1    
     8    4  130 1    
     9    5    6 1    
    10    5   65 1    
    11    5  131 1    
    12    6    7 1    
    13    6  132 1    
    14    6  133 1    
    15    7    8 1    
    16    8    9 1    
    17    8  134 1    
    18    8  135 1    
    19    9   10 ar   
    20    9   14 ar   
    21   10   11 ar   
    22   10  136 1    
    23   11   12 ar   
    24   11  126 1    
    25   12   13 ar   
    26   12  137 1    
    27   13   14 ar   
    28   13   15 1    
    29   14  138 1    
    30   15   16 1    
    31   15  139 1    
    32   15  140 1    
    33   16   17 1    
    34   17   18 1    
    35   17  141 1    
    36   17  142 1    
    37   18   19 1    
    38   18   67 1    
    39   18  143 1    
    40   19   20 am   BACKBONE|DICT|INTERRES
    41   19  144 1    
    42   20   21 2    
    43   20   22 1    
    44   22   23 1    
    45   22   24 1    
    46   22  145 1    
    47   23  146 1    
    48   23  147 1    
    49   23  148 1    
    50   24   25 am   BACKBONE|DICT|INTERRES
    51   24  149 1    
    52   25   26 2    
    53   25   27 1    
    54   27   28 1    
    55   27   29 1    
    56   27  150 1    
    57   28  151 1    
    58   28  152 1    
    59   28  153 1    
    60   29   30 am   BACKBONE|DICT|INTERRES
    61   29  154 1    
    62   30   31 2    
    63   30   32 1    
    64   32   33 1    
    65   32   34 1    
    66   32  155 1    
    67   33  156 1    
    68   33  157 1    
    69   33  158 1    
    70   34   35 am   BACKBONE|DICT|INTERRES
    71   34  159 1    
    72   35   36 2    
    73   35   37 1    
    74   37   38 1    
    75   37   39 1    
    76   37  160 1    
    77   38  161 1    
    78   38  162 1    
    79   38  163 1    
    80   39   40 am   BACKBONE|DICT|INTERRES
    81   39  164 1    
    82   40   41 2    
    83   40   42 1    
    84   42   43 1    
    85   42   44 1    
    86   42  165 1    
    87   43  166 1    
    88   43  167 1    
    89   43  168 1    
    90   44   45 am   BACKBONE|DICT|INTERRES
    91   44  169 1    
    92   45   46 2    
    93   45   47 1    
    94   47   48 1    
    95   47   49 1    
    96   47  170 1    
    97   48  171 1    
    98   48  172 1    
    99   48  173 1    
   100   49   50 am   BACKBONE|DICT|INTERRES
   101   49  174 1    
   102   50   51 2    
   103   50   52 1    
   104   52   53 1    
   105   52   54 1    
   106   52  175 1    
   107   53  176 1    
   108   53  177 1    
   109   53  178 1    
   110   54   55 am   BACKBONE|DICT|INTERRES
   111   54  179 1    
   112   55   56 2    
   113   55   57 1    
   114   57   58 1    
   115   57   59 1    
   116   57  180 1    
   117   58  181 1    
   118   58  182 1    
   119   58  183 1    
   120   59   60 am   BACKBONE|DICT|INTERRES
   121   59  184 1    
   122   60   61 2    
   123   60   62 1    
   124   62   63 1    
   125   62   64 1    
   126   62  185 1    
   127   63  186 1    
   128   63  187 1    
   129   63  188 1    
   130   64   65 am   BACKBONE|DICT|INTERRES
   131   64  189 1    
   132   65   66 2    
   133   67   68 2    
   134   67   69 am   BACKBONE|DICT|INTERRES
   135   69   70 1    
   136   69  190 1    
   137   70   71 1    
   138   70   72 1    
   139   70  191 1    
   140   71  192 1    
   141   71  193 1    
   142   71  194 1    
   143   72   73 2    
   144   72   74 am   BACKBONE|DICT|INTERRES
   145   74   75 1    
   146   74  195 1    
   147   75   76 1    
   148   75   77 1    
   149   75  196 1    
   150   76  197 1    
   151   76  198 1    
   152   76  199 1    
   153   77   78 2    
   154   77   79 am   BACKBONE|DICT|INTERRES
   155   79   80 1    
   156   79  200 1    
   157   80   81 1    
   158   80   82 1    
   159   80  201 1    
   160   81  202 1    
   161   81  203 1    
   162   81  204 1    
   163   82   83 2    
   164   82   84 am   BACKBONE|DICT|INTERRES
   165   84   85 1    
   166   84  205 1    
   167   85   86 1    
   168   85   87 1    
   169   85  206 1    
   170   86  207 1    
   171   86  208 1    
   172   86  209 1    
   173   87   88 2    
   174   87   89 am   BACKBONE|DICT|INTERRES
   175   89   90 1    
   176   89  210 1    
   177   90   91 1    
   178   90   92 1    
   179   90  211 1    
   180   91  212 1    
   181   91  213 1    
   182   91  214 1    
   183   92   93 2    
   184   92   94 am   BACKBONE|DICT|INTERRES
   185   94   95 1    
   186   94  215 1    
   187   95   96 1    
   188   95   97 1    
   189   95  216 1    
   190   96  217 1    
   191   96  218 1    
   192   96  219 1    
   193   97   98 2    
   194   97   99 am   BACKBONE|DICT|INTERRES
   195   99  100 1    
   196   99  220 1    
   197  100  101 1    
   198  100  102 1    
   199  100  221 1    
   200  101  222 1    
   201  101  223 1    
   202  101  224 1    
   203  102  103 2    
   204  102  104 am   BACKBONE|DICT|INTERRES
   205  104  105 1    
   206  104  225 1    
   207  105  106 1    
   208  105  107 1    
   209  105  226 1    
   210  106  227 1    
   211  106  228 1    
   212  106  229 1    
   213  107  108 2    
   214  107  109 am   BACKBONE|DICT|INTERRES
   215  109  110 1    
   216  109  230 1    
   217  110  111 1    
   218  110  112 1    
   219  110  231 1    
   220  111  232 1    
   221  111  233 1    
   222  111  234 1    
   223  112  113 2    
   224  112  114 am   BACKBONE|DICT|INTERRES
   225  114  115 1    
   226  114  235 1    
   227  115  116 1    
   228  115  117 1    
   229  115  236 1    
   230  116  237 1    
   231  116  238 1    
   232  116  239 1    
   233  117  118 2    
   234  117  119 am   BACKBONE|DICT|INTERRES
   235  119  120 1    
   236  119  240 1    
   237  120  121 1    
   238  120  124 1    
   239  120  241 1    
   240  121  122 am   BACKBONE|DICT|INTERRES
   241  121  123 2    
   242  122  242 1    
   243  122  243 1    
   244  124  125 1    
   245  124  244 1    
   246  124  245 1    
   247  125  126 1    
   248  126  246 1    
   249  126  247 1    
@<TRIPOS>SUBSTRUCTURE
     1 UNK         1 GROUP             0       ****    0 ROOT    
