@<TRIPOS>MOLECULE
3R540
247   249    1
SMALL
USER_CHARGES


@<TRIPOS>ATOM
      1 CA         -2.9143  -20.6163  -48.5327 C.3       0 UNK        -0.1800 
      2 C          -2.5657  -19.2925  -47.8762 C.2       0 UNK         0.5000 
      3 O          -3.3596  -18.7655  -47.0967 O.2       0 UNK        -0.5000 
      4 N          -1.3753  -18.7516  -48.1673 N.am      1 UNK        -0.5000 
      5 CA         -0.8947  -17.4834  -47.6069 C.3       1 UNK         0.1400 
      6 C6          0.3434  -16.9224  -48.3417 C.3       23 UNK        -0.0398 
      7 S7         -0.0715  -16.3518  -50.0231 S.3       23 UNK        -0.2404 
      8 C8          1.4754  -16.6099  -50.9459 C.3       23 UNK        -0.0205 
      9 C9          1.8576  -18.0784  -51.0030 C.ar      23 UNK        -0.0193 
     10 C10         1.1321  -18.9675  -51.7993 C.ar      23 UNK        -0.1150 
     11 C11         1.4494  -20.3286  -51.8103 C.ar      23 UNK        -0.0193 
     12 C12         2.4894  -20.7985  -51.0007 C.ar      23 UNK        -0.1150 
     13 C13         3.2309  -19.9144  -50.2093 C.ar      23 UNK        -0.0193 
     14 C14         2.9228  -18.5517  -50.2355 C.ar      23 UNK        -0.1150 
     15 C15         4.3471  -20.4365  -49.3105 C.3       23 UNK        -0.0205 
     16 S16         4.2725  -19.7951  -47.5987 S.3       23 UNK        -0.2404 
     17 C17         2.5600  -20.2033  -47.1138 C.3       23 UNK        -0.0398 
     18 CA          2.4102  -21.6683  -46.6427 C.3       11 UNK         0.1400 
     19 N           3.2236  -21.9328  -45.4500 N.am      11 UNK        -0.5000 
     20 C           3.7834  -23.1069  -45.1285 C.2       10 UNK         0.5000 
     21 O           3.6152  -24.1350  -45.7843 O.2       10 UNK        -0.5000 
     22 CA          4.6535  -23.1585  -43.8554 C.3       10 UNK         0.1400 
     23 CB          6.1386  -23.0144  -44.2206 C.3       10 UNK        -0.1800 
     24 N           4.3099  -22.1343  -42.8685 N.am      10 UNK        -0.5000 
     25 C           3.1520  -22.0667  -42.1980 C.2       9 UNK         0.5000 
     26 O           2.2709  -22.9228  -42.2754 O.2       9 UNK        -0.5000 
     27 CA          2.9260  -20.8297  -41.3031 C.3       9 UNK         0.1400 
     28 CB          3.1471  -21.1955  -39.8273 C.3       9 UNK        -0.1800 
     29 N           3.7427  -19.6514  -41.6227 N.am      9 UNK        -0.5000 
     30 C           3.8036  -19.0140  -42.8005 C.2       8 UNK         0.5000 
     31 O           3.2551  -19.4135  -43.8298 O.2       8 UNK        -0.5000 
     32 CA          4.6832  -17.7494  -42.8289 C.3       8 UNK         0.1400 
     33 CB          6.1672  -18.1401  -42.9219 C.3       8 UNK        -0.1800 
     34 N           4.3711  -16.8561  -43.9446 N.am      8 UNK        -0.5000 
     35 C           3.2148  -16.2069  -44.1282 C.2       7 UNK         0.5000 
     36 O           2.2665  -16.2437  -43.3386 O.2       7 UNK        -0.5000 
     37 CA          3.1217  -15.3647  -45.4110 C.3       7 UNK         0.1400 
     38 CB          3.3573  -16.2194  -46.6710 C.3       7 UNK        -0.1800 
     39 N           1.8123  -14.7219  -45.4821 N.am      7 UNK        -0.5000 
     40 C           1.5522  -13.5417  -46.0586 C.2       6 UNK         0.5000 
     41 O           2.4054  -12.8692  -46.6387 O.2       6 UNK        -0.5000 
     42 CA          0.1072  -13.0106  -45.9816 C.3       6 UNK         0.1400 
     43 CB         -0.5837  -13.1163  -47.3514 C.3       6 UNK        -0.1800 
     44 N          -0.6984  -13.7424  -45.0070 N.am      6 UNK        -0.5000 
     45 C          -1.0445  -13.3155  -43.7882 C.2       5 UNK         0.5000 
     46 O          -0.7224  -12.2181  -43.3289 O.2       5 UNK        -0.5000 
     47 CA         -1.8977  -14.2971  -42.9548 C.3       5 UNK         0.1400 
     48 CB         -2.5910  -13.6317  -41.7480 C.3       5 UNK        -0.1800 
     49 N          -2.8628  -15.0449  -43.7707 N.am      5 UNK        -0.5000 
     50 C          -3.8879  -14.5576  -44.4889 C.2       4 UNK         0.5000 
     51 O          -4.2010  -13.3671  -44.5177 O.2       4 UNK        -0.5000 
     52 CA         -4.6974  -15.5627  -45.3382 C.3       4 UNK         0.1400 
     53 CB         -4.4258  -15.3409  -46.8337 C.3       4 UNK        -0.1800 
     54 N          -4.4191  -16.9629  -45.0087 N.am      4 UNK        -0.5000 
     55 C          -4.8704  -17.5883  -43.9126 C.2       3 UNK         0.5000 
     56 O          -5.6386  -17.0761  -43.0985 O.2       3 UNK        -0.5000 
     57 CA         -4.3384  -19.0098  -43.6639 C.3       3 UNK         0.1400 
     58 CB         -5.1946  -20.0592  -44.3887 C.3       3 UNK        -0.1800 
     59 N          -2.9426  -19.1561  -44.0761 N.am      3 UNK        -0.5000 
     60 C          -1.8940  -18.6375  -43.4216 C.2       2 UNK         0.5000 
     61 O          -1.9887  -17.9644  -42.3960 O.2       2 UNK        -0.5000 
     62 CA         -0.5083  -18.9088  -44.0337 C.3       2 UNK         0.1400 
     63 CB         -0.0700  -20.3319  -43.6686 C.3       2 UNK        -0.1800 
     64 N          -0.5048  -18.7307  -45.4903 N.am      2 UNK        -0.5000 
     65 C          -0.6706  -17.5360  -46.0801 C.2       1 UNK         0.5000 
     66 O          -0.7049  -16.4792  -45.4522 O.2       1 UNK        -0.5000 
     67 C           0.9278  -22.0628  -46.4461 C.2       11 UNK         0.5000 
     68 O           0.0306  -21.3813  -46.9491 O.2       11 UNK        -0.5000 
     69 N           0.6772  -23.1477  -45.7058 N.am      12 UNK        -0.5000 
     70 CA         -0.6450  -23.7058  -45.4352 C.3       12 UNK         0.1400 
     71 CB         -0.6310  -24.3522  -44.0390 C.3       12 UNK        -0.1800 
     72 C          -1.0398  -24.6883  -46.5516 C.2       12 UNK         0.5000 
     73 O          -1.1907  -25.8858  -46.3032 O.2       12 UNK        -0.5000 
     74 N          -1.1631  -24.1615  -47.7779 N.am      13 UNK        -0.5000 
     75 CA         -1.5255  -24.9167  -48.9811 C.3       13 UNK         0.1400 
     76 CB         -1.3484  -24.0147  -50.2126 C.3       13 UNK        -0.1800 
     77 C          -2.9550  -25.4900  -48.9225 C.2       13 UNK         0.5000 
     78 O          -3.1852  -26.6038  -49.3943 O.2       13 UNK        -0.5000 
     79 N          -3.8635  -24.7235  -48.3111 N.am      14 UNK        -0.5000 
     80 CA         -5.2506  -25.0407  -47.9922 C.3       14 UNK         0.1400 
     81 CB         -6.0923  -25.2939  -49.2661 C.3       14 UNK        -0.1800 
     82 C          -5.7737  -23.8672  -47.1423 C.2       14 UNK         0.5000 
     83 O          -4.9922  -23.2553  -46.4074 O.2       14 UNK        -0.5000 
     84 N          -7.0656  -23.5449  -47.2812 N.am      15 UNK        -0.5000 
     85 CA         -7.6843  -22.3189  -46.7759 C.3       15 UNK         0.1400 
     86 CB         -9.2096  -22.4525  -46.9191 C.3       15 UNK        -0.1800 
     87 C          -7.1744  -21.0692  -47.5246 C.2       15 UNK         0.5000 
     88 O          -6.5119  -21.1923  -48.5574 O.2       15 UNK        -0.5000 
     89 N          -7.5309  -19.8832  -47.0112 N.am      16 UNK        -0.5000 
     90 CA         -7.0831  -18.5641  -47.4809 C.3       16 UNK         0.1400 
     91 CB         -7.7541  -17.4797  -46.6247 C.3       16 UNK        -0.1800 
     92 C          -7.3011  -18.2743  -48.9809 C.2       16 UNK         0.5000 
     93 O          -6.5777  -17.4566  -49.5460 O.2       16 UNK        -0.5000 
     94 N          -8.2543  -18.9709  -49.6152 N.am      17 UNK        -0.5000 
     95 CA         -8.4934  -18.9447  -51.0600 C.3       17 UNK         0.1400 
     96 CB         -9.7425  -19.7814  -51.3737 C.3       17 UNK        -0.1800 
     97 C          -7.2931  -19.4349  -51.8986 C.2       17 UNK         0.5000 
     98 O          -7.1120  -18.9647  -53.0225 O.2       17 UNK        -0.5000 
     99 N          -6.4700  -20.3351  -51.3380 N.am      18 UNK        -0.5000 
    100 CA        -5.2582  -20.8555  -51.9763 C.3       18 UNK         0.1400 
    101 CB        -4.8909  -22.2218  -51.3760 C.3       18 UNK        -0.1800 
    102 C         -4.0698  -19.8733  -51.9515 C.2       18 UNK         0.5000 
    103 O         -3.0417  -20.1706  -52.5569 O.2       18 UNK        -0.5000 
    104 N         -4.2242  -18.6979  -51.3216 N.am      19 UNK        -0.5000 
    105 CA        -3.2621  -17.5927  -51.3983 C.3       19 UNK         0.1400 
    106 CB        -3.6703  -16.4963  -50.4034 C.3       19 UNK        -0.1800 
    107 C         -3.1255  -17.0035  -52.8197 C.2       19 UNK         0.5000 
    108 O         -2.1100  -16.3800  -53.1257 O.2       19 UNK        -0.5000 
    109 N         -4.1429  -17.2225  -53.6660 N.am      20 UNK        -0.5000 
    110 CA        -4.1459  -16.8715  -55.0855 C.3       20 UNK         0.1400 
    111 CB        -5.6032  -16.8152  -55.5699 C.3       20 UNK        -0.1800 
    112 C         -3.3240  -17.8438  -55.9593 C.2       20 UNK         0.5000 
    113 O         -3.0303  -17.5076  -57.1079 O.2       20 UNK        -0.5000 
    114 N         -2.9817  -19.0268  -55.4281 N.am      21 UNK        -0.5000 
    115 CA        -2.1417  -20.0241  -56.0912 C.3       21 UNK         0.1400 
    116 CB        -2.5056  -21.4203  -55.5522 C.3       21 UNK        -0.1800 
    117 C         -0.6432  -19.7155  -55.8951 C.2       21 UNK         0.5000 
    118 O         -0.2863  -18.7353  -55.2379 O.2       21 UNK        -0.5000 
    119 N          0.2078  -20.5760  -56.4683 N.am      22 UNK        -0.5000 
    120 CA         1.6819  -20.5203  -56.4014 C.3       22 UNK         0.1400 
    121 C          2.3308  -19.3715  -57.2353 C.2       22 UNK         0.5000 
    122 N          1.6036  -18.6965  -58.1172 N.am      22 UNK        -0.7600 
    123 O          3.5239  -19.1074  -57.1117 O.2       22 UNK        -0.5000 
    124 C124        2.2461  -20.5820  -54.9515 C.3       23 UNK        -0.0398 
    125 S125        1.6788  -22.0394  -54.0028 S.3       23 UNK        -0.2404 
    126 C126        0.6582  -21.2869  -52.6907 C.3       23 UNK        -0.0205 
    127 H127       -3.9318  -20.5678  -48.9151 H         1 UNK         0.0600 
    128 H128       -2.8608  -21.4239  -47.8031 H         1 UNK         0.0600 
    129 H129       -2.2439  -20.8446  -49.3612 H         1 UNK         0.0600 
    130 H130       -0.7492  -19.2278  -48.8004 H         1 UNK         0.3000 
    131 H131       -1.6979  -16.7605  -47.7521 H         1 UNK         0.0600 
    132 H132        1.1331  -17.6705  -48.3715 H         1 UNK         0.0800 
    133 H133        0.7517  -16.0598  -47.8157 H         1 UNK         0.0800 
    134 H134        1.3472  -16.2319  -51.9612 H         1 UNK         0.0800 
    135 H135        2.2692  -16.0145  -50.4920 H         1 UNK         0.0800 
    136 H136        0.3147  -18.5974  -52.4039 H         1 UNK         0.1150 
    137 H137        2.7232  -21.8539  -50.9964 H         1 UNK         0.1150 
    138 H138        3.4881  -17.8640  -49.6222 H         1 UNK         0.1150 
    139 H139        4.3311  -21.5267  -49.2731 H         1 UNK         0.0800 
    140 H140        5.3067  -20.1584  -49.7476 H         1 UNK         0.0800 
    141 H141        1.8950  -19.9883  -47.9496 H         1 UNK         0.0800 
    142 H142        2.2611  -19.5205  -46.3175 H         1 UNK         0.0800 
    143 H143        2.7711  -22.3049  -47.4530 H         1 UNK         0.0600 
    144 H144        3.3738  -21.1345  -44.8398 H         1 UNK         0.3000 
    145 H145        4.5049  -24.1369  -43.3938 H         1 UNK         0.0600 
    146 H146        6.7743  -23.1222  -43.3415 H         1 UNK         0.0600 
    147 H147        6.4416  -23.7810  -44.9351 H         1 UNK         0.0600 
    148 H148        6.3489  -22.0437  -44.6719 H         1 UNK         0.0600 
    149 H149        4.9724  -21.3835  -42.7449 H         1 UNK         0.3000 
    150 H150        1.8832  -20.5358  -41.4217 H         1 UNK         0.0600 
    151 H151        4.1867  -21.4608  -39.6311 H         1 UNK         0.0600 
    152 H152        2.5307  -22.0477  -39.5374 H         1 UNK         0.0600 
    153 H153        2.8806  -20.3677  -39.1698 H         1 UNK         0.0600 
    154 H154        4.2587  -19.2619  -40.8468 H         1 UNK         0.3000 
    155 H155        4.5195  -17.1966  -41.9016 H         1 UNK         0.0600 
    156 H156        6.3800  -18.6921  -43.8387 H         1 UNK         0.0600 
    157 H157        6.4648  -18.7707  -42.0832 H         1 UNK         0.0600 
    158 H158        6.8094  -17.2593  -42.9041 H         1 UNK         0.0600 
    159 H159        5.0783  -16.7884  -44.6610 H         1 UNK         0.3000 
    160 H160        3.8946  -14.5958  -45.3495 H         1 UNK         0.0600 
    161 H161        2.7049  -17.0916  -46.6836 H         1 UNK         0.0600 
    162 H162        4.3836  -16.5845  -46.7169 H         1 UNK         0.0600 
    163 H163        3.1835  -15.6485  -47.5832 H         1 UNK         0.0600 
    164 H164        1.0767  -15.2033  -44.9772 H         1 UNK         0.3000 
    165 H165        0.1629  -11.9549  -45.7088 H         1 UNK         0.0600 
    166 H166       -0.0090  -12.6045  -48.1244 H         1 UNK         0.0600 
    167 H167       -0.7074  -14.1528  -47.6643 H         1 UNK         0.0600 
    168 H168       -1.5729  -12.6588  -47.3260 H         1 UNK         0.0600 
    169 H169       -0.9473  -14.6966  -45.2587 H         1 UNK         0.3000 
    170 H170       -1.2007  -15.0394  -42.5626 H         1 UNK         0.0600 
    171 H171       -1.8575  -13.2020  -41.0649 H         1 UNK         0.0600 
    172 H172       -3.2603  -12.8278  -42.0554 H         1 UNK         0.0600 
    173 H173       -3.1749  -14.3570  -41.1812 H         1 UNK         0.0600 
    174 H174       -2.6857  -16.0378  -43.8347 H         1 UNK         0.3000 
    175 H175       -5.7564  -15.3701  -45.1543 H         1 UNK         0.0600 
    176 H176       -4.9615  -16.0646  -47.4479 H         1 UNK         0.0600 
    177 H177       -4.7508  -14.3476  -47.1452 H         1 UNK         0.0600 
    178 H178       -3.3646  -15.4201  -47.0636 H         1 UNK         0.0600 
    179 H179       -3.8512  -17.4897  -45.6661 H         1 UNK         0.3000 
    180 H180       -4.4030  -19.2038  -42.5910 H         1 UNK         0.0600 
    181 H181       -5.1109  -19.9684  -45.4712 H         1 UNK         0.0600 
    182 H182       -6.2484  -19.9553  -44.1279 H         1 UNK         0.0600 
    183 H183       -4.8906  -21.0707  -44.1189 H         1 UNK         0.0600 
    184 H184       -2.7833  -19.6325  -44.9524 H         1 UNK         0.3000 
    185 H185        0.2050  -18.2072  -43.5953 H         1 UNK         0.0600 
    186 H186        0.9457  -20.5345  -43.9999 H         1 UNK         0.0600 
    187 H187       -0.0973  -20.4831  -42.5896 H         1 UNK         0.0600 
    188 H188       -0.7284  -21.0778  -44.1102 H         1 UNK         0.0600 
    189 H189       -0.4843  -19.5672  -46.0637 H         1 UNK         0.3000 
    190 H190        1.4683  -23.6784  -45.3650 H         1 UNK         0.3000 
    191 H191       -1.3938  -22.9112  -45.4261 H         1 UNK         0.0600 
    192 H192        0.1037  -25.1556  -43.9726 H         1 UNK         0.0600 
    193 H193       -1.6064  -24.7731  -43.7923 H         1 UNK         0.0600 
    194 H194       -0.3903  -23.6179  -43.2698 H         1 UNK         0.0600 
    195 H195       -0.9797  -23.1727  -47.8907 H         1 UNK         0.3000 
    196 H196       -0.8339  -25.7571  -49.0708 H         1 UNK         0.0600 
    197 H197       -1.5761  -24.5579  -51.1306 H         1 UNK         0.0600 
    198 H198       -0.3216  -23.6579  -50.2922 H         1 UNK         0.0600 
    199 H199       -2.0054  -23.1456  -50.1756 H         1 UNK         0.0600 
    200 H200       -3.5595  -23.8484  -47.9033 H         1 UNK         0.3000 
    201 H201       -5.2624  -25.9358  -47.3682 H         1 UNK         0.0600 
    202 H202       -7.0983  -25.6300  -49.0137 H         1 UNK         0.0600 
    203 H203       -6.1861  -24.3920  -49.8691 H         1 UNK         0.0600 
    204 H204       -5.6614  -26.0699  -49.8971 H         1 UNK         0.0600 
    205 H205       -7.6187  -24.0819  -47.9321 H         1 UNK         0.3000 
    206 H206       -7.4317  -22.2119  -45.7190 H         1 UNK         0.0600 
    207 H207       -9.5785  -23.3331  -46.3927 H         1 UNK         0.0600 
    208 H208       -9.7266  -21.5893  -46.4986 H         1 UNK         0.0600 
    209 H209       -9.5097  -22.5376  -47.9645 H         1 UNK         0.0600 
    210 H210       -8.1109  -19.8760  -46.1850 H         1 UNK         0.3000 
    211 H211       -6.0070  -18.5124  -47.3086 H         1 UNK         0.0600 
    212 H212       -8.8403  -17.5114  -46.7169 H         1 UNK         0.0600 
    213 H213       -7.4286  -16.4834  -46.9265 H         1 UNK         0.0600 
    214 H214       -7.5022  -17.5951  -45.5705 H         1 UNK         0.0600 
    215 H215       -8.7951  -19.6313  -49.0775 H         1 UNK         0.3000 
    216 H216       -8.6918  -17.9097  -51.3459 H         1 UNK         0.0600 
    217 H217       -9.9658  -19.7650  -52.4413 H         1 UNK         0.0600 
    218 H218      -10.6188  -19.3936  -50.8538 H         1 UNK         0.0600 
    219 H219       -9.6114  -20.8241  -51.0814 H         1 UNK         0.0600 
    220 H220       -6.6429  -20.6438  -50.3839 H         1 UNK         0.3000 
    221 H221       -5.4794  -21.0256  -53.0322 H         1 UNK         0.0600 
    222 H222       -4.7565  -22.1801  -50.2966 H         1 UNK         0.0600 
    223 H223       -5.6714  -22.9512  -51.5883 H         1 UNK         0.0600 
    224 H224       -3.9672  -22.6098  -51.8073 H         1 UNK         0.0600 
    225 H225       -5.0924  -18.5057  -50.8366 H         1 UNK         0.3000 
    226 H226       -2.2853  -17.9821  -51.1060 H         1 UNK         0.0600 
    227 H227       -2.9429  -15.6846  -50.3905 H         1 UNK         0.0600 
    228 H228       -4.6351  -16.0592  -50.6613 H         1 UNK         0.0600 
    229 H229       -3.7369  -16.8899  -49.3899 H         1 UNK         0.0600 
    230 H230       -4.9505  -17.7285  -53.3279 H         1 UNK         0.3000 
    231 H231       -3.7090  -15.8774  -55.2009 H         1 UNK         0.0600 
    232 H232       -6.0946  -17.7848  -55.4782 H         1 UNK         0.0600 
    233 H233       -5.6571  -16.5172  -56.6178 H         1 UNK         0.0600 
    234 H234       -6.1823  -16.0907  -54.9969 H         1 UNK         0.0600 
    235 H235       -3.1769  -19.1993  -54.4498 H         1 UNK         0.3000 
    236 H236       -2.3517  -20.0093  -57.1627 H         1 UNK         0.0600 
    237 H237       -2.0625  -22.2063  -56.1641 H         1 UNK         0.0600 
    238 H238       -2.1499  -21.5685  -54.5328 H         1 UNK         0.0600 
    239 H239       -3.5839  -21.5806  -55.5577 H         1 UNK         0.0600 
    240 H240       -0.1677  -21.3511  -56.9954 H         1 UNK         0.3000 
    241 H241        2.0162  -21.4290  -56.9029 H         1 UNK         0.0600 
    242 H242        2.0351  -17.9648  -58.6600 H         1 UNK         0.3800 
    243 H243        0.6248  -18.9007  -58.2393 H         1 UNK         0.3800 
    244 H244        2.0112  -19.6637  -54.4143 H         1 UNK         0.0800 
    245 H245        3.3356  -20.6337  -54.9744 H         1 UNK         0.0800 
    246 H246       -0.1950  -20.7803  -53.1437 H         1 UNK         0.0800 
    247 H247        0.2424  -22.0797  -52.0691 H         1 UNK         0.0800 
@<TRIPOS>BOND
     1    1    2 1    
     2    1  127 1    
     3    1  128 1    
     4    1  129 1    
     5    2    3 2    
     6    2    4 am   BACKBONE|DICT|INTERRES
     7    4    5 1    
     8    4  130 1    
     9    5    6 1    
    10    5   65 1    
    11    5  131 1    
    12    6    7 1    
    13    6  132 1    
    14    6  133 1    
    15    7    8 1    
    16    8    9 1    
    17    8  134 1    
    18    8  135 1    
    19    9   10 ar   
    20    9   14 ar   
    21   10   11 ar   
    22   10  136 1    
    23   11   12 ar   
    24   11  126 1    
    25   12   13 ar   
    26   12  137 1    
    27   13   14 ar   
    28   13   15 1    
    29   14  138 1    
    30   15   16 1    
    31   15  139 1    
    32   15  140 1    
    33   16   17 1    
    34   17   18 1    
    35   17  141 1    
    36   17  142 1    
    37   18   19 1    
    38   18   67 1    
    39   18  143 1    
    40   19   20 am   BACKBONE|DICT|INTERRES
    41   19  144 1    
    42   20   21 2    
    43   20   22 1    
    44   22   23 1    
    45   22   24 1    
    46   22  145 1    
    47   23  146 1    
    48   23  147 1    
    49   23  148 1    
    50   24   25 am   BACKBONE|DICT|INTERRES
    51   24  149 1    
    52   25   26 2    
    53   25   27 1    
    54   27   28 1    
    55   27   29 1    
    56   27  150 1    
    57   28  151 1    
    58   28  152 1    
    59   28  153 1    
    60   29   30 am   BACKBONE|DICT|INTERRES
    61   29  154 1    
    62   30   31 2    
    63   30   32 1    
    64   32   33 1    
    65   32   34 1    
    66   32  155 1    
    67   33  156 1    
    68   33  157 1    
    69   33  158 1    
    70   34   35 am   BACKBONE|DICT|INTERRES
    71   34  159 1    
    72   35   36 2    
    73   35   37 1    
    74   37   38 1    
    75   37   39 1    
    76   37  160 1    
    77   38  161 1    
    78   38  162 1    
    79   38  163 1    
    80   39   40 am   BACKBONE|DICT|INTERRES
    81   39  164 1    
    82   40   41 2    
    83   40   42 1    
    84   42   43 1    
    85   42   44 1    
    86   42  165 1    
    87   43  166 1    
    88   43  167 1    
    89   43  168 1    
    90   44   45 am   BACKBONE|DICT|INTERRES
    91   44  169 1    
    92   45   46 2    
    93   45   47 1    
    94   47   48 1    
    95   47   49 1    
    96   47  170 1    
    97   48  171 1    
    98   48  172 1    
    99   48  173 1    
   100   49   50 am   BACKBONE|DICT|INTERRES
   101   49  174 1    
   102   50   51 2    
   103   50   52 1    
   104   52   53 1    
   105   52   54 1    
   106   52  175 1    
   107   53  176 1    
   108   53  177 1    
   109   53  178 1    
   110   54   55 am   BACKBONE|DICT|INTERRES
   111   54  179 1    
   112   55   56 2    
   113   55   57 1    
   114   57   58 1    
   115   57   59 1    
   116   57  180 1    
   117   58  181 1    
   118   58  182 1    
   119   58  183 1    
   120   59   60 am   BACKBONE|DICT|INTERRES
   121   59  184 1    
   122   60   61 2    
   123   60   62 1    
   124   62   63 1    
   125   62   64 1    
   126   62  185 1    
   127   63  186 1    
   128   63  187 1    
   129   63  188 1    
   130   64   65 am   BACKBONE|DICT|INTERRES
   131   64  189 1    
   132   65   66 2    
   133   67   68 2    
   134   67   69 am   BACKBONE|DICT|INTERRES
   135   69   70 1    
   136   69  190 1    
   137   70   71 1    
   138   70   72 1    
   139   70  191 1    
   140   71  192 1    
   141   71  193 1    
   142   71  194 1    
   143   72   73 2    
   144   72   74 am   BACKBONE|DICT|INTERRES
   145   74   75 1    
   146   74  195 1    
   147   75   76 1    
   148   75   77 1    
   149   75  196 1    
   150   76  197 1    
   151   76  198 1    
   152   76  199 1    
   153   77   78 2    
   154   77   79 am   BACKBONE|DICT|INTERRES
   155   79   80 1    
   156   79  200 1    
   157   80   81 1    
   158   80   82 1    
   159   80  201 1    
   160   81  202 1    
   161   81  203 1    
   162   81  204 1    
   163   82   83 2    
   164   82   84 am   BACKBONE|DICT|INTERRES
   165   84   85 1    
   166   84  205 1    
   167   85   86 1    
   168   85   87 1    
   169   85  206 1    
   170   86  207 1    
   171   86  208 1    
   172   86  209 1    
   173   87   88 2    
   174   87   89 am   BACKBONE|DICT|INTERRES
   175   89   90 1    
   176   89  210 1    
   177   90   91 1    
   178   90   92 1    
   179   90  211 1    
   180   91  212 1    
   181   91  213 1    
   182   91  214 1    
   183   92   93 2    
   184   92   94 am   BACKBONE|DICT|INTERRES
   185   94   95 1    
   186   94  215 1    
   187   95   96 1    
   188   95   97 1    
   189   95  216 1    
   190   96  217 1    
   191   96  218 1    
   192   96  219 1    
   193   97   98 2    
   194   97   99 am   BACKBONE|DICT|INTERRES
   195   99  100 1    
   196   99  220 1    
   197  100  101 1    
   198  100  102 1    
   199  100  221 1    
   200  101  222 1    
   201  101  223 1    
   202  101  224 1    
   203  102  103 2    
   204  102  104 am   BACKBONE|DICT|INTERRES
   205  104  105 1    
   206  104  225 1    
   207  105  106 1    
   208  105  107 1    
   209  105  226 1    
   210  106  227 1    
   211  106  228 1    
   212  106  229 1    
   213  107  108 2    
   214  107  109 am   BACKBONE|DICT|INTERRES
   215  109  110 1    
   216  109  230 1    
   217  110  111 1    
   218  110  112 1    
   219  110  231 1    
   220  111  232 1    
   221  111  233 1    
   222  111  234 1    
   223  112  113 2    
   224  112  114 am   BACKBONE|DICT|INTERRES
   225  114  115 1    
   226  114  235 1    
   227  115  116 1    
   228  115  117 1    
   229  115  236 1    
   230  116  237 1    
   231  116  238 1    
   232  116  239 1    
   233  117  118 2    
   234  117  119 am   BACKBONE|DICT|INTERRES
   235  119  120 1    
   236  119  240 1    
   237  120  121 1    
   238  120  124 1    
   239  120  241 1    
   240  121  122 am   BACKBONE|DICT|INTERRES
   241  121  123 2    
   242  122  242 1    
   243  122  243 1    
   244  124  125 1    
   245  124  244 1    
   246  124  245 1    
   247  125  126 1    
   248  126  246 1    
   249  126  247 1    
@<TRIPOS>SUBSTRUCTURE
     1 UNK         1 GROUP             0       ****    0 ROOT    
