@<TRIPOS>MOLECULE
3R540
247   249    1
SMALL
USER_CHARGES


@<TRIPOS>ATOM
      1 CA         -0.8324  -14.8736  -48.8321 C.3       0 UNK        -0.1800 
      2 C          -0.3089  -13.4613  -49.0419 C.2       0 UNK         0.5000 
      3 O          -1.0944  -12.5254  -49.1914 O.2       0 UNK        -0.5000 
      4 N           1.0205  -13.3064  -49.0354 N.am      1 UNK        -0.5000 
      5 CA          1.7269  -12.0270  -49.1898 C.3       1 UNK         0.1400 
      6 C6          3.2273  -12.2476  -49.4977 C.3       23 UNK        -0.0398 
      7 S7          3.5139  -12.8566  -51.1935 S.3       23 UNK        -0.2404 
      8 C8          3.7650  -14.6524  -50.9624 C.3       23 UNK        -0.0205 
      9 C9          2.5139  -15.5106  -51.1566 C.ar      23 UNK        -0.0193 
     10 C10         1.5136  -15.1618  -52.0746 C.ar      23 UNK        -0.1150 
     11 C11         0.4196  -16.0036  -52.2925 C.ar      23 UNK        -0.0193 
     12 C12         0.3318  -17.2116  -51.5965 C.ar      23 UNK        -0.1150 
     13 C13         1.3140  -17.5723  -50.6734 C.ar      23 UNK        -0.0193 
     14 C14         2.3998  -16.7174  -50.4569 C.ar      23 UNK        -0.1150 
     15 C15         1.2205  -18.8995  -49.9360 C.3       23 UNK        -0.0205 
     16 S16         0.6632  -18.6812  -48.2211 S.3       23 UNK        -0.2404 
     17 C17        -1.1421  -18.4659  -48.4001 C.3       23 UNK        -0.0398 
     18 CA         -1.9795  -19.6753  -47.9029 C.3       11 UNK         0.1400 
     19 N          -1.4372  -20.3074  -46.6915 N.am      11 UNK        -0.5000 
     20 C          -1.8865  -21.4382  -46.1301 C.2       10 UNK         0.5000 
     21 O          -2.8241  -22.0885  -46.5950 O.2       10 UNK        -0.5000 
     22 CA         -1.2199  -21.8851  -44.8131 C.3       10 UNK         0.1400 
     23 CB         -1.2999  -23.4085  -44.5964 C.3       10 UNK        -0.1800 
     24 N           0.1537  -21.4026  -44.6404 N.am      10 UNK        -0.5000 
     25 C           1.2357  -21.7219  -45.3671 C.2       9 UNK         0.5000 
     26 O           1.2080  -22.4626  -46.3498 O.2       9 UNK        -0.5000 
     27 CA          2.5832  -21.1261  -44.9122 C.3       9 UNK         0.1400 
     28 CB          3.2392  -20.2942  -46.0258 C.3       9 UNK        -0.1800 
     29 N           2.4540  -20.2957  -43.7113 N.am      9 UNK        -0.5000 
     30 C           2.6041  -20.7421  -42.4582 C.2       8 UNK         0.5000 
     31 O           2.8837  -21.9078  -42.1754 O.2       8 UNK        -0.5000 
     32 CA          2.3990  -19.7180  -41.3278 C.3       8 UNK         0.1400 
     33 CB          3.6312  -18.8099  -41.1946 C.3       8 UNK        -0.1800 
     34 N           1.1981  -18.8920  -41.4787 N.am      8 UNK        -0.5000 
     35 C          -0.0619  -19.3502  -41.4336 C.2       7 UNK         0.5000 
     36 O          -0.3546  -20.5435  -41.3616 O.2       7 UNK        -0.5000 
     37 CA         -1.1855  -18.2995  -41.4855 C.3       7 UNK         0.1400 
     38 CB         -1.2708  -17.5097  -40.1701 C.3       7 UNK        -0.1800 
     39 N          -0.9946  -17.3762  -42.5981 N.am      7 UNK        -0.5000 
     40 C          -1.2914  -17.6641  -43.8707 C.2       6 UNK         0.5000 
     41 O          -1.8823  -18.6840  -44.2253 O.2       6 UNK        -0.5000 
     42 CA         -0.8352  -16.6598  -44.9410 C.3       6 UNK         0.1400 
     43 CB         -1.9636  -15.6738  -45.2728 C.3       6 UNK        -0.1800 
     44 N           0.3702  -15.9198  -44.5770 N.am      6 UNK        -0.5000 
     45 C           1.5783  -16.4662  -44.3856 C.2       5 UNK         0.5000 
     46 O           1.8115  -17.6690  -44.4878 O.2       5 UNK        -0.5000 
     47 CA          2.6993  -15.5120  -43.9446 C.3       5 UNK         0.1400 
     48 CB          3.2782  -14.7517  -45.1484 C.3       5 UNK        -0.1800 
     49 N           2.2418  -14.5632  -42.9283 N.am      5 UNK        -0.5000 
     50 C           1.8542  -14.9053  -41.6907 C.2       4 UNK         0.5000 
     51 O           1.8619  -16.0600  -41.2649 O.2       4 UNK        -0.5000 
     52 CA          1.3213  -13.7705  -40.7992 C.3       4 UNK         0.1400 
     53 CB          2.4789  -12.9638  -40.1923 C.3       4 UNK        -0.1800 
     54 N           0.4281  -12.8705  -41.5294 N.am      4 UNK        -0.5000 
     55 C          -0.7825  -13.2175  -41.9894 C.2       3 UNK         0.5000 
     56 O          -1.2951  -14.3215  -41.8048 O.2       3 UNK        -0.5000 
     57 CA         -1.5223  -12.1649  -42.8377 C.3       3 UNK         0.1400 
     58 CB         -2.3055  -11.1974  -41.9379 C.3       3 UNK        -0.1800 
     59 N          -0.6359  -11.3996  -43.7229 N.am      3 UNK        -0.5000 
     60 C           0.0941  -11.9421  -44.7052 C.2       2 UNK         0.5000 
     61 O           0.1266  -13.1520  -44.9409 O.2       2 UNK        -0.5000 
     62 CA          0.9602  -10.9958  -45.5436 C.3       2 UNK         0.1400 
     63 CB          2.2746  -10.6628  -44.8161 C.3       2 UNK        -0.1800 
     64 N           1.2468  -11.6727  -46.8017 N.am      2 UNK        -0.5000 
     65 C           1.5600  -11.0965  -47.9656 C.2       1 UNK         0.5000 
     66 O           1.7135   -9.8818  -48.1023 O.2       1 UNK        -0.5000 
     67 C          -3.4554  -19.2516  -47.7294 C.2       11 UNK         0.5000 
     68 O          -4.1931  -19.2218  -48.7131 O.2       11 UNK        -0.5000 
     69 N          -3.8583  -18.9563  -46.4820 N.am      12 UNK        -0.5000 
     70 CA         -5.2365  -18.6522  -46.0944 C.3       12 UNK         0.1400 
     71 CB         -5.2485  -18.1106  -44.6561 C.3       12 UNK        -0.1800 
     72 C          -6.1775  -19.8670  -46.2180 C.2       12 UNK         0.5000 
     73 O          -7.3423  -19.6946  -46.5786 O.2       12 UNK        -0.5000 
     74 N          -5.6572  -21.0689  -45.9295 N.am      13 UNK        -0.5000 
     75 CA         -6.3574  -22.3397  -46.1309 C.3       13 UNK         0.1400 
     76 CB         -5.7676  -23.4026  -45.1905 C.3       13 UNK        -0.1800 
     77 C          -6.2637  -22.8060  -47.5944 C.2       13 UNK         0.5000 
     78 O          -7.1891  -23.4473  -48.0925 O.2       13 UNK        -0.5000 
     79 N          -5.1364  -22.4828  -48.2438 N.am      14 UNK        -0.5000 
     80 CA         -4.7482  -22.7208  -49.6364 C.3       14 UNK         0.1400 
     81 CB         -5.7437  -22.0974  -50.6308 C.3       14 UNK        -0.1800 
     82 C          -4.4719  -24.1942  -49.9719 C.2       14 UNK         0.5000 
     83 O          -3.4773  -24.4733  -50.6434 O.2       14 UNK        -0.5000 
     84 N          -5.3192  -25.1086  -49.4842 N.am      15 UNK        -0.5000 
     85 CA         -5.2451  -26.5608  -49.6742 C.3       15 UNK         0.1400 
     86 CB         -6.4317  -27.2203  -48.9561 C.3       15 UNK        -0.1800 
     87 C          -3.9173  -27.1821  -49.2066 C.2       15 UNK         0.5000 
     88 O          -3.3861  -28.0658  -49.8788 O.2       15 UNK        -0.5000 
     89 N          -3.3996  -26.6852  -48.0771 N.am      16 UNK        -0.5000 
     90 CA         -2.1199  -27.0990  -47.5043 C.3       16 UNK         0.1400 
     91 CB         -2.1546  -26.8370  -45.9914 C.3       16 UNK        -0.1800 
     92 C          -0.9120  -26.3956  -48.1545 C.2       16 UNK         0.5000 
     93 O           0.2011  -26.9139  -48.0599 O.2       16 UNK        -0.5000 
     94 N          -1.1390  -25.2356  -48.7871 N.am      17 UNK        -0.5000 
     95 CA         -0.1016  -24.4391  -49.4394 C.3       17 UNK         0.1400 
     96 CB         -0.5157  -22.9586  -49.4679 C.3       17 UNK        -0.1800 
     97 C           0.2006  -24.9493  -50.8565 C.2       17 UNK         0.5000 
     98 O           1.3612  -25.2242  -51.1650 O.2       17 UNK        -0.5000 
     99 N          -0.8407  -25.0521  -51.6943 N.am      18 UNK        -0.5000 
    100 CA        -0.7148  -25.3851  -53.1182 C.3       18 UNK         0.1400 
    101 CB        -0.1640  -24.1646  -53.8861 C.3       18 UNK        -0.1800 
    102 C         -2.0204  -25.8775  -53.7718 C.2       18 UNK         0.5000 
    103 O         -1.9700  -26.3200  -54.9200 O.2       18 UNK        -0.5000 
    104 N         -3.1604  -25.7691  -53.0715 N.am      19 UNK        -0.5000 
    105 CA        -4.5221  -26.0345  -53.5573 C.3       19 UNK         0.1400 
    106 CB        -4.7187  -27.5208  -53.9207 C.3       19 UNK        -0.1800 
    107 C         -4.9672  -25.0566  -54.6646 C.2       19 UNK         0.5000 
    108 O         -5.7274  -25.4293  -55.5597 O.2       19 UNK        -0.5000 
    109 N         -4.4976  -23.8086  -54.5548 N.am      20 UNK        -0.5000 
    110 CA        -4.8303  -22.6817  -55.4222 C.3       20 UNK         0.1400 
    111 CB        -4.1733  -22.8290  -56.8081 C.3       20 UNK        -0.1800 
    112 C         -4.3939  -21.3778  -54.7436 C.2       20 UNK         0.5000 
    113 O         -5.1843  -20.4359  -54.6688 O.2       20 UNK        -0.5000 
    114 N         -3.1477  -21.3643  -54.2408 N.am      21 UNK        -0.5000 
    115 CA        -2.4774  -20.2424  -53.5752 C.3       21 UNK         0.1400 
    116 CB        -3.0572  -20.0255  -52.1591 C.3       21 UNK        -0.1800 
    117 C         -2.4746  -18.9842  -54.4688 C.2       21 UNK         0.5000 
    118 O         -1.8471  -19.0104  -55.5288 O.2       21 UNK        -0.5000 
    119 N         -3.1780  -17.9280  -54.0470 N.am      22 UNK        -0.5000 
    120 CA        -3.3446  -16.6763  -54.8043 C.3       22 UNK         0.1400 
    121 C         -4.5067  -16.7108  -55.8413 C.2       22 UNK         0.5000 
    122 N         -5.2835  -17.7828  -55.9510 N.am      22 UNK        -0.7600 
    123 O         -4.7036  -15.7441  -56.5727 O.2       22 UNK        -0.5000 
    124 C124       -3.4588  -15.4364  -53.8729 C.3       23 UNK        -0.0398 
    125 S125       -2.2635  -15.3675  -52.4883 S.3       23 UNK        -0.2404 
    126 C126       -0.6552  -15.6381  -53.3032 C.3       23 UNK        -0.0205 
    127 H127       -0.1509  -15.4587  -48.2139 H         1 UNK         0.0600 
    128 H128       -1.8065  -14.8529  -48.3446 H         1 UNK         0.0600 
    129 H129       -0.9471  -15.3782  -49.7892 H         1 UNK         0.0600 
    130 H130        1.6076  -14.1232  -48.9509 H         1 UNK         0.3000 
    131 H131        1.2790  -11.5009  -50.0358 H         1 UNK         0.0600 
    132 H132        3.6845  -12.9162  -48.7666 H         1 UNK         0.0800 
    133 H133        3.7761  -11.3068  -49.4208 H         1 UNK         0.0800 
    134 H134        4.2102  -14.8375  -49.9839 H         1 UNK         0.0800 
    135 H135        4.5036  -14.9819  -51.6941 H         1 UNK         0.0800 
    136 H136        1.5916  -14.2434  -52.6380 H         1 UNK         0.1150 
    137 H137       -0.5061  -17.8691  -51.7773 H         1 UNK         0.1150 
    138 H138        3.1695  -17.0080  -49.7554 H         1 UNK         0.1150 
    139 H139        0.5565  -19.5934  -50.4539 H         1 UNK         0.0800 
    140 H140        2.2035  -19.3723  -49.9246 H         1 UNK         0.0800 
    141 H141       -1.3826  -18.2558  -49.4430 H         1 UNK         0.0800 
    142 H142       -1.4131  -17.5594  -47.8602 H         1 UNK         0.0800 
    143 H143       -1.9565  -20.4348  -48.6866 H         1 UNK         0.0600 
    144 H144       -0.6623  -19.8346  -46.2497 H         1 UNK         0.3000 
    145 H145       -1.7982  -21.4165  -44.0159 H         1 UNK         0.0600 
    146 H146       -0.8157  -23.7013  -43.6649 H         1 UNK         0.0600 
    147 H147       -2.3374  -23.7381  -44.5369 H         1 UNK         0.0600 
    148 H148       -0.8248  -23.9571  -45.4104 H         1 UNK         0.0600 
    149 H149        0.2980  -20.7912  -43.8488 H         1 UNK         0.3000 
    150 H150        3.2437  -21.9704  -44.7047 H         1 UNK         0.0600 
    151 H151        3.3486  -20.8742  -46.9429 H         1 UNK         0.0600 
    152 H152        4.2344  -19.9612  -45.7314 H         1 UNK         0.0600 
    153 H153        2.6525  -19.4094  -46.2658 H         1 UNK         0.0600 
    154 H154        2.2188  -19.3161  -43.8700 H         1 UNK         0.3000 
    155 H155        2.2949  -20.2775  -40.3958 H         1 UNK         0.0600 
    156 H156        3.7640  -18.1815  -42.0759 H         1 UNK         0.0600 
    157 H157        4.5410  -19.3982  -41.0689 H         1 UNK         0.0600 
    158 H158        3.5457  -18.1549  -40.3273 H         1 UNK         0.0600 
    159 H159        1.3529  -17.8884  -41.5266 H         1 UNK         0.3000 
    160 H160       -2.1335  -18.8250  -41.6209 H         1 UNK         0.0600 
    161 H161       -2.1035  -16.8062  -40.1895 H         1 UNK         0.0600 
    162 H162       -0.3615  -16.9407  -39.9754 H         1 UNK         0.0600 
    163 H163       -1.4283  -18.1784  -39.3231 H         1 UNK         0.0600 
    164 H164       -0.5522  -16.4903  -42.3911 H         1 UNK         0.3000 
    165 H165       -0.5929  -17.2307  -45.8350 H         1 UNK         0.0600 
    166 H166       -1.6399  -14.9288  -45.9978 H         1 UNK         0.0600 
    167 H167       -2.8216  -16.1914  -45.7013 H         1 UNK         0.0600 
    168 H168       -2.3048  -15.1419  -44.3840 H         1 UNK         0.0600 
    169 H169        0.2770  -14.9080  -44.5157 H         1 UNK         0.3000 
    170 H170        3.4982  -16.1147  -43.5079 H         1 UNK         0.0600 
    171 H171        3.6575  -15.4459  -45.8994 H         1 UNK         0.0600 
    172 H172        2.5305  -14.1248  -45.6332 H         1 UNK         0.0600 
    173 H173        4.1085  -14.1121  -44.8490 H         1 UNK         0.0600 
    174 H174        2.1555  -13.5998  -43.2122 H         1 UNK         0.3000 
    175 H175        0.7565  -14.2250  -39.9823 H         1 UNK         0.0600 
    176 H176        2.1104  -12.2063  -39.5004 H         1 UNK         0.0600 
    177 H177        3.1542  -13.6125  -39.6327 H         1 UNK         0.0600 
    178 H178        3.0682  -12.4597  -40.9593 H         1 UNK         0.0600 
    179 H179        0.7699  -11.9413  -41.7247 H         1 UNK         0.3000 
    180 H180       -2.2384  -12.6981  -43.4667 H         1 UNK         0.0600 
    181 H181       -1.6414  -10.6063  -41.3061 H         1 UNK         0.0600 
    182 H182       -2.9866  -11.7403  -41.2810 H         1 UNK         0.0600 
    183 H183       -2.9081  -10.5084  -42.5299 H         1 UNK         0.0600 
    184 H184       -0.6074  -10.4002  -43.5803 H         1 UNK         0.3000 
    185 H185        0.3950  -10.0820  -45.7383 H         1 UNK         0.0600 
    186 H186        2.8615  -11.5598  -44.6148 H         1 UNK         0.0600 
    187 H187        2.8926   -9.9871  -45.4074 H         1 UNK         0.0600 
    188 H188        2.0831  -10.1719  -43.8613 H         1 UNK         0.0600 
    189 H189        1.0688  -12.6689  -46.7755 H         1 UNK         0.3000 
    190 H190       -3.1760  -18.9948  -45.7305 H         1 UNK         0.3000 
    191 H191       -5.6118  -17.8711  -46.7588 H         1 UNK         0.0600 
    192 H192       -4.6680  -17.1927  -44.5717 H         1 UNK         0.0600 
    193 H193       -4.8350  -18.8325  -43.9505 H         1 UNK         0.0600 
    194 H194       -6.2646  -17.8801  -44.3334 H         1 UNK         0.0600 
    195 H195       -4.6806  -21.1277  -45.6774 H         1 UNK         0.3000 
    196 H196       -7.4135  -22.2138  -45.8826 H         1 UNK         0.0600 
    197 H197       -6.3014  -24.3486  -45.2900 H         1 UNK         0.0600 
    198 H198       -5.8462  -23.0937  -44.1481 H         1 UNK         0.0600 
    199 H199       -4.7165  -23.5973  -45.4041 H         1 UNK         0.0600 
    200 H200       -4.4019  -22.0682  -47.6776 H         1 UNK         0.3000 
    201 H201       -3.8007  -22.1953  -49.7551 H         1 UNK         0.0600 
    202 H202       -5.8773  -21.0334  -50.4339 H         1 UNK         0.0600 
    203 H203       -6.7233  -22.5734  -50.5846 H         1 UNK         0.0600 
    204 H204       -5.3832  -22.1943  -51.6557 H         1 UNK         0.0600 
    205 H205       -6.1131  -24.7567  -48.9556 H         1 UNK         0.3000 
    206 H206       -5.3437  -26.7701  -50.7381 H         1 UNK         0.0600 
    207 H207       -7.3811  -26.8595  -49.3522 H         1 UNK         0.0600 
    208 H208       -6.4164  -28.3032  -49.0867 H         1 UNK         0.0600 
    209 H209       -6.4177  -27.0173  -47.8845 H         1 UNK         0.0600 
    210 H210       -3.9087  -25.9634  -47.5888 H         1 UNK         0.3000 
    211 H211       -1.9900  -28.1729  -47.6555 H         1 UNK         0.0600 
    212 H212       -2.3799  -25.7942  -45.7734 H         1 UNK         0.0600 
    213 H213       -1.1975  -27.0749  -45.5252 H         1 UNK         0.0600 
    214 H214       -2.9138  -27.4498  -45.5050 H         1 UNK         0.0600 
    215 H215       -2.0890  -24.9074  -48.8748 H         1 UNK         0.3000 
    216 H216        0.8181  -24.5069  -48.8535 H         1 UNK         0.0600 
    217 H217        0.2539  -22.3474  -49.9407 H         1 UNK         0.0600 
    218 H218       -0.6483  -22.5781  -48.4573 H         1 UNK         0.0600 
    219 H219       -1.4438  -22.7972  -50.0145 H         1 UNK         0.0600 
    220 H220       -1.7649  -24.8230  -51.3437 H         1 UNK         0.3000 
    221 H221       -0.0037  -26.2078  -53.2178 H         1 UNK         0.0600 
    222 H222       -0.7951  -23.2874  -53.7451 H         1 UNK         0.0600 
    223 H223        0.8421  -23.9057  -53.5565 H         1 UNK         0.0600 
    224 H224       -0.1044  -24.3602  -54.9576 H         1 UNK         0.0600 
    225 H225       -3.1260  -25.3863  -52.1313 H         1 UNK         0.3000 
    226 H226       -5.1860  -25.8161  -52.7227 H         1 UNK         0.0600 
    227 H227       -4.4053  -28.1694  -53.1024 H         1 UNK         0.0600 
    228 H228       -4.1536  -27.8024  -54.8092 H         1 UNK         0.0600 
    229 H229       -5.7684  -27.7375  -54.1215 H         1 UNK         0.0600 
    230 H230       -3.9267  -23.5882  -53.7518 H         1 UNK         0.3000 
    231 H231       -5.9146  -22.6452  -55.5463 H         1 UNK         0.0600 
    232 H232       -4.5673  -23.6907  -57.3465 H         1 UNK         0.0600 
    233 H233       -3.0922  -22.9506  -56.7322 H         1 UNK         0.0600 
    234 H234       -4.3638  -21.9501  -57.4255 H         1 UNK         0.0600 
    235 H235       -2.5542  -22.1542  -54.4445 H         1 UNK         0.3000 
    236 H236       -1.4310  -20.5285  -53.4571 H         1 UNK         0.0600 
    237 H237       -2.5562  -19.2057  -51.6435 H         1 UNK         0.0600 
    238 H238       -4.1250  -19.8051  -52.1761 H         1 UNK         0.0600 
    239 H239       -2.9149  -20.9158  -51.5483 H         1 UNK         0.0600 
    240 H240       -3.6875  -17.9934  -53.1783 H         1 UNK         0.3000 
    241 H241       -2.4532  -16.5299  -55.4153 H         1 UNK         0.0600 
    242 H242       -6.0272  -17.7823  -56.6307 H         1 UNK         0.3800 
    243 H243       -5.1408  -18.6052  -55.3723 H         1 UNK         0.3800 
    244 H244       -3.3509  -14.5199  -54.4553 H         1 UNK         0.0800 
    245 H245       -4.4560  -15.3944  -53.4316 H         1 UNK         0.0800 
    246 H246       -0.3824  -14.7431  -53.8643 H         1 UNK         0.0800 
    247 H247       -0.7142  -16.4521  -54.0235 H         1 UNK         0.0800 
@<TRIPOS>BOND
     1    1    2 1    
     2    1  127 1    
     3    1  128 1    
     4    1  129 1    
     5    2    3 2    
     6    2    4 am   BACKBONE|DICT|INTERRES
     7    4    5 1    
     8    4  130 1    
     9    5    6 1    
    10    5   65 1    
    11    5  131 1    
    12    6    7 1    
    13    6  132 1    
    14    6  133 1    
    15    7    8 1    
    16    8    9 1    
    17    8  134 1    
    18    8  135 1    
    19    9   10 ar   
    20    9   14 ar   
    21   10   11 ar   
    22   10  136 1    
    23   11   12 ar   
    24   11  126 1    
    25   12   13 ar   
    26   12  137 1    
    27   13   14 ar   
    28   13   15 1    
    29   14  138 1    
    30   15   16 1    
    31   15  139 1    
    32   15  140 1    
    33   16   17 1    
    34   17   18 1    
    35   17  141 1    
    36   17  142 1    
    37   18   19 1    
    38   18   67 1    
    39   18  143 1    
    40   19   20 am   BACKBONE|DICT|INTERRES
    41   19  144 1    
    42   20   21 2    
    43   20   22 1    
    44   22   23 1    
    45   22   24 1    
    46   22  145 1    
    47   23  146 1    
    48   23  147 1    
    49   23  148 1    
    50   24   25 am   BACKBONE|DICT|INTERRES
    51   24  149 1    
    52   25   26 2    
    53   25   27 1    
    54   27   28 1    
    55   27   29 1    
    56   27  150 1    
    57   28  151 1    
    58   28  152 1    
    59   28  153 1    
    60   29   30 am   BACKBONE|DICT|INTERRES
    61   29  154 1    
    62   30   31 2    
    63   30   32 1    
    64   32   33 1    
    65   32   34 1    
    66   32  155 1    
    67   33  156 1    
    68   33  157 1    
    69   33  158 1    
    70   34   35 am   BACKBONE|DICT|INTERRES
    71   34  159 1    
    72   35   36 2    
    73   35   37 1    
    74   37   38 1    
    75   37   39 1    
    76   37  160 1    
    77   38  161 1    
    78   38  162 1    
    79   38  163 1    
    80   39   40 am   BACKBONE|DICT|INTERRES
    81   39  164 1    
    82   40   41 2    
    83   40   42 1    
    84   42   43 1    
    85   42   44 1    
    86   42  165 1    
    87   43  166 1    
    88   43  167 1    
    89   43  168 1    
    90   44   45 am   BACKBONE|DICT|INTERRES
    91   44  169 1    
    92   45   46 2    
    93   45   47 1    
    94   47   48 1    
    95   47   49 1    
    96   47  170 1    
    97   48  171 1    
    98   48  172 1    
    99   48  173 1    
   100   49   50 am   BACKBONE|DICT|INTERRES
   101   49  174 1    
   102   50   51 2    
   103   50   52 1    
   104   52   53 1    
   105   52   54 1    
   106   52  175 1    
   107   53  176 1    
   108   53  177 1    
   109   53  178 1    
   110   54   55 am   BACKBONE|DICT|INTERRES
   111   54  179 1    
   112   55   56 2    
   113   55   57 1    
   114   57   58 1    
   115   57   59 1    
   116   57  180 1    
   117   58  181 1    
   118   58  182 1    
   119   58  183 1    
   120   59   60 am   BACKBONE|DICT|INTERRES
   121   59  184 1    
   122   60   61 2    
   123   60   62 1    
   124   62   63 1    
   125   62   64 1    
   126   62  185 1    
   127   63  186 1    
   128   63  187 1    
   129   63  188 1    
   130   64   65 am   BACKBONE|DICT|INTERRES
   131   64  189 1    
   132   65   66 2    
   133   67   68 2    
   134   67   69 am   BACKBONE|DICT|INTERRES
   135   69   70 1    
   136   69  190 1    
   137   70   71 1    
   138   70   72 1    
   139   70  191 1    
   140   71  192 1    
   141   71  193 1    
   142   71  194 1    
   143   72   73 2    
   144   72   74 am   BACKBONE|DICT|INTERRES
   145   74   75 1    
   146   74  195 1    
   147   75   76 1    
   148   75   77 1    
   149   75  196 1    
   150   76  197 1    
   151   76  198 1    
   152   76  199 1    
   153   77   78 2    
   154   77   79 am   BACKBONE|DICT|INTERRES
   155   79   80 1    
   156   79  200 1    
   157   80   81 1    
   158   80   82 1    
   159   80  201 1    
   160   81  202 1    
   161   81  203 1    
   162   81  204 1    
   163   82   83 2    
   164   82   84 am   BACKBONE|DICT|INTERRES
   165   84   85 1    
   166   84  205 1    
   167   85   86 1    
   168   85   87 1    
   169   85  206 1    
   170   86  207 1    
   171   86  208 1    
   172   86  209 1    
   173   87   88 2    
   174   87   89 am   BACKBONE|DICT|INTERRES
   175   89   90 1    
   176   89  210 1    
   177   90   91 1    
   178   90   92 1    
   179   90  211 1    
   180   91  212 1    
   181   91  213 1    
   182   91  214 1    
   183   92   93 2    
   184   92   94 am   BACKBONE|DICT|INTERRES
   185   94   95 1    
   186   94  215 1    
   187   95   96 1    
   188   95   97 1    
   189   95  216 1    
   190   96  217 1    
   191   96  218 1    
   192   96  219 1    
   193   97   98 2    
   194   97   99 am   BACKBONE|DICT|INTERRES
   195   99  100 1    
   196   99  220 1    
   197  100  101 1    
   198  100  102 1    
   199  100  221 1    
   200  101  222 1    
   201  101  223 1    
   202  101  224 1    
   203  102  103 2    
   204  102  104 am   BACKBONE|DICT|INTERRES
   205  104  105 1    
   206  104  225 1    
   207  105  106 1    
   208  105  107 1    
   209  105  226 1    
   210  106  227 1    
   211  106  228 1    
   212  106  229 1    
   213  107  108 2    
   214  107  109 am   BACKBONE|DICT|INTERRES
   215  109  110 1    
   216  109  230 1    
   217  110  111 1    
   218  110  112 1    
   219  110  231 1    
   220  111  232 1    
   221  111  233 1    
   222  111  234 1    
   223  112  113 2    
   224  112  114 am   BACKBONE|DICT|INTERRES
   225  114  115 1    
   226  114  235 1    
   227  115  116 1    
   228  115  117 1    
   229  115  236 1    
   230  116  237 1    
   231  116  238 1    
   232  116  239 1    
   233  117  118 2    
   234  117  119 am   BACKBONE|DICT|INTERRES
   235  119  120 1    
   236  119  240 1    
   237  120  121 1    
   238  120  124 1    
   239  120  241 1    
   240  121  122 am   BACKBONE|DICT|INTERRES
   241  121  123 2    
   242  122  242 1    
   243  122  243 1    
   244  124  125 1    
   245  124  244 1    
   246  124  245 1    
   247  125  126 1    
   248  126  246 1    
   249  126  247 1    
@<TRIPOS>SUBSTRUCTURE
     1 UNK         1 GROUP             0       ****    0 ROOT    
