@<TRIPOS>MOLECULE
3R540
247   249    1
SMALL
USER_CHARGES


@<TRIPOS>ATOM
      1 CA          4.1452   -9.6917  -49.8417 C.3       0 UNK        -0.1800 
      2 C           3.7314  -10.3203  -48.5188 C.2       0 UNK         0.5000 
      3 O           3.2641   -9.6157  -47.6248 O.2       0 UNK        -0.5000 
      4 N           3.8932  -11.6433  -48.3951 N.am      1 UNK        -0.5000 
      5 CA          3.5513  -12.4347  -47.2049 C.3       1 UNK         0.1400 
      6 C6          4.5265  -13.6267  -47.0177 C.3       23 UNK        -0.0398 
      7 S7          4.5077  -14.8325  -48.3930 S.3       23 UNK        -0.2404 
      8 C8          3.6219  -16.2175  -47.6132 C.3       23 UNK        -0.0205 
      9 C9          2.7660  -16.9748  -48.6135 C.ar      23 UNK        -0.0193 
     10 C10         1.6213  -16.3747  -49.1450 C.ar      23 UNK        -0.1150 
     11 C11         0.7745  -17.0814  -50.0037 C.ar      23 UNK        -0.0193 
     12 C12         1.0905  -18.4031  -50.3313 C.ar      23 UNK        -0.1150 
     13 C13         2.2337  -19.0146  -49.8083 C.ar      23 UNK        -0.0193 
     14 C14         3.0773  -18.2904  -48.9628 C.ar      23 UNK        -0.1150 
     15 C15         2.5252  -20.4766  -50.1095 C.3       23 UNK        -0.0205 
     16 S16         2.0894  -21.5500  -48.7018 S.3       23 UNK        -0.2404 
     17 C17         0.3323  -21.1289  -48.4703 C.3       23 UNK        -0.0398 
     18 CA         -0.3686  -22.0359  -47.4400 C.3       11 UNK         0.1400 
     19 N           0.1746  -21.8724  -46.0873 N.am      11 UNK        -0.5000 
     20 C          -0.1329  -22.6440  -45.0344 C.2       10 UNK         0.5000 
     21 O          -0.9582  -23.5569  -45.0897 O.2       10 UNK        -0.5000 
     22 CA          0.5460  -22.3040  -43.6910 C.3       10 UNK         0.1400 
     23 CB          0.8619  -23.5528  -42.8428 C.3       10 UNK        -0.1800 
     24 N           1.7067  -21.4144  -43.8332 N.am      10 UNK        -0.5000 
     25 C           2.9136  -21.7079  -44.3396 C.2       9 UNK         0.5000 
     26 O           3.2541  -22.8392  -44.6848 O.2       9 UNK        -0.5000 
     27 CA          3.9115  -20.5493  -44.5198 C.3       9 UNK         0.1400 
     28 CB          4.0225  -20.1503  -46.0000 C.3       9 UNK        -0.1800 
     29 N           3.5901  -19.3553  -43.7312 N.am      9 UNK        -0.5000 
     30 C           4.5192  -18.5338  -43.2230 C.2       8 UNK         0.5000 
     31 O           5.7317  -18.7297  -43.3190 O.2       8 UNK        -0.5000 
     32 CA          4.0293  -17.2691  -42.4948 C.3       8 UNK         0.1400 
     33 CB          3.9054  -16.0945  -43.4789 C.3       8 UNK        -0.1800 
     34 N           2.7622  -17.4414  -41.7847 N.am      8 UNK        -0.5000 
     35 C           2.6028  -18.1839  -40.6795 C.2       7 UNK         0.5000 
     36 O           3.4939  -18.8736  -40.1832 O.2       7 UNK        -0.5000 
     37 CA          1.2222  -18.1372  -40.0055 C.3       7 UNK         0.1400 
     38 CB          1.1181  -16.9088  -39.0877 C.3       7 UNK        -0.1800 
     39 N           0.1502  -18.0809  -40.9967 N.am      7 UNK        -0.5000 
     40 C          -0.5999  -19.1255  -41.3671 C.2       6 UNK         0.5000 
     41 O          -0.5000  -20.2513  -40.8801 O.2       6 UNK        -0.5000 
     42 CA         -1.6350  -18.8801  -42.4828 C.3       6 UNK         0.1400 
     43 CB         -2.9787  -18.4585  -41.8680 C.3       6 UNK        -0.1800 
     44 N          -1.2259  -17.8731  -43.4644 N.am      6 UNK        -0.5000 
     45 C          -0.1401  -17.9414  -44.2468 C.2       5 UNK         0.5000 
     46 O           0.6419  -18.8916  -44.2573 O.2       5 UNK        -0.5000 
     47 CA          0.1483  -16.7237  -45.1395 C.3       5 UNK         0.1400 
     48 CB         -0.5911  -16.8686  -46.4776 C.3       5 UNK        -0.1800 
     49 N          -0.1923  -15.4254  -44.5507 N.am      5 UNK        -0.5000 
     50 C           0.1175  -14.9564  -43.3314 C.2       4 UNK         0.5000 
     51 O           0.6868  -15.6231  -42.4665 O.2       4 UNK        -0.5000 
     52 CA         -0.2761  -13.4973  -43.0178 C.3       4 UNK         0.1400 
     53 CB          0.9795  -12.6374  -42.8058 C.3       4 UNK        -0.1800 
     54 N          -1.0920  -12.8886  -44.0712 N.am      4 UNK        -0.5000 
     55 C          -2.3950  -13.1148  -44.2791 C.2       3 UNK         0.5000 
     56 O          -3.0970  -13.7796  -43.5173 O.2       3 UNK        -0.5000 
     57 CA         -2.9992  -12.5828  -45.5957 C.3       3 UNK         0.1400 
     58 CB         -3.4952  -11.1314  -45.4485 C.3       3 UNK        -0.1800 
     59 N          -2.1131  -12.7581  -46.7605 N.am      3 UNK        -0.5000 
     60 C          -0.9669  -12.1223  -47.0436 C.2       2 UNK         0.5000 
     61 O          -0.5164  -11.1888  -46.3758 O.2       2 UNK        -0.5000 
     62 CA         -0.1793  -12.6566  -48.2573 C.3       2 UNK         0.1400 
     63 CB         -0.6904  -12.0247  -49.5603 C.3       2 UNK        -0.1800 
     64 N           1.2627  -12.4214  -48.1515 N.am      2 UNK        -0.5000 
     65 C           2.0639  -12.8666  -47.1708 C.2       1 UNK         0.5000 
     66 O           1.6711  -13.6020  -46.2648 O.2       1 UNK        -0.5000 
     67 C          -1.8904  -21.8047  -47.4972 C.2       11 UNK         0.5000 
     68 O          -2.5665  -22.4562  -48.2917 O.2       11 UNK        -0.5000 
     69 N          -2.4048  -20.9068  -46.6440 N.am      12 UNK        -0.5000 
     70 CA         -3.8340  -20.6218  -46.5078 C.3       12 UNK         0.1400 
     71 CB         -4.0298  -19.4463  -45.5410 C.3       12 UNK        -0.1800 
     72 C          -4.6312  -21.8540  -46.0408 C.2       12 UNK         0.5000 
     73 O          -5.6866  -22.1466  -46.6038 O.2       12 UNK        -0.5000 
     74 N          -4.0760  -22.5756  -45.0554 N.am      13 UNK        -0.5000 
     75 CA         -4.6168  -23.8309  -44.5343 C.3       13 UNK         0.1400 
     76 CB         -3.9169  -24.1813  -43.2123 C.3       13 UNK        -0.1800 
     77 C          -4.4900  -24.9823  -45.5473 C.2       13 UNK         0.5000 
     78 O          -5.4033  -25.8019  -45.6522 O.2       13 UNK        -0.5000 
     79 N          -3.3945  -24.9938  -46.3194 N.am      14 UNK        -0.5000 
     80 CA         -3.1317  -25.9199  -47.4245 C.3       14 UNK         0.1400 
     81 CB         -1.6150  -25.9827  -47.6735 C.3       14 UNK        -0.1800 
     82 C          -3.9269  -25.5613  -48.7017 C.2       14 UNK         0.5000 
     83 O          -3.3503  -25.4664  -49.7876 O.2       14 UNK        -0.5000 
     84 N          -5.2440  -25.3708  -48.5420 N.am      15 UNK        -0.5000 
     85 CA         -6.2489  -25.1043  -49.5747 C.3       15 UNK         0.1400 
     86 CB         -6.4944  -26.3782  -50.4104 C.3       15 UNK        -0.1800 
     87 C          -5.9337  -23.8721  -50.4477 C.2       15 UNK         0.5000 
     88 O          -6.0897  -23.9357  -51.6676 O.2       15 UNK        -0.5000 
     89 N          -5.4840  -22.7795  -49.8118 N.am      16 UNK        -0.5000 
     90 CA         -5.1066  -21.5046  -50.4372 C.3       16 UNK         0.1400 
     91 CB         -6.3567  -20.7861  -50.9826 C.3       16 UNK        -0.1800 
     92 C          -3.9940  -21.6767  -51.4937 C.2       16 UNK         0.5000 
     93 O          -4.1492  -21.2594  -52.6447 O.2       16 UNK        -0.5000 
     94 N          -2.9045  -22.3270  -51.0650 N.am      17 UNK        -0.5000 
     95 CA         -1.7419  -22.7500  -51.8463 C.3       17 UNK         0.1400 
     96 CB         -0.9656  -21.5337  -52.3911 C.3       17 UNK        -0.1800 
     97 C          -2.1200  -23.7708  -52.9366 C.2       17 UNK         0.5000 
     98 O          -1.7950  -23.5748  -54.1077 O.2       17 UNK        -0.5000 
     99 N          -2.8086  -24.8437  -52.5209 N.am      18 UNK        -0.5000 
    100 CA        -3.2501  -25.9794  -53.3371 C.3       18 UNK         0.1400 
    101 CB        -2.0388  -26.8262  -53.7803 C.3       18 UNK        -0.1800 
    102 C         -4.1601  -25.5601  -54.5110 C.2       18 UNK         0.5000 
    103 O         -3.9038  -25.9221  -55.6609 O.2       18 UNK        -0.5000 
    104 N         -5.2068  -24.7907  -54.1835 N.am      19 UNK        -0.5000 
    105 CA        -6.2457  -24.2615  -55.0714 C.3       19 UNK         0.1400 
    106 CB        -7.0253  -25.3974  -55.7673 C.3       19 UNK        -0.1800 
    107 C         -5.7548  -23.1776  -56.0541 C.2       19 UNK         0.5000 
    108 O         -6.4468  -22.8904  -57.0324 O.2       19 UNK        -0.5000 
    109 N         -4.6049  -22.5512  -55.7637 N.am      20 UNK        -0.5000 
    110 CA        -4.1001  -21.3805  -56.4900 C.3       20 UNK         0.1400 
    111 CB        -2.5918  -21.2416  -56.2458 C.3       20 UNK        -0.1800 
    112 C         -4.8310  -20.0772  -56.1039 C.2       20 UNK         0.5000 
    113 O         -4.7016  -19.0823  -56.8180 O.2       20 UNK        -0.5000 
    114 N         -5.5786  -20.1131  -54.9906 N.am      21 UNK        -0.5000 
    115 CA        -6.3598  -19.0293  -54.3911 C.3       21 UNK         0.1400 
    116 CB        -7.4350  -18.4970  -55.3627 C.3       21 UNK        -0.1800 
    117 C         -5.4741  -17.9228  -53.7838 C.2       21 UNK         0.5000 
    118 O         -5.8433  -16.7475  -53.8270 O.2       21 UNK        -0.5000 
    119 N         -4.3268  -18.3167  -53.2134 N.am      22 UNK        -0.5000 
    120 CA        -3.4444  -17.4238  -52.4512 C.3       22 UNK         0.1400 
    121 C         -4.0160  -17.1736  -51.0293 C.2       22 UNK         0.5000 
    122 N         -4.2728  -15.9270  -50.6586 N.am      22 UNK        -0.7600 
    123 O         -4.1934  -18.1047  -50.2478 O.2       22 UNK        -0.5000 
    124 C124       -1.9884  -17.9579  -52.3947 C.3       23 UNK        -0.0398 
    125 S125       -0.7657  -16.6016  -52.3050 S.3       23 UNK        -0.2404 
    126 C126       -0.5072  -16.4270  -50.5071 C.3       23 UNK        -0.0205 
    127 H127        4.9184   -8.9418  -49.6749 H         1 UNK         0.0600 
    128 H128        3.2901   -9.2031  -50.3091 H         1 UNK         0.0600 
    129 H129        4.5360  -10.4334  -50.5388 H         1 UNK         0.0600 
    130 H130        4.2748  -12.1742  -49.1662 H         1 UNK         0.3000 
    131 H131        3.6814  -11.7961  -46.3286 H         1 UNK         0.0600 
    132 H132        5.5444  -13.2442  -46.9326 H         1 UNK         0.0800 
    133 H133        4.3361  -14.1320  -46.0693 H         1 UNK         0.0800 
    134 H134        4.3448  -16.8786  -47.1326 H         1 UNK         0.0800 
    135 H135        2.9690  -15.8534  -46.8203 H         1 UNK         0.0800 
    136 H136        1.3812  -15.3597  -48.8644 H         1 UNK         0.1150 
    137 H137        0.4340  -18.9644  -50.9773 H         1 UNK         0.1150 
    138 H138        3.9542  -18.7669  -48.5484 H         1 UNK         0.1150 
    139 H139        1.9815  -20.8047  -50.9967 H         1 UNK         0.0800 
    140 H140        3.5852  -20.5989  -50.3364 H         1 UNK         0.0800 
    141 H141       -0.1540  -21.2120  -49.4416 H         1 UNK         0.0800 
    142 H142        0.2518  -20.0834  -48.1678 H         1 UNK         0.0800 
    143 H143       -0.1914  -23.0709  -47.7341 H         1 UNK         0.0600 
    144 H144        0.8609  -21.1433  -45.9609 H         1 UNK         0.3000 
    145 H145       -0.1938  -21.7274  -43.1371 H         1 UNK         0.0600 
    146 H146        1.3505  -23.2804  -41.9074 H         1 UNK         0.0600 
    147 H147       -0.0528  -24.0882  -42.5857 H         1 UNK         0.0600 
    148 H148        1.5073  -24.2546  -43.3710 H         1 UNK         0.0600 
    149 H149        1.4854  -20.4361  -43.6802 H         1 UNK         0.3000 
    150 H150        4.8776  -20.9450  -44.1990 H         1 UNK         0.0600 
    151 H151        4.2661  -21.0114  -46.6232 H         1 UNK         0.0600 
    152 H152        4.8073  -19.4097  -46.1536 H         1 UNK         0.0600 
    153 H153        3.0863  -19.7276  -46.3663 H         1 UNK         0.0600 
    154 H154        2.6137  -19.1052  -43.6384 H         1 UNK         0.3000 
    155 H155        4.7886  -17.0051  -41.7555 H         1 UNK         0.0600 
    156 H156        4.8542  -15.9041  -43.9821 H         1 UNK         0.0600 
    157 H157        3.6192  -15.1760  -42.9660 H         1 UNK         0.0600 
    158 H158        3.1620  -16.2917  -44.2493 H         1 UNK         0.0600 
    159 H159        1.9891  -16.8576  -42.0935 H         1 UNK         0.3000 
    160 H160        1.1224  -19.0300  -39.3844 H         1 UNK         0.0600 
    161 H161        1.2112  -15.9768  -39.6469 H         1 UNK         0.0600 
    162 H162        1.9035  -16.9187  -38.3309 H         1 UNK         0.0600 
    163 H163        0.1622  -16.8902  -38.5641 H         1 UNK         0.0600 
    164 H164        0.0379  -17.1985  -41.4850 H         1 UNK         0.3000 
    165 H165       -1.7775  -19.8228  -43.0137 H         1 UNK         0.0600 
    166 H166       -3.7430  -18.3125  -42.6307 H         1 UNK         0.0600 
    167 H167       -3.3487  -19.2196  -41.1797 H         1 UNK         0.0600 
    168 H168       -2.8879  -17.5266  -41.3082 H         1 UNK         0.0600 
    169 H169       -1.7905  -17.0373  -43.5132 H         1 UNK         0.3000 
    170 H170        1.2180  -16.7152  -45.3459 H         1 UNK         0.0600 
    171 H171       -0.3012  -17.7871  -46.9900 H         1 UNK         0.0600 
    172 H172       -1.6728  -16.8920  -46.3417 H         1 UNK         0.0600 
    173 H173       -0.3601  -16.0391  -47.1446 H         1 UNK         0.0600 
    174 H174       -0.6150  -14.7618  -45.1806 H         1 UNK         0.3000 
    175 H175       -0.8481  -13.5059  -42.0879 H         1 UNK         0.0600 
    176 H176        1.5948  -12.5955  -43.7052 H         1 UNK         0.0600 
    177 H177        0.7159  -11.6157  -42.5320 H         1 UNK         0.0600 
    178 H178        1.5994  -13.0387  -42.0029 H         1 UNK         0.0600 
    179 H179       -0.6035  -12.3120  -44.7500 H         1 UNK         0.3000 
    180 H180       -3.8748  -13.1999  -45.8043 H         1 UNK         0.0600 
    181 H181       -2.6953  -10.4485  -45.1622 H         1 UNK         0.0600 
    182 H182       -4.2651  -11.0641  -44.6790 H         1 UNK         0.0600 
    183 H183       -3.9322  -10.7675  -46.3783 H         1 UNK         0.0600 
    184 H184       -2.3954  -13.5033  -47.3820 H         1 UNK         0.3000 
    185 H185       -0.3312  -13.7358  -48.3105 H         1 UNK         0.0600 
    186 H186       -0.1825  -12.4452  -50.4286 H         1 UNK         0.0600 
    187 H187       -1.7580  -12.2043  -49.6929 H         1 UNK         0.0600 
    188 H188       -0.5355  -10.9449  -49.5698 H         1 UNK         0.0600 
    189 H189        1.6685  -11.8026  -48.8367 H         1 UNK         0.3000 
    190 H190       -1.7777  -20.4148  -46.0262 H         1 UNK         0.3000 
    191 H191       -4.2138  -20.3205  -47.4848 H         1 UNK         0.0600 
    192 H192       -3.4972  -18.5584  -45.8812 H         1 UNK         0.0600 
    193 H193       -5.0846  -19.1809  -45.4589 H         1 UNK         0.0600 
    194 H194       -3.6755  -19.6913  -44.5411 H         1 UNK         0.0600 
    195 H195       -3.1785  -22.2909  -44.6938 H         1 UNK         0.3000 
    196 H196       -5.6791  -23.6839  -44.3280 H         1 UNK         0.0600 
    197 H197       -4.3335  -25.0929  -42.7822 H         1 UNK         0.0600 
    198 H198       -4.0441  -23.3877  -42.4758 H         1 UNK         0.0600 
    199 H199       -2.8475  -24.3442  -43.3489 H         1 UNK         0.0600 
    200 H200       -2.6840  -24.2926  -46.1469 H         1 UNK         0.3000 
    201 H201       -3.4541  -26.9175  -47.1196 H         1 UNK         0.0600 
    202 H202       -1.0692  -26.2053  -46.7564 H         1 UNK         0.0600 
    203 H203       -1.2372  -25.0422  -48.0707 H         1 UNK         0.0600 
    204 H204       -1.3709  -26.7624  -48.3959 H         1 UNK         0.0600 
    205 H205       -5.6003  -25.4651  -47.5960 H         1 UNK         0.3000 
    206 H206       -7.1754  -24.8710  -49.0486 H         1 UNK         0.0600 
    207 H207       -6.7647  -27.2205  -49.7736 H         1 UNK         0.0600 
    208 H208       -7.3118  -26.2342  -51.1181 H         1 UNK         0.0600 
    209 H209       -5.6113  -26.6622  -50.9826 H         1 UNK         0.0600 
    210 H210       -5.3613  -22.8300  -48.8080 H         1 UNK         0.3000 
    211 H211       -4.6863  -20.8796  -49.6504 H         1 UNK         0.0600 
    212 H212       -6.7957  -21.3151  -51.8289 H         1 UNK         0.0600 
    213 H213       -6.1075  -19.7783  -51.3124 H         1 UNK         0.0600 
    214 H214       -7.1221  -20.6907  -50.2127 H         1 UNK         0.0600 
    215 H215       -2.8911  -22.6077  -50.0859 H         1 UNK         0.3000 
    216 H216       -1.0833  -23.2738  -51.1518 H         1 UNK         0.0600 
    217 H217       -0.0452  -21.8460  -52.8854 H         1 UNK         0.0600 
    218 H218       -0.6896  -20.8520  -51.5916 H         1 UNK         0.0600 
    219 H219       -1.5496  -20.9685  -53.1140 H         1 UNK         0.0600 
    220 H220       -3.0338  -24.9161  -51.5297 H         1 UNK         0.3000 
    221 H221       -3.8615  -26.6037  -52.6848 H         1 UNK         0.0600 
    222 H222       -1.3850  -26.2766  -54.4583 H         1 UNK         0.0600 
    223 H223       -1.4443  -27.1407  -52.9225 H         1 UNK         0.0600 
    224 H224       -2.3628  -27.7294  -54.2985 H         1 UNK         0.0600 
    225 H225       -5.3296  -24.5291  -53.2057 H         1 UNK         0.3000 
    226 H226       -6.9493  -23.7516  -54.4119 H         1 UNK         0.0600 
    227 H227       -7.3671  -26.1402  -55.0465 H         1 UNK         0.0600 
    228 H228       -7.9097  -25.0109  -56.2749 H         1 UNK         0.0600 
    229 H229       -6.4195  -25.9079  -56.5162 H         1 UNK         0.0600 
    230 H230       -4.0750  -22.8483  -54.9545 H         1 UNK         0.3000 
    231 H231       -4.2537  -21.5386  -57.5595 H         1 UNK         0.0600 
    232 H232       -2.0582  -22.1470  -56.5358 H         1 UNK         0.0600 
    233 H233       -2.3781  -21.0457  -55.1967 H         1 UNK         0.0600 
    234 H234       -2.1744  -20.4172  -56.8250 H         1 UNK         0.0600 
    235 H235       -5.5197  -20.9576  -54.4362 H         1 UNK         0.3000 
    236 H236       -6.8921  -19.4780  -53.5531 H         1 UNK         0.0600 
    237 H237       -8.0295  -19.3110  -55.7777 H         1 UNK         0.0600 
    238 H238       -8.1224  -17.8232  -54.8502 H         1 UNK         0.0600 
    239 H239       -6.9975  -17.9423  -56.1930 H         1 UNK         0.0600 
    240 H240       -4.1286  -19.3110  -53.1623 H         1 UNK         0.3000 
    241 H241       -3.4243  -16.4719  -52.9865 H         1 UNK         0.0600 
    242 H242       -4.6423  -15.7595  -49.7366 H         1 UNK         0.3800 
    243 H243       -4.1457  -15.1523  -51.2910 H         1 UNK         0.3800 
    244 H244       -1.8447  -18.6683  -51.5791 H         1 UNK         0.0800 
    245 H245       -1.7619  -18.5083  -53.3088 H         1 UNK         0.0800 
    246 H246       -1.3507  -16.8403  -49.9541 H         1 UNK         0.0800 
    247 H247       -0.4948  -15.3596  -50.2831 H         1 UNK         0.0800 
@<TRIPOS>BOND
     1    1    2 1    
     2    1  127 1    
     3    1  128 1    
     4    1  129 1    
     5    2    3 2    
     6    2    4 am   BACKBONE|DICT|INTERRES
     7    4    5 1    
     8    4  130 1    
     9    5    6 1    
    10    5   65 1    
    11    5  131 1    
    12    6    7 1    
    13    6  132 1    
    14    6  133 1    
    15    7    8 1    
    16    8    9 1    
    17    8  134 1    
    18    8  135 1    
    19    9   10 ar   
    20    9   14 ar   
    21   10   11 ar   
    22   10  136 1    
    23   11   12 ar   
    24   11  126 1    
    25   12   13 ar   
    26   12  137 1    
    27   13   14 ar   
    28   13   15 1    
    29   14  138 1    
    30   15   16 1    
    31   15  139 1    
    32   15  140 1    
    33   16   17 1    
    34   17   18 1    
    35   17  141 1    
    36   17  142 1    
    37   18   19 1    
    38   18   67 1    
    39   18  143 1    
    40   19   20 am   BACKBONE|DICT|INTERRES
    41   19  144 1    
    42   20   21 2    
    43   20   22 1    
    44   22   23 1    
    45   22   24 1    
    46   22  145 1    
    47   23  146 1    
    48   23  147 1    
    49   23  148 1    
    50   24   25 am   BACKBONE|DICT|INTERRES
    51   24  149 1    
    52   25   26 2    
    53   25   27 1    
    54   27   28 1    
    55   27   29 1    
    56   27  150 1    
    57   28  151 1    
    58   28  152 1    
    59   28  153 1    
    60   29   30 am   BACKBONE|DICT|INTERRES
    61   29  154 1    
    62   30   31 2    
    63   30   32 1    
    64   32   33 1    
    65   32   34 1    
    66   32  155 1    
    67   33  156 1    
    68   33  157 1    
    69   33  158 1    
    70   34   35 am   BACKBONE|DICT|INTERRES
    71   34  159 1    
    72   35   36 2    
    73   35   37 1    
    74   37   38 1    
    75   37   39 1    
    76   37  160 1    
    77   38  161 1    
    78   38  162 1    
    79   38  163 1    
    80   39   40 am   BACKBONE|DICT|INTERRES
    81   39  164 1    
    82   40   41 2    
    83   40   42 1    
    84   42   43 1    
    85   42   44 1    
    86   42  165 1    
    87   43  166 1    
    88   43  167 1    
    89   43  168 1    
    90   44   45 am   BACKBONE|DICT|INTERRES
    91   44  169 1    
    92   45   46 2    
    93   45   47 1    
    94   47   48 1    
    95   47   49 1    
    96   47  170 1    
    97   48  171 1    
    98   48  172 1    
    99   48  173 1    
   100   49   50 am   BACKBONE|DICT|INTERRES
   101   49  174 1    
   102   50   51 2    
   103   50   52 1    
   104   52   53 1    
   105   52   54 1    
   106   52  175 1    
   107   53  176 1    
   108   53  177 1    
   109   53  178 1    
   110   54   55 am   BACKBONE|DICT|INTERRES
   111   54  179 1    
   112   55   56 2    
   113   55   57 1    
   114   57   58 1    
   115   57   59 1    
   116   57  180 1    
   117   58  181 1    
   118   58  182 1    
   119   58  183 1    
   120   59   60 am   BACKBONE|DICT|INTERRES
   121   59  184 1    
   122   60   61 2    
   123   60   62 1    
   124   62   63 1    
   125   62   64 1    
   126   62  185 1    
   127   63  186 1    
   128   63  187 1    
   129   63  188 1    
   130   64   65 am   BACKBONE|DICT|INTERRES
   131   64  189 1    
   132   65   66 2    
   133   67   68 2    
   134   67   69 am   BACKBONE|DICT|INTERRES
   135   69   70 1    
   136   69  190 1    
   137   70   71 1    
   138   70   72 1    
   139   70  191 1    
   140   71  192 1    
   141   71  193 1    
   142   71  194 1    
   143   72   73 2    
   144   72   74 am   BACKBONE|DICT|INTERRES
   145   74   75 1    
   146   74  195 1    
   147   75   76 1    
   148   75   77 1    
   149   75  196 1    
   150   76  197 1    
   151   76  198 1    
   152   76  199 1    
   153   77   78 2    
   154   77   79 am   BACKBONE|DICT|INTERRES
   155   79   80 1    
   156   79  200 1    
   157   80   81 1    
   158   80   82 1    
   159   80  201 1    
   160   81  202 1    
   161   81  203 1    
   162   81  204 1    
   163   82   83 2    
   164   82   84 am   BACKBONE|DICT|INTERRES
   165   84   85 1    
   166   84  205 1    
   167   85   86 1    
   168   85   87 1    
   169   85  206 1    
   170   86  207 1    
   171   86  208 1    
   172   86  209 1    
   173   87   88 2    
   174   87   89 am   BACKBONE|DICT|INTERRES
   175   89   90 1    
   176   89  210 1    
   177   90   91 1    
   178   90   92 1    
   179   90  211 1    
   180   91  212 1    
   181   91  213 1    
   182   91  214 1    
   183   92   93 2    
   184   92   94 am   BACKBONE|DICT|INTERRES
   185   94   95 1    
   186   94  215 1    
   187   95   96 1    
   188   95   97 1    
   189   95  216 1    
   190   96  217 1    
   191   96  218 1    
   192   96  219 1    
   193   97   98 2    
   194   97   99 am   BACKBONE|DICT|INTERRES
   195   99  100 1    
   196   99  220 1    
   197  100  101 1    
   198  100  102 1    
   199  100  221 1    
   200  101  222 1    
   201  101  223 1    
   202  101  224 1    
   203  102  103 2    
   204  102  104 am   BACKBONE|DICT|INTERRES
   205  104  105 1    
   206  104  225 1    
   207  105  106 1    
   208  105  107 1    
   209  105  226 1    
   210  106  227 1    
   211  106  228 1    
   212  106  229 1    
   213  107  108 2    
   214  107  109 am   BACKBONE|DICT|INTERRES
   215  109  110 1    
   216  109  230 1    
   217  110  111 1    
   218  110  112 1    
   219  110  231 1    
   220  111  232 1    
   221  111  233 1    
   222  111  234 1    
   223  112  113 2    
   224  112  114 am   BACKBONE|DICT|INTERRES
   225  114  115 1    
   226  114  235 1    
   227  115  116 1    
   228  115  117 1    
   229  115  236 1    
   230  116  237 1    
   231  116  238 1    
   232  116  239 1    
   233  117  118 2    
   234  117  119 am   BACKBONE|DICT|INTERRES
   235  119  120 1    
   236  119  240 1    
   237  120  121 1    
   238  120  124 1    
   239  120  241 1    
   240  121  122 am   BACKBONE|DICT|INTERRES
   241  121  123 2    
   242  122  242 1    
   243  122  243 1    
   244  124  125 1    
   245  124  244 1    
   246  124  245 1    
   247  125  126 1    
   248  126  246 1    
   249  126  247 1    
@<TRIPOS>SUBSTRUCTURE
     1 UNK         1 GROUP             0       ****    0 ROOT    
