@<TRIPOS>MOLECULE
3R540
247   249    1
SMALL
USER_CHARGES


@<TRIPOS>ATOM
      1 CA         -1.4070  -11.8477  -47.4437 C.3       0 UNK        -0.1800 
      2 C           0.0781  -11.8907  -47.1159 C.2       0 UNK         0.5000 
      3 O           0.4440  -11.8560  -45.9432 O.2       0 UNK        -0.5000 
      4 N           0.9326  -11.9386  -48.1469 N.am      1 UNK        -0.5000 
      5 CA          2.3985  -12.1046  -48.1113 C.3       1 UNK         0.1400 
      6 C6          2.8563  -13.4351  -47.4515 C.3       23 UNK        -0.0398 
      7 S7          2.1612  -14.9081  -48.2677 S.3       23 UNK        -0.2404 
      8 C8          3.5214  -15.3824  -49.3726 C.3       23 UNK        -0.0205 
      9 C9          3.1450  -16.6020  -50.1976 C.ar      23 UNK        -0.0193 
     10 C10         2.5204  -16.4500  -51.4389 C.ar      23 UNK        -0.1150 
     11 C11         2.1776  -17.5703  -52.2019 C.ar      23 UNK        -0.0193 
     12 C12         2.4573  -18.8494  -51.7113 C.ar      23 UNK        -0.1150 
     13 C13         3.0857  -19.0139  -50.4736 C.ar      23 UNK        -0.0193 
     14 C14         3.4295  -17.8851  -49.7232 C.ar      23 UNK        -0.1150 
     15 C15         3.4290  -20.4068  -49.9640 C.3       23 UNK        -0.0205 
     16 S16         2.6180  -20.7858  -48.3800 S.3       23 UNK        -0.2404 
     17 C17         0.8683  -20.9394  -48.8743 C.3       23 UNK        -0.0398 
     18 CA          0.1623  -22.0519  -48.0647 C.3       11 UNK         0.1400 
     19 N           0.0284  -21.7124  -46.6434 N.am      11 UNK        -0.5000 
     20 C          -0.3553  -22.5747  -45.6924 C.2       10 UNK         0.5000 
     21 O          -0.6136  -23.7581  -45.9081 O.2       10 UNK        -0.5000 
     22 CA         -0.5263  -22.0195  -44.2678 C.3       10 UNK         0.1400 
     23 CB          0.8283  -21.9318  -43.5499 C.3       10 UNK        -0.1800 
     24 N          -1.2025  -20.7210  -44.2369 N.am      10 UNK        -0.5000 
     25 C          -2.4589  -20.5163  -44.6603 C.2       9 UNK         0.5000 
     26 O          -3.1809  -21.4065  -45.1058 O.2       9 UNK        -0.5000 
     27 CA         -2.9984  -19.0775  -44.6095 C.3       9 UNK         0.1400 
     28 CB         -3.4678  -18.7235  -43.1908 C.3       9 UNK        -0.1800 
     29 N          -2.0242  -18.0890  -45.0616 N.am      9 UNK        -0.5000 
     30 C          -1.5151  -18.0176  -46.3003 C.2       8 UNK         0.5000 
     31 O          -1.8305  -18.7673  -47.2274 O.2       8 UNK        -0.5000 
     32 CA         -0.4203  -16.9568  -46.5114 C.3       8 UNK         0.1400 
     33 CB         -1.0346  -15.5478  -46.5318 C.3       8 UNK        -0.1800 
     34 N           0.6185  -17.0231  -45.4807 N.am      8 UNK        -0.5000 
     35 C           1.3527  -18.1105  -45.2007 C.2       7 UNK         0.5000 
     36 O           1.2610  -19.1789  -45.8025 O.2       7 UNK        -0.5000 
     37 CA          2.3003  -18.0074  -43.9959 C.3       7 UNK         0.1400 
     38 CB          3.6182  -17.3203  -44.3877 C.3       7 UNK        -0.1800 
     39 N           1.6686  -17.2979  -42.8826 N.am      7 UNK        -0.5000 
     40 C           0.6818  -17.8084  -42.1303 C.2       6 UNK         0.5000 
     41 O           0.2374  -18.9473  -42.2695 O.2       6 UNK        -0.5000 
     42 CA          0.0559  -16.8785  -41.0734 C.3       6 UNK         0.1400 
     43 CB          0.8914  -16.8826  -39.7846 C.3       6 UNK        -0.1800 
     44 N          -0.0912  -15.5038  -41.5506 N.am      6 UNK        -0.5000 
     45 C          -0.8949  -15.1332  -42.5573 C.2       5 UNK         0.5000 
     46 O          -1.6652  -15.9040  -43.1289 O.2       5 UNK        -0.5000 
     47 CA         -0.7883  -13.6708  -43.0364 C.3       5 UNK         0.1400 
     48 CB         -1.8674  -12.8060  -42.3693 C.3       5 UNK        -0.1800 
     49 N           0.5264  -13.0593  -42.8129 N.am      5 UNK        -0.5000 
     50 C           1.6783  -13.5078  -43.3288 C.2       4 UNK         0.5000 
     51 O           1.7701  -14.5340  -44.0088 O.2       4 UNK        -0.5000 
     52 CA          2.9402  -12.7056  -42.9789 C.3       4 UNK         0.1400 
     53 CB          3.2847  -12.8596  -41.4850 C.3       4 UNK        -0.1800 
     54 N           4.0502  -13.2041  -43.7874 N.am      4 UNK        -0.5000 
     55 C           5.1515  -12.5592  -44.1909 C.2       3 UNK         0.5000 
     56 O           5.9857  -13.1163  -44.9033 O.2       3 UNK        -0.5000 
     57 CA          5.3422  -11.0706  -43.8371 C.3       3 UNK         0.1400 
     58 CB          6.8252  -10.6613  -43.7826 C.3       3 UNK        -0.1800 
     59 N           4.6799  -10.3099  -44.8859 N.am      3 UNK        -0.5000 
     60 C           3.7660   -9.3508  -44.7212 C.2       2 UNK         0.5000 
     61 O           3.4579   -8.8789  -43.6266 O.2       2 UNK        -0.5000 
     62 CA          3.0243   -8.8819  -45.9895 C.3       2 UNK         0.1400 
     63 CB          3.8741   -7.9004  -46.8198 C.3       2 UNK        -0.1800 
     64 N           2.5125   -9.9990  -46.7985 N.am      2 UNK        -0.5000 
     65 C           3.1857  -10.9169  -47.5077 C.2       1 UNK         0.5000 
     66 O           4.4055  -10.8752  -47.6748 O.2       1 UNK        -0.5000 
     67 C          -1.1905  -22.4389  -48.6956 C.2       11 UNK         0.5000 
     68 O          -1.2434  -23.4133  -49.4472 O.2       11 UNK        -0.5000 
     69 N          -2.2625  -21.7156  -48.3404 N.am      12 UNK        -0.5000 
     70 CA         -3.6297  -22.0337  -48.7540 C.3       12 UNK         0.1400 
     71 CB         -4.5639  -20.8667  -48.4007 C.3       12 UNK        -0.1800 
     72 C          -4.1328  -23.3533  -48.1401 C.2       12 UNK         0.5000 
     73 O          -4.7022  -24.1771  -48.8561 O.2       12 UNK        -0.5000 
     74 N          -3.8862  -23.5488  -46.8366 N.am      13 UNK        -0.5000 
     75 CA         -4.2510  -24.7501  -46.0833 C.3       13 UNK         0.1400 
     76 CB         -3.9892  -24.5257  -44.5871 C.3       13 UNK        -0.1800 
     77 C          -3.5310  -26.0175  -46.5754 C.2       13 UNK         0.5000 
     78 O          -4.1623  -27.0703  -46.6650 O.2       13 UNK        -0.5000 
     79 N          -2.2460  -25.8928  -46.9365 N.am      14 UNK        -0.5000 
     80 CA         -1.4336  -26.9625  -47.5255 C.3       14 UNK         0.1400 
     81 CB          0.0223  -26.4877  -47.6461 C.3       14 UNK        -0.1800 
     82 C          -1.9584  -27.4457  -48.8926 C.2       14 UNK         0.5000 
     83 O          -1.7976  -28.6198  -49.2264 O.2       14 UNK        -0.5000 
     84 N          -2.6054  -26.5407  -49.6363 N.am      15 UNK        -0.5000 
     85 CA         -3.2885  -26.8092  -50.9007 C.3       15 UNK         0.1400 
     86 CB         -3.0983  -25.5871  -51.8092 C.3       15 UNK        -0.1800 
     87 C          -4.7871  -27.1307  -50.7102 C.2       15 UNK         0.5000 
     88 O          -5.5117  -27.2242  -51.7024 O.2       15 UNK        -0.5000 
     89 N          -5.2423  -27.2600  -49.4527 N.am      16 UNK        -0.5000 
     90 CA         -6.6174  -27.5379  -49.0162 C.3       16 UNK         0.1400 
     91 CB         -7.0131  -28.9803  -49.3934 C.3       16 UNK        -0.1800 
     92 C          -7.6507  -26.4960  -49.5000 C.2       16 UNK         0.5000 
     93 O          -8.8270  -26.8265  -49.6568 O.2       16 UNK        -0.5000 
     94 N          -7.1824  -25.2657  -49.7603 N.am      17 UNK        -0.5000 
     95 CA         -7.8926  -24.1329  -50.3627 C.3       17 UNK         0.1400 
     96 CB         -9.0109  -23.6293  -49.4281 C.3       17 UNK        -0.1800 
     97 C          -8.3944  -24.3801  -51.8056 C.2       17 UNK         0.5000 
     98 O          -9.1656  -23.5694  -52.3211 O.2       17 UNK        -0.5000 
     99 N          -7.9420  -25.4660  -52.4508 N.am      18 UNK        -0.5000 
    100 CA        -8.2561  -25.8017  -53.8429 C.3       18 UNK         0.1400 
    101 CB        -8.1230  -27.3209  -54.0299 C.3       18 UNK        -0.1800 
    102 C         -7.3502  -25.0511  -54.8383 C.2       18 UNK         0.5000 
    103 O         -7.6876  -24.9473  -56.0182 O.2       18 UNK        -0.5000 
    104 N         -6.2249  -24.5368  -54.3374 N.am      19 UNK        -0.5000 
    105 CA        -5.2428  -23.7088  -55.0192 C.3       19 UNK         0.1400 
    106 CB        -4.2720  -24.6028  -55.8153 C.3       19 UNK        -0.1800 
    107 C         -4.5261  -22.8707  -53.9461 C.2       19 UNK         0.5000 
    108 O         -4.8884  -22.9531  -52.7683 O.2       19 UNK        -0.5000 
    109 N         -3.5235  -22.0879  -54.3698 N.am      20 UNK        -0.5000 
    110 CA        -2.6440  -21.2629  -53.5313 C.3       20 UNK         0.1400 
    111 CB        -1.7010  -22.1503  -52.6928 C.3       20 UNK        -0.1800 
    112 C         -3.4142  -20.2373  -52.6752 C.2       20 UNK         0.5000 
    113 O         -3.1445  -20.0911  -51.4830 O.2       20 UNK        -0.5000 
    114 N         -4.3526  -19.5209  -53.3129 N.am      21 UNK        -0.5000 
    115 CA        -5.1907  -18.4788  -52.7018 C.3       21 UNK         0.1400 
    116 CB        -6.2044  -17.9833  -53.7442 C.3       21 UNK        -0.1800 
    117 C         -4.3981  -17.2939  -52.1059 C.2       21 UNK         0.5000 
    118 O         -4.9221  -16.5719  -51.2572 O.2       21 UNK        -0.5000 
    119 N         -3.1438  -17.1429  -52.5443 N.am      22 UNK        -0.5000 
    120 CA        -2.1016  -16.3073  -51.9371 C.3       22 UNK         0.1400 
    121 C         -1.6434  -16.7449  -50.5123 C.2       22 UNK         0.5000 
    122 N         -1.9714  -17.9393  -50.0307 N.am      22 UNK        -0.7600 
    123 O         -1.0025  -15.9607  -49.8230 O.2       22 UNK        -0.5000 
    124 C124       -0.8995  -16.1351  -52.9023 C.3       23 UNK        -0.0398 
    125 S125       -0.2469  -17.7186  -53.5516 S.3       23 UNK        -0.2404 
    126 C126        1.5444  -17.4060  -53.5752 C.3       23 UNK        -0.0205 
    127 H127       -1.8257  -10.8816  -47.1607 H         1 UNK         0.0600 
    128 H128       -1.5917  -12.0052  -48.5071 H         1 UNK         0.0600 
    129 H129       -1.9350  -12.6250  -46.8899 H         1 UNK         0.0600 
    130 H130        0.5446  -11.9306  -49.0797 H         1 UNK         0.3000 
    131 H131        2.7045  -12.1420  -49.1578 H         1 UNK         0.0600 
    132 H132        3.9446  -13.5214  -47.4516 H         1 UNK         0.0800 
    133 H133        2.5582  -13.4625  -46.4032 H         1 UNK         0.0800 
    134 H134        3.7675  -14.5462  -50.0290 H         1 UNK         0.0800 
    135 H135        4.4154  -15.5902  -48.7823 H         1 UNK         0.0800 
    136 H136        2.3067  -15.4581  -51.8110 H         1 UNK         0.1150 
    137 H137        2.1962  -19.7153  -52.3034 H         1 UNK         0.1150 
    138 H138        3.9147  -18.0078  -48.7649 H         1 UNK         0.1150 
    139 H139        3.1689  -21.1720  -50.6970 H         1 UNK         0.0800 
    140 H140        4.5091  -20.4709  -49.8265 H         1 UNK         0.0800 
    141 H141        0.8242  -21.1554  -49.9435 H         1 UNK         0.0800 
    142 H142        0.3731  -19.9767  -48.7331 H         1 UNK         0.0800 
    143 H143        0.7871  -22.9464  -48.1196 H         1 UNK         0.0600 
    144 H144        0.2780  -20.7629  -46.3775 H         1 UNK         0.3000 
    145 H145       -1.1496  -22.7243  -43.7143 H         1 UNK         0.0600 
    146 H146        0.7049  -21.6314  -42.5095 H         1 UNK         0.0600 
    147 H147        1.3323  -22.8990  -43.5499 H         1 UNK         0.0600 
    148 H148        1.4946  -21.2162  -44.0306 H         1 UNK         0.0600 
    149 H149       -0.6787  -19.9451  -43.8475 H         1 UNK         0.3000 
    150 H150       -3.8600  -19.0228  -45.2780 H         1 UNK         0.0600 
    151 H151       -4.2067  -19.4412  -42.8324 H         1 UNK         0.0600 
    152 H152       -3.9320  -17.7374  -43.1646 H         1 UNK         0.0600 
    153 H153       -2.6391  -18.7206  -42.4817 H         1 UNK         0.0600 
    154 H154       -1.7245  -17.4045  -44.3730 H         1 UNK         0.3000 
    155 H155        0.0586  -17.1439  -47.4747 H         1 UNK         0.0600 
    156 H156       -0.2662  -14.7817  -46.6173 H         1 UNK         0.0600 
    157 H157       -1.6150  -15.3382  -45.6363 H         1 UNK         0.0600 
    158 H158       -1.7107  -15.4303  -47.3779 H         1 UNK         0.0600 
    159 H159        0.7912  -16.1792  -44.9470 H         1 UNK         0.3000 
    160 H160        2.5379  -19.0197  -43.6629 H         1 UNK         0.0600 
    161 H161        3.4549  -16.3299  -44.8118 H         1 UNK         0.0600 
    162 H162        4.1472  -17.9074  -45.1395 H         1 UNK         0.0600 
    163 H163        4.2821  -17.2157  -43.5296 H         1 UNK         0.0600 
    164 H164        1.9111  -16.3221  -42.7769 H         1 UNK         0.3000 
    165 H165       -0.9386  -17.2638  -40.8382 H         1 UNK         0.0600 
    166 H166        1.8918  -16.4807  -39.9503 H         1 UNK         0.0600 
    167 H167        0.4154  -16.2885  -39.0042 H         1 UNK         0.0600 
    168 H168        1.0045  -17.8959  -39.3968 H         1 UNK         0.0600 
    169 H169        0.5029  -14.8056  -41.1293 H         1 UNK         0.3000 
    170 H170       -0.9675  -13.6643  -44.1127 H         1 UNK         0.0600 
    171 H171       -2.8616  -13.2216  -42.5401 H         1 UNK         0.0600 
    172 H172       -1.7198  -12.7387  -41.2907 H         1 UNK         0.0600 
    173 H173       -1.8668  -11.7937  -42.7741 H         1 UNK         0.0600 
    174 H174        0.5345  -12.2141  -42.2609 H         1 UNK         0.3000 
    175 H175        2.7346  -11.6612  -43.2144 H         1 UNK         0.0600 
    176 H176        4.1986  -12.3293  -41.2203 H         1 UNK         0.0600 
    177 H177        2.4912  -12.4605  -40.8523 H         1 UNK         0.0600 
    178 H178        3.4242  -13.9071  -41.2141 H         1 UNK         0.0600 
    179 H179        3.8928  -14.1475  -44.1159 H         1 UNK         0.3000 
    180 H180        4.9052  -10.8617  -42.8607 H         1 UNK         0.0600 
    181 H181        7.3233  -10.8014  -44.7430 H         1 UNK         0.0600 
    182 H182        7.3647  -11.2511  -43.0405 H         1 UNK         0.0600 
    183 H183        6.9306   -9.6125  -43.5047 H         1 UNK         0.0600 
    184 H184        4.8378  -10.6396  -45.8352 H         1 UNK         0.3000 
    185 H185        2.1400   -8.3384  -45.6523 H         1 UNK         0.0600 
    186 H186        3.3325   -7.5590  -47.7020 H         1 UNK         0.0600 
    187 H187        4.1268   -7.0176  -46.2315 H         1 UNK         0.0600 
    188 H188        4.8125   -8.3445  -47.1525 H         1 UNK         0.0600 
    189 H189        1.5306  -10.2036  -46.6558 H         1 UNK         0.3000 
    190 H190       -2.1408  -20.9184  -47.7272 H         1 UNK         0.3000 
    191 H191       -3.6359  -22.1549  -49.8392 H         1 UNK         0.0600 
    192 H192       -4.2417  -19.9455  -48.8870 H         1 UNK         0.0600 
    193 H193       -5.5826  -21.0705  -48.7323 H         1 UNK         0.0600 
    194 H194       -4.5959  -20.6825  -47.3268 H         1 UNK         0.0600 
    195 H195       -3.4522  -22.7984  -46.3035 H         1 UNK         0.3000 
    196 H196       -5.3229  -24.9086  -46.2187 H         1 UNK         0.0600 
    197 H197       -4.2742  -25.4021  -44.0039 H         1 UNK         0.0600 
    198 H198       -4.5660  -23.6818  -44.2084 H         1 UNK         0.0600 
    199 H199       -2.9357  -24.3270  -44.3893 H         1 UNK         0.0600 
    200 H200       -1.7753  -25.0067  -46.7693 H         1 UNK         0.3000 
    201 H201       -1.4600  -27.8148  -46.8437 H         1 UNK         0.0600 
    202 H202        0.4371  -26.2373  -46.6697 H         1 UNK         0.0600 
    203 H203        0.1048  -25.6050  -48.2813 H         1 UNK         0.0600 
    204 H204        0.6543  -27.2649  -48.0776 H         1 UNK         0.0600 
    205 H205       -2.6856  -25.5960  -49.2817 H         1 UNK         0.3000 
    206 H206       -2.8344  -27.6712  -51.3930 H         1 UNK         0.0600 
    207 H207       -2.0419  -25.3907  -51.9930 H         1 UNK         0.0600 
    208 H208       -3.5758  -25.7327  -52.7780 H         1 UNK         0.0600 
    209 H209       -3.5285  -24.6938  -51.3567 H         1 UNK         0.0600 
    210 H210       -4.5786  -27.1401  -48.6963 H         1 UNK         0.3000 
    211 H211       -6.6111  -27.4702  -47.9278 H         1 UNK         0.0600 
    212 H212       -7.1027  -29.1053  -50.4730 H         1 UNK         0.0600 
    213 H213       -7.9718  -29.2538  -48.9515 H         1 UNK         0.0600 
    214 H214       -6.2761  -29.6976  -49.0325 H         1 UNK         0.0600 
    215 H215       -6.2019  -25.0834  -49.5547 H         1 UNK         0.3000 
    216 H216       -7.1512  -23.3363  -50.4436 H         1 UNK         0.0600 
    217 H217       -8.6292  -23.4393  -48.4249 H         1 UNK         0.0600 
    218 H218       -9.8266  -24.3480  -49.3476 H         1 UNK         0.0600 
    219 H219       -9.4359  -22.6940  -49.7935 H         1 UNK         0.0600 
    220 H220       -7.2869  -26.0798  -51.9787 H         1 UNK         0.3000 
    221 H221       -9.2900  -25.5222  -54.0555 H         1 UNK         0.0600 
    222 H222       -7.0988  -27.6587  -53.8681 H         1 UNK         0.0600 
    223 H223       -8.7679  -27.8619  -53.3372 H         1 UNK         0.0600 
    224 H224       -8.4093  -27.6160  -55.0401 H         1 UNK         0.0600 
    225 H225       -6.0638  -24.6097  -53.3402 H         1 UNK         0.3000 
    226 H226       -5.7560  -23.0235  -55.6966 H         1 UNK         0.0600 
    227 H227       -4.8067  -25.2266  -56.5317 H         1 UNK         0.0600 
    228 H228       -3.5568  -24.0080  -56.3839 H         1 UNK         0.0600 
    229 H229       -3.7040  -25.2632  -55.1597 H         1 UNK         0.0600 
    230 H230       -3.3145  -22.0741  -55.3582 H         1 UNK         0.3000 
    231 H231       -2.0217  -20.6815  -54.2131 H         1 UNK         0.0600 
    232 H232       -0.9600  -21.5466  -52.1671 H         1 UNK         0.0600 
    233 H233       -1.1591  -22.8582  -53.3195 H         1 UNK         0.0600 
    234 H234       -2.2475  -22.7181  -51.9404 H         1 UNK         0.0600 
    235 H235       -4.5144  -19.7095  -54.2912 H         1 UNK         0.3000 
    236 H236       -5.7407  -18.9414  -51.8799 H         1 UNK         0.0600 
    237 H237       -6.8669  -17.2290  -53.3179 H         1 UNK         0.0600 
    238 H238       -5.7079  -17.5352  -54.6056 H         1 UNK         0.0600 
    239 H239       -6.8324  -18.7987  -54.1034 H         1 UNK         0.0600 
    240 H240       -2.8115  -17.7911  -53.2423 H         1 UNK         0.3000 
    241 H241       -2.5424  -15.3181  -51.8005 H         1 UNK         0.0600 
    242 H242       -2.4666  -18.6205  -50.6004 H         1 UNK         0.3800 
    243 H243       -1.7326  -18.1830  -49.0772 H         1 UNK         0.3800 
    244 H244       -1.2105  -15.5357  -53.7587 H         1 UNK         0.0800 
    245 H245       -0.1021  -15.5648  -52.4238 H         1 UNK         0.0800 
    246 H246        2.0103  -18.1078  -54.2684 H         1 UNK         0.0800 
    247 H247        1.7398  -16.4111  -53.9786 H         1 UNK         0.0800 
@<TRIPOS>BOND
     1    1    2 1    
     2    1  127 1    
     3    1  128 1    
     4    1  129 1    
     5    2    3 2    
     6    2    4 am   BACKBONE|DICT|INTERRES
     7    4    5 1    
     8    4  130 1    
     9    5    6 1    
    10    5   65 1    
    11    5  131 1    
    12    6    7 1    
    13    6  132 1    
    14    6  133 1    
    15    7    8 1    
    16    8    9 1    
    17    8  134 1    
    18    8  135 1    
    19    9   10 ar   
    20    9   14 ar   
    21   10   11 ar   
    22   10  136 1    
    23   11   12 ar   
    24   11  126 1    
    25   12   13 ar   
    26   12  137 1    
    27   13   14 ar   
    28   13   15 1    
    29   14  138 1    
    30   15   16 1    
    31   15  139 1    
    32   15  140 1    
    33   16   17 1    
    34   17   18 1    
    35   17  141 1    
    36   17  142 1    
    37   18   19 1    
    38   18   67 1    
    39   18  143 1    
    40   19   20 am   BACKBONE|DICT|INTERRES
    41   19  144 1    
    42   20   21 2    
    43   20   22 1    
    44   22   23 1    
    45   22   24 1    
    46   22  145 1    
    47   23  146 1    
    48   23  147 1    
    49   23  148 1    
    50   24   25 am   BACKBONE|DICT|INTERRES
    51   24  149 1    
    52   25   26 2    
    53   25   27 1    
    54   27   28 1    
    55   27   29 1    
    56   27  150 1    
    57   28  151 1    
    58   28  152 1    
    59   28  153 1    
    60   29   30 am   BACKBONE|DICT|INTERRES
    61   29  154 1    
    62   30   31 2    
    63   30   32 1    
    64   32   33 1    
    65   32   34 1    
    66   32  155 1    
    67   33  156 1    
    68   33  157 1    
    69   33  158 1    
    70   34   35 am   BACKBONE|DICT|INTERRES
    71   34  159 1    
    72   35   36 2    
    73   35   37 1    
    74   37   38 1    
    75   37   39 1    
    76   37  160 1    
    77   38  161 1    
    78   38  162 1    
    79   38  163 1    
    80   39   40 am   BACKBONE|DICT|INTERRES
    81   39  164 1    
    82   40   41 2    
    83   40   42 1    
    84   42   43 1    
    85   42   44 1    
    86   42  165 1    
    87   43  166 1    
    88   43  167 1    
    89   43  168 1    
    90   44   45 am   BACKBONE|DICT|INTERRES
    91   44  169 1    
    92   45   46 2    
    93   45   47 1    
    94   47   48 1    
    95   47   49 1    
    96   47  170 1    
    97   48  171 1    
    98   48  172 1    
    99   48  173 1    
   100   49   50 am   BACKBONE|DICT|INTERRES
   101   49  174 1    
   102   50   51 2    
   103   50   52 1    
   104   52   53 1    
   105   52   54 1    
   106   52  175 1    
   107   53  176 1    
   108   53  177 1    
   109   53  178 1    
   110   54   55 am   BACKBONE|DICT|INTERRES
   111   54  179 1    
   112   55   56 2    
   113   55   57 1    
   114   57   58 1    
   115   57   59 1    
   116   57  180 1    
   117   58  181 1    
   118   58  182 1    
   119   58  183 1    
   120   59   60 am   BACKBONE|DICT|INTERRES
   121   59  184 1    
   122   60   61 2    
   123   60   62 1    
   124   62   63 1    
   125   62   64 1    
   126   62  185 1    
   127   63  186 1    
   128   63  187 1    
   129   63  188 1    
   130   64   65 am   BACKBONE|DICT|INTERRES
   131   64  189 1    
   132   65   66 2    
   133   67   68 2    
   134   67   69 am   BACKBONE|DICT|INTERRES
   135   69   70 1    
   136   69  190 1    
   137   70   71 1    
   138   70   72 1    
   139   70  191 1    
   140   71  192 1    
   141   71  193 1    
   142   71  194 1    
   143   72   73 2    
   144   72   74 am   BACKBONE|DICT|INTERRES
   145   74   75 1    
   146   74  195 1    
   147   75   76 1    
   148   75   77 1    
   149   75  196 1    
   150   76  197 1    
   151   76  198 1    
   152   76  199 1    
   153   77   78 2    
   154   77   79 am   BACKBONE|DICT|INTERRES
   155   79   80 1    
   156   79  200 1    
   157   80   81 1    
   158   80   82 1    
   159   80  201 1    
   160   81  202 1    
   161   81  203 1    
   162   81  204 1    
   163   82   83 2    
   164   82   84 am   BACKBONE|DICT|INTERRES
   165   84   85 1    
   166   84  205 1    
   167   85   86 1    
   168   85   87 1    
   169   85  206 1    
   170   86  207 1    
   171   86  208 1    
   172   86  209 1    
   173   87   88 2    
   174   87   89 am   BACKBONE|DICT|INTERRES
   175   89   90 1    
   176   89  210 1    
   177   90   91 1    
   178   90   92 1    
   179   90  211 1    
   180   91  212 1    
   181   91  213 1    
   182   91  214 1    
   183   92   93 2    
   184   92   94 am   BACKBONE|DICT|INTERRES
   185   94   95 1    
   186   94  215 1    
   187   95   96 1    
   188   95   97 1    
   189   95  216 1    
   190   96  217 1    
   191   96  218 1    
   192   96  219 1    
   193   97   98 2    
   194   97   99 am   BACKBONE|DICT|INTERRES
   195   99  100 1    
   196   99  220 1    
   197  100  101 1    
   198  100  102 1    
   199  100  221 1    
   200  101  222 1    
   201  101  223 1    
   202  101  224 1    
   203  102  103 2    
   204  102  104 am   BACKBONE|DICT|INTERRES
   205  104  105 1    
   206  104  225 1    
   207  105  106 1    
   208  105  107 1    
   209  105  226 1    
   210  106  227 1    
   211  106  228 1    
   212  106  229 1    
   213  107  108 2    
   214  107  109 am   BACKBONE|DICT|INTERRES
   215  109  110 1    
   216  109  230 1    
   217  110  111 1    
   218  110  112 1    
   219  110  231 1    
   220  111  232 1    
   221  111  233 1    
   222  111  234 1    
   223  112  113 2    
   224  112  114 am   BACKBONE|DICT|INTERRES
   225  114  115 1    
   226  114  235 1    
   227  115  116 1    
   228  115  117 1    
   229  115  236 1    
   230  116  237 1    
   231  116  238 1    
   232  116  239 1    
   233  117  118 2    
   234  117  119 am   BACKBONE|DICT|INTERRES
   235  119  120 1    
   236  119  240 1    
   237  120  121 1    
   238  120  124 1    
   239  120  241 1    
   240  121  122 am   BACKBONE|DICT|INTERRES
   241  121  123 2    
   242  122  242 1    
   243  122  243 1    
   244  124  125 1    
   245  124  244 1    
   246  124  245 1    
   247  125  126 1    
   248  126  246 1    
   249  126  247 1    
@<TRIPOS>SUBSTRUCTURE
     1 UNK         1 GROUP             0       ****    0 ROOT    
