@<TRIPOS>MOLECULE
3R540
247   249    1
SMALL
USER_CHARGES


@<TRIPOS>ATOM
      1 CA          0.7527   -9.0240  -44.7581 C.3       0 UNK        -0.1800 
      2 C           0.8357  -10.5421  -44.7323 C.2       0 UNK         0.5000 
      3 O           1.8658  -11.0906  -44.3389 O.2       0 UNK        -0.5000 
      4 N          -0.2425  -11.2247  -45.1404 N.am      1 UNK        -0.5000 
      5 CA         -0.3430  -12.6881  -45.2519 C.3       1 UNK         0.1400 
      6 C6         -1.6804  -13.1367  -45.8883 C.3       23 UNK        -0.0398 
      7 S7         -1.9216  -12.4417  -47.5589 S.3       23 UNK        -0.2404 
      8 C8         -3.4972  -13.2108  -48.0515 C.3       23 UNK        -0.0205 
      9 C9         -3.2918  -14.6008  -48.6352 C.ar      23 UNK        -0.0193 
     10 C10        -3.1046  -14.7665  -50.0110 C.ar      23 UNK        -0.1150 
     11 C11        -2.9160  -16.0409  -50.5565 C.ar      23 UNK        -0.0193 
     12 C12        -2.9044  -17.1548  -49.7115 C.ar      23 UNK        -0.1150 
     13 C13        -3.0992  -17.0003  -48.3362 C.ar      23 UNK        -0.0193 
     14 C14        -3.2994  -15.7238  -47.8050 C.ar      23 UNK        -0.1150 
     15 C15        -3.0674  -18.2027  -47.4126 C.3       23 UNK        -0.0205 
     16 S16        -4.7122  -18.9287  -47.1844 S.3       23 UNK        -0.2404 
     17 C17        -4.4664  -19.8888  -45.6520 C.3       23 UNK        -0.0398 
     18 CA         -3.9012  -21.3005  -45.9305 C.3       11 UNK         0.1400 
     19 N          -2.4522  -21.3017  -46.1940 N.am      11 UNK        -0.5000 
     20 C          -1.7602  -22.3638  -46.6344 C.2       10 UNK         0.5000 
     21 O          -2.2794  -23.4520  -46.8748 O.2       10 UNK        -0.5000 
     22 CA         -0.2429  -22.2089  -46.8012 C.3       10 UNK         0.1400 
     23 CB          0.0898  -21.5263  -48.1363 C.3       10 UNK        -0.1800 
     24 N           0.3333  -21.4621  -45.6849 N.am      10 UNK        -0.5000 
     25 C           0.5845  -21.9999  -44.4813 C.2       9 UNK         0.5000 
     26 O           0.4377  -23.1960  -44.2299 O.2       9 UNK        -0.5000 
     27 CA          1.0520  -21.0515  -43.3576 C.3       9 UNK         0.1400 
     28 CB          2.5857  -21.0129  -43.2909 C.3       9 UNK        -0.1800 
     29 N           0.5480  -19.6847  -43.4936 N.am      9 UNK        -0.5000 
     30 C          -0.7455  -19.3338  -43.4550 C.2       8 UNK         0.5000 
     31 O          -1.6628  -20.1285  -43.2451 O.2       8 UNK        -0.5000 
     32 CA         -1.0792  -17.8618  -43.7738 C.3       8 UNK         0.1400 
     33 CB         -1.1783  -17.0418  -42.4801 C.3       8 UNK        -0.1800 
     34 N          -0.1402  -17.2050  -44.6921 N.am      8 UNK        -0.5000 
     35 C           0.2423  -17.6619  -45.8954 C.2       7 UNK         0.5000 
     36 O          -0.1741  -18.7114  -46.3833 O.2       7 UNK        -0.5000 
     37 CA          1.2960  -16.8492  -46.6687 C.3       7 UNK         0.1400 
     38 CB          0.6240  -15.9517  -47.7184 C.3       7 UNK        -0.1800 
     39 N           2.1565  -16.0325  -45.8125 N.am      7 UNK        -0.5000 
     40 C           3.0062  -16.4959  -44.8851 C.2       6 UNK         0.5000 
     41 O           3.1454  -17.6952  -44.6363 O.2       6 UNK        -0.5000 
     42 CA          3.8078  -15.4432  -44.0849 C.3       6 UNK         0.1400 
     43 CB          5.1906  -15.9671  -43.6476 C.3       6 UNK        -0.1800 
     44 N           3.9444  -14.1380  -44.7465 N.am      6 UNK        -0.5000 
     45 C           4.5100  -13.8727  -45.9351 C.2       5 UNK         0.5000 
     46 O           4.9664  -14.7303  -46.6913 O.2       5 UNK        -0.5000 
     47 CA          4.5790  -12.3921  -46.3501 C.3       5 UNK         0.1400 
     48 CB          3.3748  -12.0129  -47.2248 C.3       5 UNK        -0.1800 
     49 N           4.6569  -11.4955  -45.1927 N.am      5 UNK        -0.5000 
     50 C           5.8006  -11.2476  -44.5383 C.2       4 UNK         0.5000 
     51 O           6.8881  -11.7236  -44.8687 O.2       4 UNK        -0.5000 
     52 CA          5.7457  -10.3076  -43.3195 C.3       4 UNK         0.1400 
     53 CB          6.0159   -8.8587  -43.7540 C.3       4 UNK        -0.1800 
     54 N           4.5028  -10.3423  -42.5472 N.am      4 UNK        -0.5000 
     55 C           4.0028  -11.4049  -41.9025 C.2       3 UNK         0.5000 
     56 O           4.4610  -12.5439  -41.9998 O.2       3 UNK        -0.5000 
     57 CA          2.8026  -11.1599  -40.9721 C.3       3 UNK         0.1400 
     58 CB          2.4167   -9.6758  -40.7989 C.3       3 UNK        -0.1800 
     59 N           1.6488  -11.8931  -41.4768 N.am      3 UNK        -0.5000 
     60 C           0.8541  -12.6864  -40.7473 C.2       2 UNK         0.5000 
     61 O           1.0473  -12.9267  -39.5544 O.2       2 UNK        -0.5000 
     62 CA         -0.3806  -13.2975  -41.4429 C.3       2 UNK         0.1400 
     63 CB         -1.6657  -13.0070  -40.6492 C.3       2 UNK        -0.1800 
     64 N          -0.5623  -12.8011  -42.8084 N.am      2 UNK        -0.5000 
     65 C          -0.1204  -13.4165  -43.9106 C.2       1 UNK         0.5000 
     66 O           0.4649  -14.4981  -43.9006 O.2       1 UNK        -0.5000 
     67 C          -4.2922  -22.2948  -44.8170 C.2       11 UNK         0.5000 
     68 O          -5.3361  -22.9387  -44.9268 O.2       11 UNK        -0.5000 
     69 N          -3.4108  -22.4774  -43.8237 N.am      12 UNK        -0.5000 
     70 CA         -3.5055  -23.5151  -42.7918 C.3       12 UNK         0.1400 
     71 CB         -2.3910  -23.2872  -41.7594 C.3       12 UNK        -0.1800 
     72 C          -3.4497  -24.9605  -43.3409 C.2       12 UNK         0.5000 
     73 O          -3.9013  -25.8803  -42.6582 O.2       12 UNK        -0.5000 
     74 N          -2.9259  -25.1319  -44.5618 N.am      13 UNK        -0.5000 
     75 CA         -2.8575  -26.3846  -45.3126 C.3       13 UNK         0.1400 
     76 CB         -1.3932  -26.6275  -45.7225 C.3       13 UNK        -0.1800 
     77 C          -3.8020  -26.3528  -46.5343 C.2       13 UNK         0.5000 
     78 O          -3.5206  -27.0086  -47.5386 O.2       13 UNK        -0.5000 
     79 N          -4.8946  -25.5764  -46.4456 N.am      14 UNK        -0.5000 
     80 CA         -5.9369  -25.3933  -47.4646 C.3       14 UNK         0.1400 
     81 CB         -6.7239  -26.7028  -47.6836 C.3       14 UNK        -0.1800 
     82 C          -5.3869  -24.7953  -48.7760 C.2       14 UNK         0.5000 
     83 O          -5.6541  -25.3158  -49.8597 O.2       14 UNK        -0.5000 
     84 N          -4.5889  -23.7288  -48.6335 N.am      15 UNK        -0.5000 
     85 CA         -3.8346  -23.0267  -49.6801 C.3       15 UNK         0.1400 
     86 CB         -4.7776  -22.3587  -50.7019 C.3       15 UNK        -0.1800 
     87 C          -2.7646  -23.9328  -50.3232 C.2       15 UNK         0.5000 
     88 O          -2.5598  -23.8819  -51.5339 O.2       15 UNK        -0.5000 
     89 N          -2.1191  -24.7573  -49.4834 N.am      16 UNK        -0.5000 
     90 CA         -1.1747  -25.8245  -49.8291 C.3       16 UNK         0.1400 
     91 CB          0.1434  -25.2324  -50.3696 C.3       16 UNK        -0.1800 
     92 C          -1.8127  -26.8709  -50.7684 C.2       16 UNK         0.5000 
     93 O          -1.2423  -27.2039  -51.8084 O.2       16 UNK        -0.5000 
     94 N          -3.0054  -27.3452  -50.3759 N.am      17 UNK        -0.5000 
     95 CA         -3.9113  -28.2196  -51.1274 C.3       17 UNK         0.1400 
     96 CB         -3.3075  -29.6300  -51.2892 C.3       17 UNK        -0.1800 
     97 C          -4.3402  -27.5805  -52.4651 C.2       17 UNK         0.5000 
     98 O          -4.0853  -28.1354  -53.5366 O.2       17 UNK        -0.5000 
     99 N          -4.9548  -26.3942  -52.3638 N.am      18 UNK        -0.5000 
    100 CA        -5.4139  -25.4856  -53.4215 C.3       18 UNK         0.1400 
    101 CB        -6.4421  -26.1563  -54.3523 C.3       18 UNK        -0.1800 
    102 C         -4.2773  -24.8207  -54.2212 C.2       18 UNK         0.5000 
    103 O         -4.2927  -23.5988  -54.3788 O.2       18 UNK        -0.5000 
    104 N         -3.3214  -25.6273  -54.7033 N.am      19 UNK        -0.5000 
    105 CA        -2.1303  -25.2504  -55.4678 C.3       19 UNK         0.1400 
    106 CB        -1.0787  -24.6231  -54.5253 C.3       19 UNK        -0.1800 
    107 C         -2.4774  -24.3785  -56.6953 C.2       19 UNK         0.5000 
    108 O         -3.2589  -24.8127  -57.5438 O.2       19 UNK        -0.5000 
    109 N         -1.9071  -23.1694  -56.7623 N.am      20 UNK        -0.5000 
    110 CA        -2.1528  -22.1741  -57.8057 C.3       20 UNK         0.1400 
    111 CB        -0.8920  -21.3047  -57.9491 C.3       20 UNK        -0.1800 
    112 C         -3.3863  -21.2891  -57.5298 C.2       20 UNK         0.5000 
    113 O         -3.7027  -20.4424  -58.3669 O.2       20 UNK        -0.5000 
    114 N         -4.0342  -21.4510  -56.3633 N.am      21 UNK        -0.5000 
    115 CA        -5.1970  -20.6914  -55.8804 C.3       21 UNK         0.1400 
    116 CB        -6.4583  -21.0847  -56.6764 C.3       21 UNK        -0.1800 
    117 C         -4.9538  -19.1651  -55.8446 C.2       21 UNK         0.5000 
    118 O         -5.8353  -18.3849  -56.2090 O.2       21 UNK        -0.5000 
    119 N         -3.7348  -18.7833  -55.4389 N.am      22 UNK        -0.5000 
    120 CA        -3.1825  -17.4155  -55.4522 C.3       22 UNK         0.1400 
    121 C         -2.8813  -16.8452  -56.8746 C.2       22 UNK         0.5000 
    122 N         -2.9810  -17.6149  -57.9522 N.am      22 UNK        -0.7600 
    123 O         -2.5109  -15.6816  -57.0064 O.2       22 UNK        -0.5000 
    124 C124       -3.9760  -16.3992  -54.5797 C.3       23 UNK        -0.0398 
    125 S125       -4.2016  -16.9195  -52.8435 S.3       23 UNK        -0.2404 
    126 C126       -2.7199  -16.2103  -52.0560 C.3       23 UNK        -0.0205 
    127 H127        1.6015   -8.6131  -45.3048 H         1 UNK         0.0600 
    128 H128        0.7754   -8.6292  -43.7430 H         1 UNK         0.0600 
    129 H129       -0.1618   -8.6772  -45.2396 H         1 UNK         0.0600 
    130 H130       -1.0509  -10.7133  -45.4658 H         1 UNK         0.3000 
    131 H131        0.4599  -13.0142  -45.9139 H         1 UNK         0.0600 
    132 H132       -2.5233  -12.8381  -45.2623 H         1 UNK         0.0800 
    133 H133       -1.7188  -14.2241  -45.9581 H         1 UNK         0.0800 
    134 H134       -4.1776  -13.2503  -47.1994 H         1 UNK         0.0800 
    135 H135       -3.9800  -12.5711  -48.7918 H         1 UNK         0.0800 
    136 H136       -3.1067  -13.9000  -50.6574 H         1 UNK         0.1150 
    137 H137       -2.7533  -18.1416  -50.1265 H         1 UNK         0.1150 
    138 H138       -3.4566  -15.6062  -46.7423 H         1 UNK         0.1150 
    139 H139       -2.3895  -18.9597  -47.8080 H         1 UNK         0.0800 
    140 H140       -2.6738  -17.8952  -46.4463 H         1 UNK         0.0800 
    141 H141       -5.4495  -19.9522  -45.1811 H         1 UNK         0.0800 
    142 H142       -3.8389  -19.3417  -44.9481 H         1 UNK         0.0800 
    143 H143       -4.3878  -21.6691  -46.8343 H         1 UNK         0.0600 
    144 H144       -1.9482  -20.4482  -45.9994 H         1 UNK         0.3000 
    145 H145        0.1961  -23.2089  -46.8227 H         1 UNK         0.0600 
    146 H146       -0.3727  -20.5433  -48.2229 H         1 UNK         0.0600 
    147 H147        1.1659  -21.4023  -48.2578 H         1 UNK         0.0600 
    148 H148       -0.2648  -22.1258  -48.9758 H         1 UNK         0.0600 
    149 H149        0.4259  -20.4590  -45.8137 H         1 UNK         0.3000 
    150 H150        0.6768  -21.4522  -42.4136 H         1 UNK         0.0600 
    151 H151        2.9976  -22.0145  -43.1606 H         1 UNK         0.0600 
    152 H152        2.9294  -20.4084  -42.4512 H         1 UNK         0.0600 
    153 H153        3.0164  -20.5953  -44.2020 H         1 UNK         0.0600 
    154 H154        1.2327  -18.9714  -43.7073 H         1 UNK         0.3000 
    155 H155       -2.0609  -17.8510  -44.2464 H         1 UNK         0.0600 
    156 H156       -1.8439  -17.5197  -41.7599 H         1 UNK         0.0600 
    157 H157       -1.5796  -16.0480  -42.6777 H         1 UNK         0.0600 
    158 H158       -0.2043  -16.9249  -42.0035 H         1 UNK         0.0600 
    159 H159        0.2422  -16.3160  -44.3791 H         1 UNK         0.3000 
    160 H160        1.9344  -17.5645  -47.1909 H         1 UNK         0.0600 
    161 H161       -0.0115  -15.1966  -47.2583 H         1 UNK         0.0600 
    162 H162       -0.0030  -16.5384  -48.3915 H         1 UNK         0.0600 
    163 H163        1.3644  -15.4380  -48.3318 H         1 UNK         0.0600 
    164 H164        2.0845  -15.0324  -45.9157 H         1 UNK         0.3000 
    165 H165        3.2273  -15.2562  -43.1802 H         1 UNK         0.0600 
    166 H166        5.8128  -16.2277  -44.5043 H         1 UNK         0.0600 
    167 H167        5.7242  -15.2203  -43.0593 H         1 UNK         0.0600 
    168 H168        5.0963  -16.8590  -43.0272 H         1 UNK         0.0600 
    169 H169        3.6309  -13.3476  -44.1989 H         1 UNK         0.3000 
    170 H170        5.4763  -12.2623  -46.9592 H         1 UNK         0.0600 
    171 H171        2.4319  -12.1739  -46.7073 H         1 UNK         0.0600 
    172 H172        3.4183  -10.9661  -47.5258 H         1 UNK         0.0600 
    173 H173        3.3518  -12.6133  -48.1350 H         1 UNK         0.0600 
    174 H174        3.7838  -11.1101  -44.8447 H         1 UNK         0.3000 
    175 H175        6.5494  -10.6125  -42.6462 H         1 UNK         0.0600 
    176 H176        5.2207   -8.4780  -44.3964 H         1 UNK         0.0600 
    177 H177        6.0993   -8.1960  -42.8924 H         1 UNK         0.0600 
    178 H178        6.9513   -8.7839  -44.3103 H         1 UNK         0.0600 
    179 H179        4.0331   -9.4571  -42.4282 H         1 UNK         0.3000 
    180 H180        3.1015  -11.5444  -39.9949 H         1 UNK         0.0600 
    181 H181        2.0933   -9.2253  -41.7376 H         1 UNK         0.0600 
    182 H182        3.2515   -9.0908  -40.4106 H         1 UNK         0.0600 
    183 H183        1.5978   -9.5704  -40.0870 H         1 UNK         0.0600 
    184 H184        1.4740  -11.7926  -42.4706 H         1 UNK         0.3000 
    185 H185       -0.2312  -14.3784  -41.4544 H         1 UNK         0.0600 
    186 H186       -2.5334  -13.4634  -41.1259 H         1 UNK         0.0600 
    187 H187       -1.6054  -13.4114  -39.6380 H         1 UNK         0.0600 
    188 H188       -1.8529  -11.9358  -40.5648 H         1 UNK         0.0600 
    189 H189       -1.0107  -11.9011  -42.9047 H         1 UNK         0.3000 
    190 H190       -2.6067  -21.8601  -43.7717 H         1 UNK         0.3000 
    191 H191       -4.4672  -23.3958  -42.2891 H         1 UNK         0.0600 
    192 H192       -1.4024  -23.3910  -42.2072 H         1 UNK         0.0600 
    193 H193       -2.4565  -22.2914  -41.3203 H         1 UNK         0.0600 
    194 H194       -2.4593  -24.0078  -40.9435 H         1 UNK         0.0600 
    195 H195       -2.6035  -24.3168  -45.0706 H         1 UNK         0.3000 
    196 H196       -3.1783  -27.2211  -44.6893 H         1 UNK         0.0600 
    197 H197       -0.7414  -26.6546  -44.8491 H         1 UNK         0.0600 
    198 H198       -1.0255  -25.8444  -46.3862 H         1 UNK         0.0600 
    199 H199       -1.2791  -27.5808  -46.2399 H         1 UNK         0.0600 
    200 H200       -5.0166  -25.0277  -45.6031 H         1 UNK         0.3000 
    201 H201       -6.6330  -24.6557  -47.0624 H         1 UNK         0.0600 
    202 H202       -7.5712  -26.5409  -48.3509 H         1 UNK         0.0600 
    203 H203       -7.1209  -27.0855  -46.7434 H         1 UNK         0.0600 
    204 H204       -6.1044  -27.4823  -48.1280 H         1 UNK         0.0600 
    205 H205       -4.3488  -23.4645  -47.6882 H         1 UNK         0.3000 
    206 H206       -3.2880  -22.2240  -49.1845 H         1 UNK         0.0600 
    207 H207       -5.4914  -21.7010  -50.2060 H         1 UNK         0.0600 
    208 H208       -5.3404  -23.0914  -51.2781 H         1 UNK         0.0600 
    209 H209       -4.2163  -21.7505  -51.4123 H         1 UNK         0.0600 
    210 H210       -2.3473  -24.6773  -48.4987 H         1 UNK         0.3000 
    211 H211       -0.9440  -26.3474  -48.9000 H         1 UNK         0.0600 
    212 H212        0.5768  -24.5267  -49.6610 H         1 UNK         0.0600 
    213 H213        0.8818  -26.0167  -50.5394 H         1 UNK         0.0600 
    214 H214       -0.0023  -24.7108  -51.3158 H         1 UNK         0.0600 
    215 H215       -3.3505  -27.0414  -49.4688 H         1 UNK         0.3000 
    216 H216       -4.8153  -28.3163  -50.5241 H         1 UNK         0.0600 
    217 H217       -4.0198  -30.3042  -51.7658 H         1 UNK         0.0600 
    218 H218       -2.4063  -29.6220  -51.9028 H         1 UNK         0.0600 
    219 H219       -3.0500  -30.0603  -50.3214 H         1 UNK         0.0600 
    220 H220       -5.0995  -26.0283  -51.4230 H         1 UNK         0.3000 
    221 H221       -5.9363  -24.6830  -52.9000 H         1 UNK         0.0600 
    222 H222       -6.0021  -26.9630  -54.9388 H         1 UNK         0.0600 
    223 H223       -7.2764  -26.5691  -53.7851 H         1 UNK         0.0600 
    224 H224       -6.8537  -25.4326  -55.0568 H         1 UNK         0.0600 
    225 H225       -3.4265  -26.6183  -54.5047 H         1 UNK         0.3000 
    226 H226       -1.7108  -26.1773  -55.8607 H         1 UNK         0.0600 
    227 H227       -0.8377  -25.3035  -53.7090 H         1 UNK         0.0600 
    228 H228       -0.1454  -24.4150  -55.0497 H         1 UNK         0.0600 
    229 H229       -1.4316  -23.6936  -54.0768 H         1 UNK         0.0600 
    230 H230       -1.2897  -22.8918  -56.0130 H         1 UNK         0.3000 
    231 H231       -2.3243  -22.6832  -58.7563 H         1 UNK         0.0600 
    232 H232       -1.0043  -20.5775  -58.7545 H         1 UNK         0.0600 
    233 H233       -0.0184  -21.9127  -58.1850 H         1 UNK         0.0600 
    234 H234       -0.6787  -20.7498  -57.0346 H         1 UNK         0.0600 
    235 H235       -3.7345  -22.1975  -55.7437 H         1 UNK         0.3000 
    236 H236       -5.3539  -20.9963  -54.8447 H         1 UNK         0.0600 
    237 H237       -7.3497  -20.6199  -56.2537 H         1 UNK         0.0600 
    238 H238       -6.3903  -20.7762  -57.7201 H         1 UNK         0.0600 
    239 H239       -6.6148  -22.1633  -56.6546 H         1 UNK         0.0600 
    240 H240       -3.0852  -19.5077  -55.1706 H         1 UNK         0.3000 
    241 H241       -2.1972  -17.5136  -54.9958 H         1 UNK         0.0600 
    242 H242       -2.7673  -17.2196  -58.8540 H         1 UNK         0.3800 
    243 H243       -3.2954  -18.5782  -57.8979 H         1 UNK         0.3800 
    244 H244       -3.4868  -15.4242  -54.5846 H         1 UNK         0.0800 
    245 H245       -4.9639  -16.2255  -55.0075 H         1 UNK         0.0800 
    246 H246       -2.4815  -15.2470  -52.5090 H         1 UNK         0.0800 
    247 H247       -1.8642  -16.8600  -52.2456 H         1 UNK         0.0800 
@<TRIPOS>BOND
     1    1    2 1    
     2    1  127 1    
     3    1  128 1    
     4    1  129 1    
     5    2    3 2    
     6    2    4 am   BACKBONE|DICT|INTERRES
     7    4    5 1    
     8    4  130 1    
     9    5    6 1    
    10    5   65 1    
    11    5  131 1    
    12    6    7 1    
    13    6  132 1    
    14    6  133 1    
    15    7    8 1    
    16    8    9 1    
    17    8  134 1    
    18    8  135 1    
    19    9   10 ar   
    20    9   14 ar   
    21   10   11 ar   
    22   10  136 1    
    23   11   12 ar   
    24   11  126 1    
    25   12   13 ar   
    26   12  137 1    
    27   13   14 ar   
    28   13   15 1    
    29   14  138 1    
    30   15   16 1    
    31   15  139 1    
    32   15  140 1    
    33   16   17 1    
    34   17   18 1    
    35   17  141 1    
    36   17  142 1    
    37   18   19 1    
    38   18   67 1    
    39   18  143 1    
    40   19   20 am   BACKBONE|DICT|INTERRES
    41   19  144 1    
    42   20   21 2    
    43   20   22 1    
    44   22   23 1    
    45   22   24 1    
    46   22  145 1    
    47   23  146 1    
    48   23  147 1    
    49   23  148 1    
    50   24   25 am   BACKBONE|DICT|INTERRES
    51   24  149 1    
    52   25   26 2    
    53   25   27 1    
    54   27   28 1    
    55   27   29 1    
    56   27  150 1    
    57   28  151 1    
    58   28  152 1    
    59   28  153 1    
    60   29   30 am   BACKBONE|DICT|INTERRES
    61   29  154 1    
    62   30   31 2    
    63   30   32 1    
    64   32   33 1    
    65   32   34 1    
    66   32  155 1    
    67   33  156 1    
    68   33  157 1    
    69   33  158 1    
    70   34   35 am   BACKBONE|DICT|INTERRES
    71   34  159 1    
    72   35   36 2    
    73   35   37 1    
    74   37   38 1    
    75   37   39 1    
    76   37  160 1    
    77   38  161 1    
    78   38  162 1    
    79   38  163 1    
    80   39   40 am   BACKBONE|DICT|INTERRES
    81   39  164 1    
    82   40   41 2    
    83   40   42 1    
    84   42   43 1    
    85   42   44 1    
    86   42  165 1    
    87   43  166 1    
    88   43  167 1    
    89   43  168 1    
    90   44   45 am   BACKBONE|DICT|INTERRES
    91   44  169 1    
    92   45   46 2    
    93   45   47 1    
    94   47   48 1    
    95   47   49 1    
    96   47  170 1    
    97   48  171 1    
    98   48  172 1    
    99   48  173 1    
   100   49   50 am   BACKBONE|DICT|INTERRES
   101   49  174 1    
   102   50   51 2    
   103   50   52 1    
   104   52   53 1    
   105   52   54 1    
   106   52  175 1    
   107   53  176 1    
   108   53  177 1    
   109   53  178 1    
   110   54   55 am   BACKBONE|DICT|INTERRES
   111   54  179 1    
   112   55   56 2    
   113   55   57 1    
   114   57   58 1    
   115   57   59 1    
   116   57  180 1    
   117   58  181 1    
   118   58  182 1    
   119   58  183 1    
   120   59   60 am   BACKBONE|DICT|INTERRES
   121   59  184 1    
   122   60   61 2    
   123   60   62 1    
   124   62   63 1    
   125   62   64 1    
   126   62  185 1    
   127   63  186 1    
   128   63  187 1    
   129   63  188 1    
   130   64   65 am   BACKBONE|DICT|INTERRES
   131   64  189 1    
   132   65   66 2    
   133   67   68 2    
   134   67   69 am   BACKBONE|DICT|INTERRES
   135   69   70 1    
   136   69  190 1    
   137   70   71 1    
   138   70   72 1    
   139   70  191 1    
   140   71  192 1    
   141   71  193 1    
   142   71  194 1    
   143   72   73 2    
   144   72   74 am   BACKBONE|DICT|INTERRES
   145   74   75 1    
   146   74  195 1    
   147   75   76 1    
   148   75   77 1    
   149   75  196 1    
   150   76  197 1    
   151   76  198 1    
   152   76  199 1    
   153   77   78 2    
   154   77   79 am   BACKBONE|DICT|INTERRES
   155   79   80 1    
   156   79  200 1    
   157   80   81 1    
   158   80   82 1    
   159   80  201 1    
   160   81  202 1    
   161   81  203 1    
   162   81  204 1    
   163   82   83 2    
   164   82   84 am   BACKBONE|DICT|INTERRES
   165   84   85 1    
   166   84  205 1    
   167   85   86 1    
   168   85   87 1    
   169   85  206 1    
   170   86  207 1    
   171   86  208 1    
   172   86  209 1    
   173   87   88 2    
   174   87   89 am   BACKBONE|DICT|INTERRES
   175   89   90 1    
   176   89  210 1    
   177   90   91 1    
   178   90   92 1    
   179   90  211 1    
   180   91  212 1    
   181   91  213 1    
   182   91  214 1    
   183   92   93 2    
   184   92   94 am   BACKBONE|DICT|INTERRES
   185   94   95 1    
   186   94  215 1    
   187   95   96 1    
   188   95   97 1    
   189   95  216 1    
   190   96  217 1    
   191   96  218 1    
   192   96  219 1    
   193   97   98 2    
   194   97   99 am   BACKBONE|DICT|INTERRES
   195   99  100 1    
   196   99  220 1    
   197  100  101 1    
   198  100  102 1    
   199  100  221 1    
   200  101  222 1    
   201  101  223 1    
   202  101  224 1    
   203  102  103 2    
   204  102  104 am   BACKBONE|DICT|INTERRES
   205  104  105 1    
   206  104  225 1    
   207  105  106 1    
   208  105  107 1    
   209  105  226 1    
   210  106  227 1    
   211  106  228 1    
   212  106  229 1    
   213  107  108 2    
   214  107  109 am   BACKBONE|DICT|INTERRES
   215  109  110 1    
   216  109  230 1    
   217  110  111 1    
   218  110  112 1    
   219  110  231 1    
   220  111  232 1    
   221  111  233 1    
   222  111  234 1    
   223  112  113 2    
   224  112  114 am   BACKBONE|DICT|INTERRES
   225  114  115 1    
   226  114  235 1    
   227  115  116 1    
   228  115  117 1    
   229  115  236 1    
   230  116  237 1    
   231  116  238 1    
   232  116  239 1    
   233  117  118 2    
   234  117  119 am   BACKBONE|DICT|INTERRES
   235  119  120 1    
   236  119  240 1    
   237  120  121 1    
   238  120  124 1    
   239  120  241 1    
   240  121  122 am   BACKBONE|DICT|INTERRES
   241  121  123 2    
   242  122  242 1    
   243  122  243 1    
   244  124  125 1    
   245  124  244 1    
   246  124  245 1    
   247  125  126 1    
   248  126  246 1    
   249  126  247 1    
@<TRIPOS>SUBSTRUCTURE
     1 UNK         1 GROUP             0       ****    0 ROOT    
