@<TRIPOS>MOLECULE
3R540
247   249    1
SMALL
USER_CHARGES


@<TRIPOS>ATOM
      1 CA          3.2761  -17.8748  -47.4770 C.3       0 UNK        -0.1800 
      2 C           3.9673  -16.6124  -47.9537 C.2       0 UNK         0.5000 
      3 O           5.0712  -16.3270  -47.4902 O.2       0 UNK        -0.5000 
      4 N           3.3197  -15.8814  -48.8772 N.am      1 UNK        -0.5000 
      5 CA          3.8067  -14.6841  -49.5854 C.3       1 UNK         0.1400 
      6 C6          4.6177  -14.9883  -50.8851 C.3       23 UNK        -0.0398 
      7 S7          5.8595  -16.3326  -50.7972 S.3       23 UNK        -0.2404 
      8 C8          5.1775  -17.5793  -51.9437 C.3       23 UNK        -0.0205 
      9 C9          3.9833  -18.3400  -51.3755 C.ar      23 UNK        -0.0193 
     10 C10         2.6862  -17.8477  -51.5516 C.ar      23 UNK        -0.1150 
     11 C11         1.5838  -18.5568  -51.0703 C.ar      23 UNK        -0.0193 
     12 C12         1.7790  -19.7860  -50.4378 C.ar      23 UNK        -0.1150 
     13 C13         3.0660  -20.3022  -50.2672 C.ar      23 UNK        -0.0193 
     14 C14         4.1661  -19.5672  -50.7255 C.ar      23 UNK        -0.1150 
     15 C15         3.2541  -21.6861  -49.6585 C.3       23 UNK        -0.0205 
     16 S16         3.6173  -21.6678  -47.8712 S.3       23 UNK        -0.2404 
     17 C17         2.0868  -21.0191  -47.1125 C.3       23 UNK        -0.0398 
     18 CA          1.0509  -22.1115  -46.7512 C.3       11 UNK         0.1400 
     19 N           0.2432  -21.7441  -45.5847 N.am      11 UNK        -0.5000 
     20 C          -0.6179  -22.5673  -44.9689 C.2       10 UNK         0.5000 
     21 O          -0.7924  -23.7429  -45.2925 O.2       10 UNK        -0.5000 
     22 CA         -1.4603  -21.9654  -43.8301 C.3       10 UNK         0.1400 
     23 CB         -0.6390  -21.8709  -42.5360 C.3       10 UNK        -0.1800 
     24 N          -2.0225  -20.6543  -44.1643 N.am      10 UNK        -0.5000 
     25 C          -2.8886  -20.4401  -45.1661 C.2       9 UNK         0.5000 
     26 O          -3.3063  -21.3286  -45.9045 O.2       9 UNK        -0.5000 
     27 CA         -3.3404  -18.9921  -45.4194 C.3       9 UNK         0.1400 
     28 CB         -4.4296  -18.5793  -44.4190 C.3       9 UNK        -0.1800 
     29 N          -2.2380  -18.0338  -45.3758 N.am      9 UNK        -0.5000 
     30 C          -1.1787  -18.0533  -46.1973 C.2       8 UNK         0.5000 
     31 O          -1.0182  -18.8796  -47.0964 O.2       8 UNK        -0.5000 
     32 CA         -0.0764  -17.0191  -45.9125 C.3       8 UNK         0.1400 
     33 CB         -0.5104  -15.5978  -46.3008 C.3       8 UNK        -0.1800 
     34 N           0.3497  -17.0372  -44.5142 N.am      8 UNK        -0.5000 
     35 C           0.8469  -18.1049  -43.8729 C.2       7 UNK         0.5000 
     36 O           1.0666  -19.1919  -44.4072 O.2       7 UNK        -0.5000 
     37 CA          1.0890  -17.9426  -42.3639 C.3       7 UNK         0.1400 
     38 CB          2.4310  -17.2454  -42.0963 C.3       7 UNK        -0.1800 
     39 N           0.0046  -17.2013  -41.7186 N.am      7 UNK        -0.5000 
     40 C          -1.2379  -17.6770  -41.5508 C.2       6 UNK         0.5000 
     41 O          -1.5924  -18.8034  -41.8967 O.2       6 UNK        -0.5000 
     42 CA         -2.2673  -16.7165  -40.9287 C.3       6 UNK         0.1400 
     43 CB         -2.1167  -16.6714  -39.4008 C.3       6 UNK        -0.1800 
     44 N          -2.1654  -15.3605  -41.4689 N.am      6 UNK        -0.5000 
     45 C          -2.4389  -15.0322  -42.7392 C.2       5 UNK         0.5000 
     46 O          -2.8422  -15.8342  -43.5806 O.2       5 UNK        -0.5000 
     47 CA         -2.1809  -13.5711  -43.1507 C.3       5 UNK         0.1400 
     48 CB         -3.4222  -12.7088  -42.8787 C.3       5 UNK        -0.1800 
     49 N          -1.0174  -12.9616  -42.5007 N.am      5 UNK        -0.5000 
     50 C           0.2400  -13.4167  -42.5752 C.2       4 UNK         0.5000 
     51 O           0.5604  -14.4550  -43.1570 O.2       4 UNK        -0.5000 
     52 CA          1.3201  -12.5465  -41.9073 C.3       4 UNK         0.1400 
     53 CB          2.4422  -13.3998  -41.2915 C.3       4 UNK        -0.1800 
     54 N           1.9051  -11.6307  -42.8822 N.am      4 UNK        -0.5000 
     55 C           1.2937  -10.5622  -43.4122 C.2       3 UNK         0.5000 
     56 O           0.1915  -10.1552  -43.0421 O.2       3 UNK        -0.5000 
     57 CA          2.0337   -9.8183  -44.5437 C.3       3 UNK         0.1400 
     58 CB          2.6545   -8.5163  -44.0136 C.3       3 UNK        -0.1800 
     59 N           3.0830  -10.6141  -45.1903 N.am      3 UNK        -0.5000 
     60 C           2.8643  -11.6743  -45.9791 C.2       2 UNK         0.5000 
     61 O           1.7415  -12.1007  -46.2626 O.2       2 UNK        -0.5000 
     62 CA          4.1158  -12.3857  -46.5132 C.3       2 UNK         0.1400 
     63 CB          4.8288  -13.1636  -45.3920 C.3       2 UNK        -0.1800 
     64 N           3.7262  -13.3183  -47.5635 N.am      2 UNK        -0.5000 
     65 C           4.4409  -13.6233  -48.6525 C.2       1 UNK         0.5000 
     66 O           5.5345  -13.1183  -48.9152 O.2       1 UNK        -0.5000 
     67 C           0.1585  -22.4483  -47.9604 C.2       11 UNK         0.5000 
     68 O           0.3514  -23.4867  -48.5916 O.2       11 UNK        -0.5000 
     69 N          -0.8223  -21.5797  -48.2428 N.am      12 UNK        -0.5000 
     70 CA         -1.7687  -21.7397  -49.3437 C.3       12 UNK         0.1400 
     71 CB         -2.5810  -20.4494  -49.4954 C.3       12 UNK        -0.1800 
     72 C          -2.6802  -22.9690  -49.1806 C.2       12 UNK         0.5000 
     73 O          -2.9616  -23.6409  -50.1719 O.2       12 UNK        -0.5000 
     74 N          -3.0981  -23.2655  -47.9425 N.am      13 UNK        -0.5000 
     75 CA         -3.8472  -24.4692  -47.5833 C.3       13 UNK         0.1400 
     76 CB         -4.3424  -24.3676  -46.1323 C.3       13 UNK        -0.1800 
     77 C          -3.0201  -25.7503  -47.7828 C.2       13 UNK         0.5000 
     78 O          -3.5300  -26.7106  -48.3597 O.2       13 UNK        -0.5000 
     79 N          -1.7527  -25.7302  -47.3432 N.am      14 UNK        -0.5000 
     80 CA         -0.7966  -26.8280  -47.5144 C.3       14 UNK         0.1400 
     81 CB          0.4711  -26.5388  -46.6963 C.3       14 UNK        -0.1800 
     82 C          -0.4479  -27.0933  -48.9916 C.2       14 UNK         0.5000 
     83 O          -0.3311  -28.2519  -49.3923 O.2       14 UNK        -0.5000 
     84 N          -0.3250  -26.0168  -49.7789 N.am      15 UNK        -0.5000 
     85 CA         -0.1130  -26.0509  -51.2269 C.3       15 UNK         0.1400 
     86 CB          0.3829  -24.6684  -51.6815 C.3       15 UNK        -0.1800 
     87 C          -1.3692  -26.4536  -52.0280 C.2       15 UNK         0.5000 
     88 O          -1.2418  -26.7809  -53.2085 O.2       15 UNK        -0.5000 
     89 N          -2.5485  -26.3976  -51.3885 N.am      16 UNK        -0.5000 
     90 CA         -3.8890  -26.5811  -51.9570 C.3       16 UNK         0.1400 
     91 CB         -4.0977  -28.0346  -52.4291 C.3       16 UNK        -0.1800 
     92 C          -4.2075  -25.5324  -53.0447 C.2       16 UNK         0.5000 
     93 O          -4.8029  -25.8530  -54.0759 O.2       16 UNK        -0.5000 
     94 N          -3.7826  -24.2881  -52.7952 N.am      17 UNK        -0.5000 
     95 CA         -3.8752  -23.1541  -53.7071 C.3       17 UNK         0.1400 
     96 CB         -2.7856  -22.1335  -53.3320 C.3       17 UNK        -0.1800 
     97 C          -5.2861  -22.5403  -53.6922 C.2       17 UNK         0.5000 
     98 O          -5.4958  -21.5010  -53.0665 O.2       17 UNK        -0.5000 
     99 N          -6.2279  -23.2140  -54.3680 N.am      18 UNK        -0.5000 
    100 CA        -7.6001  -22.7774  -54.6597 C.3       18 UNK         0.1400 
    101 CB        -7.5779  -21.6750  -55.7387 C.3       18 UNK        -0.1800 
    102 C         -8.3982  -22.3696  -53.4027 C.2       18 UNK         0.5000 
    103 O         -8.9335  -21.2619  -53.3382 O.2       18 UNK        -0.5000 
    104 N         -8.4356  -23.2806  -52.4191 N.am      19 UNK        -0.5000 
    105 CA        -9.0623  -23.1224  -51.0999 C.3       19 UNK         0.1400 
    106 CB       -10.5917  -22.9472  -51.2198 C.3       19 UNK        -0.1800 
    107 C         -8.3824  -22.0270  -50.2498 C.2       19 UNK         0.5000 
    108 O         -9.0593  -21.2186  -49.6121 O.2       19 UNK        -0.5000 
    109 N         -7.0421  -22.0514  -50.2547 N.am      20 UNK        -0.5000 
    110 CA        -6.1285  -21.1834  -49.5068 C.3       20 UNK         0.1400 
    111 CB        -6.2967  -21.3765  -47.9859 C.3       20 UNK        -0.1800 
    112 C         -6.1807  -19.7030  -49.9411 C.2       20 UNK         0.5000 
    113 O         -6.0963  -18.8035  -49.1027 O.2       20 UNK        -0.5000 
    114 N         -6.2942  -19.4737  -51.2532 N.am      21 UNK        -0.5000 
    115 CA        -6.3067  -18.1575  -51.8807 C.3       21 UNK         0.1400 
    116 CB        -7.2118  -18.2153  -53.1232 C.3       21 UNK        -0.1800 
    117 C         -4.8670  -17.7331  -52.2223 C.2       21 UNK         0.5000 
    118 O         -4.4346  -17.8778  -53.3673 O.2       21 UNK        -0.5000 
    119 N         -4.1379  -17.2386  -51.2126 N.am      22 UNK        -0.5000 
    120 CA        -2.7535  -16.7469  -51.3508 C.3       22 UNK         0.1400 
    121 C         -2.6090  -15.4161  -52.1504 C.2       22 UNK         0.5000 
    122 N         -3.6641  -14.6280  -52.3217 N.am      22 UNK        -0.7600 
    123 O         -1.5280  -15.0996  -52.6377 O.2       22 UNK        -0.5000 
    124 C124       -2.0498  -16.6518  -49.9660 C.3       23 UNK        -0.0398 
    125 S125       -0.2234  -16.8293  -49.9191 S.3       23 UNK        -0.2404 
    126 C126        0.1803  -18.0057  -51.2480 C.3       23 UNK        -0.0205 
    127 H127        2.3483  -18.0493  -48.0210 H         1 UNK         0.0600 
    128 H128        3.0591  -17.8141  -46.4107 H         1 UNK         0.0600 
    129 H129        3.9310  -18.7288  -47.6435 H         1 UNK         0.0600 
    130 H130        2.4173  -16.2117  -49.1905 H         1 UNK         0.3000 
    131 H131        2.8938  -14.1946  -49.9292 H         1 UNK         0.0600 
    132 H132        3.9154  -15.2260  -51.6817 H         1 UNK         0.0800 
    133 H133        5.1223  -14.0919  -51.2486 H         1 UNK         0.0800 
    134 H134        4.9047  -17.1005  -52.8853 H         1 UNK         0.0800 
    135 H135        5.9713  -18.2855  -52.1915 H         1 UNK         0.0800 
    136 H136        2.5254  -16.9133  -52.0682 H         1 UNK         0.1150 
    137 H137        0.9243  -20.3473  -50.0903 H         1 UNK         0.1150 
    138 H138        5.1633  -19.9658  -50.6030 H         1 UNK         0.1150 
    139 H139        2.3787  -22.3058  -49.8517 H         1 UNK         0.0800 
    140 H140        4.0795  -22.1870  -50.1663 H         1 UNK         0.0800 
    141 H141        1.6473  -20.2316  -47.7234 H         1 UNK         0.0800 
    142 H142        2.4161  -20.5195  -46.2014 H         1 UNK         0.0800 
    143 H143        1.5901  -23.0209  -46.4770 H         1 UNK         0.0600 
    144 H144        0.3445  -20.7928  -45.2402 H         1 UNK         0.3000 
    145 H145       -2.2964  -22.6437  -43.6481 H         1 UNK         0.0600 
    146 H146       -1.2585  -21.5477  -41.6995 H         1 UNK         0.0600 
    147 H147       -0.2153  -22.8401  -42.2701 H         1 UNK         0.0600 
    148 H148        0.1870  -21.1663  -42.6332 H         1 UNK         0.0600 
    149 H149       -1.7516  -19.8778  -43.5688 H         1 UNK         0.3000 
    150 H150       -3.7704  -18.9520  -46.4226 H         1 UNK         0.0600 
    151 H151       -4.8251  -17.5912  -44.6543 H         1 UNK         0.0600 
    152 H152       -5.2664  -19.2785  -44.4414 H         1 UNK         0.0600 
    153 H153       -4.0484  -18.5521  -43.3975 H         1 UNK         0.0600 
    154 H154       -2.3008  -17.3066  -44.6680 H         1 UNK         0.3000 
    155 H155        0.7819  -17.2826  -46.5255 H         1 UNK         0.0600 
    156 H156       -1.3811  -15.2719  -45.7350 H         1 UNK         0.0600 
    157 H157       -0.7737  -15.5410  -47.3558 H         1 UNK         0.0600 
    158 H158        0.2903  -14.8783  -46.1266 H         1 UNK         0.0600 
    159 H159        0.2497  -16.1686  -43.9959 H         1 UNK         0.3000 
    160 H160        1.1311  -18.9393  -41.9199 H         1 UNK         0.0600 
    161 H161        2.4704  -16.2554  -42.5501 H         1 UNK         0.0600 
    162 H162        3.2573  -17.8252  -42.5096 H         1 UNK         0.0600 
    163 H163        2.6139  -17.1338  -41.0275 H         1 UNK         0.0600 
    164 H164        0.1956  -16.2414  -41.4723 H         1 UNK         0.3000 
    165 H165       -3.2629  -17.1002  -41.1619 H         1 UNK         0.0600 
    166 H166       -2.8933  -16.0560  -38.9464 H         1 UNK         0.0600 
    167 H167       -2.2026  -17.6705  -38.9714 H         1 UNK         0.0600 
    168 H168       -1.1491  -16.2671  -39.1008 H         1 UNK         0.0600 
    169 H169       -1.8390  -14.6384  -40.8440 H         1 UNK         0.3000 
    170 H170       -1.9926  -13.5607  -44.2255 H         1 UNK         0.0600 
    171 H171       -4.3023  -13.1245  -43.3714 H         1 UNK         0.0600 
    172 H172       -3.6421  -12.6440  -41.8124 H         1 UNK         0.0600 
    173 H173       -3.2886  -11.6950  -43.2567 H         1 UNK         0.0600 
    174 H174       -1.1742  -12.0700  -42.0514 H         1 UNK         0.3000 
    175 H175        0.8581  -11.9671  -41.1052 H         1 UNK         0.0600 
    176 H176        3.0057  -13.9394  -42.0536 H         1 UNK         0.0600 
    177 H177        3.1457  -12.7799  -40.7355 H         1 UNK         0.0600 
    178 H178        2.0384  -14.1366  -40.5960 H         1 UNK         0.0600 
    179 H179        2.7999  -11.8968  -43.2636 H         1 UNK         0.3000 
    180 H180        1.2901   -9.5583  -45.3001 H         1 UNK         0.0600 
    181 H181        3.4193   -8.7124  -43.2611 H         1 UNK         0.0600 
    182 H182        1.8969   -7.8804  -43.5535 H         1 UNK         0.0600 
    183 H183        3.1130   -7.9410  -44.8182 H         1 UNK         0.0600 
    184 H184        4.0345  -10.3283  -45.0079 H         1 UNK         0.3000 
    185 H185        4.7876  -11.6266  -46.9193 H         1 UNK         0.0600 
    186 H186        5.1686  -12.4975  -44.5985 H         1 UNK         0.0600 
    187 H187        4.1715  -13.9085  -44.9406 H         1 UNK         0.0600 
    188 H188        5.7070  -13.6852  -45.7734 H         1 UNK         0.0600 
    189 H189        2.8072  -13.7237  -47.4421 H         1 UNK         0.3000 
    190 H190       -0.9189  -20.7363  -47.6825 H         1 UNK         0.3000 
    191 H191       -1.1880  -21.8791  -50.2576 H         1 UNK         0.0600 
    192 H192       -1.9163  -19.5942  -49.5849 H         1 UNK         0.0600 
    193 H193       -3.1981  -20.4675  -50.3928 H         1 UNK         0.0600 
    194 H194       -3.2291  -20.2742  -48.6361 H         1 UNK         0.0600 
    195 H195       -2.8959  -22.6170  -47.1849 H         1 UNK         0.3000 
    196 H196       -4.7198  -24.5282  -48.2371 H         1 UNK         0.0600 
    197 H197       -4.9133  -25.2534  -45.8512 H         1 UNK         0.0600 
    198 H198       -4.9936  -23.5053  -45.9934 H         1 UNK         0.0600 
    199 H199       -3.5144  -24.2732  -45.4292 H         1 UNK         0.0600 
    200 H200       -1.4162  -24.9087  -46.8505 H         1 UNK         0.3000 
    201 H201       -1.2566  -27.7346  -47.1160 H         1 UNK         0.0600 
    202 H202        0.2390  -26.4285  -45.6369 H         1 UNK         0.0600 
    203 H203        0.9651  -25.6245  -47.0261 H         1 UNK         0.0600 
    204 H204        1.1906  -27.3532  -46.7892 H         1 UNK         0.0600 
    205 H205       -0.3487  -25.0966  -49.3466 H         1 UNK         0.3000 
    206 H206        0.6662  -26.7840  -51.4450 H         1 UNK         0.0600 
    207 H207        1.3030  -24.3900  -51.1673 H         1 UNK         0.0600 
    208 H208        0.5927  -24.6577  -52.7517 H         1 UNK         0.0600 
    209 H209       -0.3583  -23.8933  -51.4847 H         1 UNK         0.0600 
    210 H210       -2.5329  -26.1007  -50.4216 H         1 UNK         0.3000 
    211 H211       -4.5904  -26.3957  -51.1424 H         1 UNK         0.0600 
    212 H212       -3.4705  -28.2786  -53.2869 H         1 UNK         0.0600 
    213 H213       -5.1338  -28.2032  -52.7245 H         1 UNK         0.0600 
    214 H214       -3.8683  -28.7428  -51.6329 H         1 UNK         0.0600 
    215 H215       -3.3646  -24.0986  -51.8859 H         1 UNK         0.3000 
    216 H216       -3.6695  -23.4964  -54.7236 H         1 UNK         0.0600 
    217 H217       -2.8179  -21.2658  -53.9920 H         1 UNK         0.0600 
    218 H218       -1.7905  -22.5709  -53.4153 H         1 UNK         0.0600 
    219 H219       -2.9064  -21.7732  -52.3115 H         1 UNK         0.0600 
    220 H220       -5.9595  -24.1114  -54.7558 H         1 UNK         0.3000 
    221 H221       -8.1181  -23.6391  -55.0831 H         1 UNK         0.0600 
    222 H222       -7.0604  -20.7804  -55.3922 H         1 UNK         0.0600 
    223 H223       -7.0769  -22.0203  -56.6430 H         1 UNK         0.0600 
    224 H224       -8.5893  -21.3812  -56.0219 H         1 UNK         0.0600 
    225 H225       -7.9571  -24.1569  -52.5744 H         1 UNK         0.3000 
    226 H226       -8.8892  -24.0601  -50.5697 H         1 UNK         0.0600 
    227 H227      -11.0344  -23.7439  -51.8175 H         1 UNK         0.0600 
    228 H228      -11.0642  -22.9790  -50.2374 H         1 UNK         0.0600 
    229 H229      -10.8603  -21.9949  -51.6774 H         1 UNK         0.0600 
    230 H230       -6.5954  -22.7214  -50.8636 H         1 UNK         0.3000 
    231 H231       -5.1354  -21.5399  -49.7688 H         1 UNK         0.0600 
    232 H232       -7.2446  -20.9750  -47.6270 H         1 UNK         0.0600 
    233 H233       -5.5013  -20.8706  -47.4384 H         1 UNK         0.0600 
    234 H234       -6.2563  -22.4310  -47.7170 H         1 UNK         0.0600 
    235 H235       -6.2485  -20.2646  -51.8929 H         1 UNK         0.3000 
    236 H236       -6.7301  -17.4188  -51.1968 H         1 UNK         0.0600 
    237 H237       -8.2366  -18.4682  -52.8504 H         1 UNK         0.0600 
    238 H238       -7.2372  -17.2530  -53.6356 H         1 UNK         0.0600 
    239 H239       -6.8665  -18.9626  -53.8383 H         1 UNK         0.0600 
    240 H240       -4.5573  -17.1779  -50.2948 H         1 UNK         0.3000 
    241 H241       -2.2518  -17.5032  -51.9508 H         1 UNK         0.0600 
    242 H242       -3.5624  -13.7742  -52.8478 H         1 UNK         0.3800 
    243 H243       -4.5607  -14.8717  -51.9332 H         1 UNK         0.3800 
    244 H244       -2.3095  -15.7127  -49.4743 H         1 UNK         0.0800 
    245 H245       -2.4398  -17.4224  -49.3013 H         1 UNK         0.0800 
    246 H246        0.0988  -17.5076  -52.2153 H         1 UNK         0.0800 
    247 H247       -0.5343  -18.8287  -51.2549 H         1 UNK         0.0800 
@<TRIPOS>BOND
     1    1    2 1    
     2    1  127 1    
     3    1  128 1    
     4    1  129 1    
     5    2    3 2    
     6    2    4 am   BACKBONE|DICT|INTERRES
     7    4    5 1    
     8    4  130 1    
     9    5    6 1    
    10    5   65 1    
    11    5  131 1    
    12    6    7 1    
    13    6  132 1    
    14    6  133 1    
    15    7    8 1    
    16    8    9 1    
    17    8  134 1    
    18    8  135 1    
    19    9   10 ar   
    20    9   14 ar   
    21   10   11 ar   
    22   10  136 1    
    23   11   12 ar   
    24   11  126 1    
    25   12   13 ar   
    26   12  137 1    
    27   13   14 ar   
    28   13   15 1    
    29   14  138 1    
    30   15   16 1    
    31   15  139 1    
    32   15  140 1    
    33   16   17 1    
    34   17   18 1    
    35   17  141 1    
    36   17  142 1    
    37   18   19 1    
    38   18   67 1    
    39   18  143 1    
    40   19   20 am   BACKBONE|DICT|INTERRES
    41   19  144 1    
    42   20   21 2    
    43   20   22 1    
    44   22   23 1    
    45   22   24 1    
    46   22  145 1    
    47   23  146 1    
    48   23  147 1    
    49   23  148 1    
    50   24   25 am   BACKBONE|DICT|INTERRES
    51   24  149 1    
    52   25   26 2    
    53   25   27 1    
    54   27   28 1    
    55   27   29 1    
    56   27  150 1    
    57   28  151 1    
    58   28  152 1    
    59   28  153 1    
    60   29   30 am   BACKBONE|DICT|INTERRES
    61   29  154 1    
    62   30   31 2    
    63   30   32 1    
    64   32   33 1    
    65   32   34 1    
    66   32  155 1    
    67   33  156 1    
    68   33  157 1    
    69   33  158 1    
    70   34   35 am   BACKBONE|DICT|INTERRES
    71   34  159 1    
    72   35   36 2    
    73   35   37 1    
    74   37   38 1    
    75   37   39 1    
    76   37  160 1    
    77   38  161 1    
    78   38  162 1    
    79   38  163 1    
    80   39   40 am   BACKBONE|DICT|INTERRES
    81   39  164 1    
    82   40   41 2    
    83   40   42 1    
    84   42   43 1    
    85   42   44 1    
    86   42  165 1    
    87   43  166 1    
    88   43  167 1    
    89   43  168 1    
    90   44   45 am   BACKBONE|DICT|INTERRES
    91   44  169 1    
    92   45   46 2    
    93   45   47 1    
    94   47   48 1    
    95   47   49 1    
    96   47  170 1    
    97   48  171 1    
    98   48  172 1    
    99   48  173 1    
   100   49   50 am   BACKBONE|DICT|INTERRES
   101   49  174 1    
   102   50   51 2    
   103   50   52 1    
   104   52   53 1    
   105   52   54 1    
   106   52  175 1    
   107   53  176 1    
   108   53  177 1    
   109   53  178 1    
   110   54   55 am   BACKBONE|DICT|INTERRES
   111   54  179 1    
   112   55   56 2    
   113   55   57 1    
   114   57   58 1    
   115   57   59 1    
   116   57  180 1    
   117   58  181 1    
   118   58  182 1    
   119   58  183 1    
   120   59   60 am   BACKBONE|DICT|INTERRES
   121   59  184 1    
   122   60   61 2    
   123   60   62 1    
   124   62   63 1    
   125   62   64 1    
   126   62  185 1    
   127   63  186 1    
   128   63  187 1    
   129   63  188 1    
   130   64   65 am   BACKBONE|DICT|INTERRES
   131   64  189 1    
   132   65   66 2    
   133   67   68 2    
   134   67   69 am   BACKBONE|DICT|INTERRES
   135   69   70 1    
   136   69  190 1    
   137   70   71 1    
   138   70   72 1    
   139   70  191 1    
   140   71  192 1    
   141   71  193 1    
   142   71  194 1    
   143   72   73 2    
   144   72   74 am   BACKBONE|DICT|INTERRES
   145   74   75 1    
   146   74  195 1    
   147   75   76 1    
   148   75   77 1    
   149   75  196 1    
   150   76  197 1    
   151   76  198 1    
   152   76  199 1    
   153   77   78 2    
   154   77   79 am   BACKBONE|DICT|INTERRES
   155   79   80 1    
   156   79  200 1    
   157   80   81 1    
   158   80   82 1    
   159   80  201 1    
   160   81  202 1    
   161   81  203 1    
   162   81  204 1    
   163   82   83 2    
   164   82   84 am   BACKBONE|DICT|INTERRES
   165   84   85 1    
   166   84  205 1    
   167   85   86 1    
   168   85   87 1    
   169   85  206 1    
   170   86  207 1    
   171   86  208 1    
   172   86  209 1    
   173   87   88 2    
   174   87   89 am   BACKBONE|DICT|INTERRES
   175   89   90 1    
   176   89  210 1    
   177   90   91 1    
   178   90   92 1    
   179   90  211 1    
   180   91  212 1    
   181   91  213 1    
   182   91  214 1    
   183   92   93 2    
   184   92   94 am   BACKBONE|DICT|INTERRES
   185   94   95 1    
   186   94  215 1    
   187   95   96 1    
   188   95   97 1    
   189   95  216 1    
   190   96  217 1    
   191   96  218 1    
   192   96  219 1    
   193   97   98 2    
   194   97   99 am   BACKBONE|DICT|INTERRES
   195   99  100 1    
   196   99  220 1    
   197  100  101 1    
   198  100  102 1    
   199  100  221 1    
   200  101  222 1    
   201  101  223 1    
   202  101  224 1    
   203  102  103 2    
   204  102  104 am   BACKBONE|DICT|INTERRES
   205  104  105 1    
   206  104  225 1    
   207  105  106 1    
   208  105  107 1    
   209  105  226 1    
   210  106  227 1    
   211  106  228 1    
   212  106  229 1    
   213  107  108 2    
   214  107  109 am   BACKBONE|DICT|INTERRES
   215  109  110 1    
   216  109  230 1    
   217  110  111 1    
   218  110  112 1    
   219  110  231 1    
   220  111  232 1    
   221  111  233 1    
   222  111  234 1    
   223  112  113 2    
   224  112  114 am   BACKBONE|DICT|INTERRES
   225  114  115 1    
   226  114  235 1    
   227  115  116 1    
   228  115  117 1    
   229  115  236 1    
   230  116  237 1    
   231  116  238 1    
   232  116  239 1    
   233  117  118 2    
   234  117  119 am   BACKBONE|DICT|INTERRES
   235  119  120 1    
   236  119  240 1    
   237  120  121 1    
   238  120  124 1    
   239  120  241 1    
   240  121  122 am   BACKBONE|DICT|INTERRES
   241  121  123 2    
   242  122  242 1    
   243  122  243 1    
   244  124  125 1    
   245  124  244 1    
   246  124  245 1    
   247  125  126 1    
   248  126  246 1    
   249  126  247 1    
@<TRIPOS>SUBSTRUCTURE
     1 UNK         1 GROUP             0       ****    0 ROOT    
