@<TRIPOS>MOLECULE
3R540
247   249    1
SMALL
USER_CHARGES


@<TRIPOS>ATOM
      1 CA          3.7516  -11.1401  -52.7043 C.3       0 UNK        -0.1800 
      2 C           3.3127  -11.9742  -51.5090 C.2       0 UNK         0.5000 
      3 O           2.5955  -12.9570  -51.6924 O.2       0 UNK        -0.5000 
      4 N           3.7323  -11.5631  -50.3028 N.am      1 UNK        -0.5000 
      5 CA          3.5315  -12.1354  -48.9570 C.3       1 UNK         0.1400 
      6 C6          4.4370  -13.3574  -48.6253 C.3       23 UNK        -0.0398 
      7 S7          4.1982  -14.8619  -49.6325 S.3       23 UNK        -0.2404 
      8 C8          3.1803  -15.8664  -48.5121 C.3       23 UNK        -0.0205 
      9 C9          2.4005  -16.9417  -49.2480 C.ar      23 UNK        -0.0193 
     10 C10         1.4450  -16.5786  -50.1993 C.ar      23 UNK        -0.1150 
     11 C11         0.6685  -17.5491  -50.8337 C.ar      23 UNK        -0.0193 
     12 C12         0.8360  -18.8958  -50.4897 C.ar      23 UNK        -0.1150 
     13 C13         1.7892  -19.2775  -49.5363 C.ar      23 UNK        -0.0193 
     14 C14         2.5842  -18.2910  -48.9380 C.ar      23 UNK        -0.1150 
     15 C15         1.9501  -20.7536  -49.1720 C.3       23 UNK        -0.0205 
     16 S16         2.2785  -21.0388  -47.3965 S.3       23 UNK        -0.2404 
     17 C17         2.2587  -22.8606  -47.3004 C.3       23 UNK        -0.0398 
     18 CA          1.1382  -23.4390  -46.4024 C.3       11 UNK         0.1400 
     19 N           1.2553  -23.0197  -45.0027 N.am      11 UNK        -0.5000 
     20 C           0.6732  -23.6424  -43.9678 C.2       10 UNK         0.5000 
     21 O           0.0001  -24.6671  -44.0966 O.2       10 UNK        -0.5000 
     22 CA          0.8002  -22.9916  -42.5741 C.3       10 UNK         0.1400 
     23 CB          1.1558  -24.0164  -41.4784 C.3       10 UNK        -0.1800 
     24 N           1.6870  -21.8232  -42.5312 N.am      10 UNK        -0.5000 
     25 C           3.0223  -21.7725  -42.6408 C.2       9 UNK         0.5000 
     26 O           3.7419  -22.7623  -42.7736 O.2       9 UNK        -0.5000 
     27 CA          3.6646  -20.3696  -42.6319 C.3       9 UNK         0.1400 
     28 CB          4.0841  -19.9710  -44.0556 C.3       9 UNK        -0.1800 
     29 N           2.7842  -19.3277  -42.0975 N.am      9 UNK        -0.5000 
     30 C           2.4659  -19.1712  -40.8052 C.2       8 UNK         0.5000 
     31 O           2.9345  -19.8576  -39.8967 O.2       8 UNK        -0.5000 
     32 CA          1.4178  -18.0887  -40.4813 C.3       8 UNK         0.1400 
     33 CB          2.0686  -16.6998  -40.3959 C.3       8 UNK        -0.1800 
     34 N           0.3236  -18.0591  -41.4553 N.am      8 UNK        -0.5000 
     35 C          -0.5911  -19.0294  -41.5978 C.2       7 UNK         0.5000 
     36 O          -0.6313  -20.0405  -40.8974 O.2       7 UNK        -0.5000 
     37 CA         -1.6068  -18.8668  -42.7415 C.3       7 UNK         0.1400 
     38 CB         -2.7818  -17.9760  -42.3136 C.3       7 UNK        -0.1800 
     39 N          -0.9980  -18.3213  -43.9523 N.am      7 UNK        -0.5000 
     40 C          -0.1067  -18.9668  -44.7167 C.2       6 UNK         0.5000 
     41 O           0.2367  -20.1344  -44.5295 O.2       6 UNK        -0.5000 
     42 CA          0.5044  -18.1661  -45.8801 C.3       6 UNK         0.1400 
     43 CB         -0.4211  -18.2394  -47.1026 C.3       6 UNK        -0.1800 
     44 N           0.7705  -16.7685  -45.5271 N.am      6 UNK        -0.5000 
     45 C           1.6221  -16.3886  -44.5618 C.2       5 UNK         0.5000 
     46 O           2.3103  -17.1765  -43.9154 O.2       5 UNK        -0.5000 
     47 CA          1.6787  -14.8932  -44.2112 C.3       5 UNK         0.1400 
     48 CB          2.7616  -14.1742  -45.0214 C.3       5 UNK        -0.1800 
     49 N           0.3870  -14.2393  -44.4119 N.am      5 UNK        -0.5000 
     50 C          -0.6405  -14.3582  -43.5595 C.2       4 UNK         0.5000 
     51 O          -0.5785  -14.9839  -42.5002 O.2       4 UNK        -0.5000 
     52 CA         -1.9705  -13.7087  -43.9856 C.3       4 UNK         0.1400 
     53 CB         -1.9498  -12.1965  -43.7165 C.3       4 UNK        -0.1800 
     54 N          -2.2870  -13.9471  -45.3950 N.am      4 UNK        -0.5000 
     55 C          -2.5295  -15.1546  -45.9239 C.2       3 UNK         0.5000 
     56 O          -2.5594  -16.1912  -45.2617 O.2       3 UNK        -0.5000 
     57 CA         -2.7406  -15.2282  -47.4498 C.3       3 UNK         0.1400 
     58 CB         -4.2381  -15.2290  -47.7892 C.3       3 UNK        -0.1800 
     59 N          -2.0732  -14.1698  -48.2133 N.am      3 UNK        -0.5000 
     60 C          -0.7520  -13.9429  -48.2422 C.2       2 UNK         0.5000 
     61 O           0.0552  -14.5682  -47.5511 O.2       2 UNK        -0.5000 
     62 CA         -0.2962  -12.8380  -49.2195 C.3       2 UNK         0.1400 
     63 CB         -0.9302  -11.4739  -48.8715 C.3       2 UNK        -0.1800 
     64 N           1.1572  -12.7071  -49.3707 N.am      2 UNK        -0.5000 
     65 C           2.0636  -12.2890  -48.4792 C.2       1 UNK         0.5000 
     66 O           1.7829  -11.9654  -47.3243 O.2       1 UNK        -0.5000 
     67 C          -0.2694  -23.1726  -46.9755 C.2       11 UNK         0.5000 
     68 O          -0.6434  -23.8110  -47.9598 O.2       11 UNK        -0.5000 
     69 N          -1.0405  -22.2777  -46.3340 N.am      12 UNK        -0.5000 
     70 CA         -2.4350  -21.9922  -46.6676 C.3       12 UNK         0.1400 
     71 CB         -3.0041  -20.9074  -45.7434 C.3       12 UNK        -0.1800 
     72 C          -3.3349  -23.2358  -46.6381 C.2       12 UNK         0.5000 
     73 O          -4.1123  -23.4320  -47.5702 O.2       12 UNK        -0.5000 
     74 N          -3.1801  -24.0576  -45.5915 N.am      13 UNK        -0.5000 
     75 CA         -3.9113  -25.3103  -45.4110 C.3       13 UNK         0.1400 
     76 CB         -3.7694  -25.7710  -43.9526 C.3       13 UNK        -0.1800 
     77 C          -3.4368  -26.4102  -46.3758 C.2       13 UNK         0.5000 
     78 O          -4.2621  -27.1751  -46.8759 O.2       13 UNK        -0.5000 
     79 N          -2.1219  -26.4564  -46.6383 N.am      14 UNK        -0.5000 
     80 CA         -1.4908  -27.4018  -47.5632 C.3       14 UNK         0.1400 
     81 CB          0.0371  -27.3029  -47.4381 C.3       14 UNK        -0.1800 
     82 C          -1.9355  -27.1840  -49.0213 C.2       14 UNK         0.5000 
     83 O          -2.1765  -28.1554  -49.7379 O.2       14 UNK        -0.5000 
     84 N          -2.0856  -25.9120  -49.4101 N.am      15 UNK        -0.5000 
     85 CA         -2.6005  -25.4722  -50.7060 C.3       15 UNK         0.1400 
     86 CB         -1.7494  -24.2880  -51.1928 C.3       15 UNK        -0.1800 
     87 C          -4.1080  -25.1391  -50.6452 C.2       15 UNK         0.5000 
     88 O          -4.5693  -24.2679  -51.3873 O.2       15 UNK        -0.5000 
     89 N          -4.8445  -25.8288  -49.7597 N.am      16 UNK        -0.5000 
     90 CA         -6.2937  -25.8048  -49.5111 C.3       16 UNK         0.1400 
     91 CB         -7.0770  -26.2542  -50.7593 C.3       16 UNK        -0.1800 
     92 C          -6.8460  -24.4754  -48.9596 C.2       16 UNK         0.5000 
     93 O          -7.5330  -24.4786  -47.9371 O.2       16 UNK        -0.5000 
     94 N          -6.5387  -23.3734  -49.6450 N.am      17 UNK        -0.5000 
     95 CA         -6.8863  -22.0018  -49.2902 C.3       17 UNK         0.1400 
     96 CB         -8.3065  -21.6715  -49.7889 C.3       17 UNK        -0.1800 
     97 C          -5.8113  -21.0602  -49.8561 C.2       17 UNK         0.5000 
     98 O          -6.1356  -20.0642  -50.5058 O.2       17 UNK        -0.5000 
     99 N          -4.5385  -21.4343  -49.6554 N.am      18 UNK        -0.5000 
    100 CA        -3.3355  -20.7610  -50.1633 C.3       18 UNK         0.1400 
    101 CB        -3.1412  -19.3997  -49.4566 C.3       18 UNK        -0.1800 
    102 C         -3.3202  -20.6383  -51.7010 C.2       18 UNK         0.5000 
    103 O         -2.9123  -19.6025  -52.2199 O.2       18 UNK        -0.5000 
    104 N         -3.8125  -21.6712  -52.4036 N.am      19 UNK        -0.5000 
    105 CA        -4.0349  -21.7093  -53.8553 C.3       19 UNK         0.1400 
    106 CB        -2.6928  -21.7019  -54.6174 C.3       19 UNK        -0.1800 
    107 C         -5.0066  -20.6029  -54.3250 C.2       19 UNK         0.5000 
    108 O         -4.7451  -19.9233  -55.3198 O.2       19 UNK        -0.5000 
    109 N         -6.0921  -20.4220  -53.5561 N.am      20 UNK        -0.5000 
    110 CA        -7.0999  -19.3611  -53.6691 C.3       20 UNK         0.1400 
    111 CB        -7.9142  -19.5099  -54.9715 C.3       20 UNK        -0.1800 
    112 C         -6.4797  -17.9591  -53.4893 C.2       20 UNK         0.5000 
    113 O         -6.7525  -17.0538  -54.2794 O.2       20 UNK        -0.5000 
    114 N         -5.6311  -17.8314  -52.4571 N.am      21 UNK        -0.5000 
    115 CA        -4.7810  -16.6771  -52.1421 C.3       21 UNK         0.1400 
    116 CB        -5.6335  -15.4842  -51.6625 C.3       21 UNK        -0.1800 
    117 C         -3.8226  -16.3215  -53.3003 C.2       21 UNK         0.5000 
    118 O         -3.7333  -15.1592  -53.7009 O.2       21 UNK        -0.5000 
    119 N         -3.1277  -17.3472  -53.8094 N.am      22 UNK        -0.5000 
    120 CA        -2.2004  -17.3128  -54.9492 C.3       22 UNK         0.1400 
    121 C         -2.8886  -16.8510  -56.2674 C.2       22 UNK         0.5000 
    122 N         -3.9742  -17.5023  -56.6646 N.am      22 UNK        -0.7600 
    123 O         -2.4496  -15.9190  -56.9372 O.2       22 UNK        -0.5000 
    124 C124       -0.8815  -16.5586  -54.6186 C.3       23 UNK        -0.0398 
    125 S125        0.2368  -17.5369  -53.5571 S.3       23 UNK        -0.2404 
    126 C126       -0.3500  -17.1318  -51.8835 C.3       23 UNK        -0.0205 
    127 H127        4.3208  -11.7557  -53.4008 H         1 UNK         0.0600 
    128 H128        2.8798  -10.7484  -53.2284 H         1 UNK         0.0600 
    129 H129        4.3765  -10.2977  -52.4066 H         1 UNK         0.0600 
    130 H130        4.2876  -10.7189  -50.2885 H         1 UNK         0.3000 
    131 H131        3.9132  -11.3376  -48.3174 H         1 UNK         0.0600 
    132 H132        4.3535  -13.6135  -47.5684 H         1 UNK         0.0800 
    133 H133        5.4781  -13.0600  -48.7563 H         1 UNK         0.0800 
    134 H134        2.4574  -15.2266  -48.0138 H         1 UNK         0.0800 
    135 H135        3.8108  -16.2946  -47.7315 H         1 UNK         0.0800 
    136 H136        1.3085  -15.5339  -50.4413 H         1 UNK         0.1150 
    137 H137        0.2246  -19.6445  -50.9739 H         1 UNK         0.1150 
    138 H138        3.3254  -18.5687  -48.2024 H         1 UNK         0.1150 
    139 H139        1.0492  -21.3045  -49.4477 H         1 UNK         0.0800 
    140 H140        2.7686  -21.1712  -49.7595 H         1 UNK         0.0800 
    141 H141        3.2282  -23.1809  -46.9168 H         1 UNK         0.0800 
    142 H142        2.1914  -23.2828  -48.3047 H         1 UNK         0.0800 
    143 H143        1.2650  -24.5232  -46.4153 H         1 UNK         0.0600 
    144 H144        1.7234  -22.1403  -44.8330 H         1 UNK         0.3000 
    145 H145       -0.1930  -22.6042  -42.3430 H         1 UNK         0.0600 
    146 H146        1.2299  -23.5386  -40.5014 H         1 UNK         0.0600 
    147 H147        0.3892  -24.7885  -41.4035 H         1 UNK         0.0600 
    148 H148        2.1015  -24.5191  -41.6810 H         1 UNK         0.0600 
    149 H149        1.2060  -20.9349  -42.4817 H         1 UNK         0.3000 
    150 H150        4.5603  -20.4206  -42.0096 H         1 UNK         0.0600 
    151 H151        4.7473  -20.7162  -44.4969 H         1 UNK         0.0600 
    152 H152        4.6162  -19.0196  -44.0578 H         1 UNK         0.0600 
    153 H153        3.2196  -19.8693  -44.7124 H         1 UNK         0.0600 
    154 H154        2.4158  -18.6609  -42.7720 H         1 UNK         0.3000 
    155 H155        0.9902  -18.3210  -39.5037 H         1 UNK         0.0600 
    156 H156        2.5440  -16.4161  -41.3346 H         1 UNK         0.0600 
    157 H157        2.8367  -16.6782  -39.6220 H         1 UNK         0.0600 
    158 H158        1.3339  -15.9335  -40.1477 H         1 UNK         0.0600 
    159 H159        0.2771  -17.2557  -42.0674 H         1 UNK         0.3000 
    160 H160       -2.0002  -19.8574  -42.9744 H         1 UNK         0.0600 
    161 H161       -3.5371  -17.9198  -43.0979 H         1 UNK         0.0600 
    162 H162       -2.4573  -16.9592  -42.0904 H         1 UNK         0.0600 
    163 H163       -3.2675  -18.3710  -41.4205 H         1 UNK         0.0600 
    164 H164       -1.2996  -17.3948  -44.2365 H         1 UNK         0.3000 
    165 H165        1.4631  -18.6146  -46.1391 H         1 UNK         0.0600 
    166 H166       -0.1139  -17.5456  -47.8837 H         1 UNK         0.0600 
    167 H167       -0.4124  -19.2425  -47.5301 H         1 UNK         0.0600 
    168 H168       -1.4536  -18.0147  -46.8429 H         1 UNK         0.0600 
    169 H169        0.2831  -16.0545  -46.0563 H         1 UNK         0.3000 
    170 H170        1.9514  -14.8131  -43.1568 H         1 UNK         0.0600 
    171 H171        3.7310  -14.6605  -44.9053 H         1 UNK         0.0600 
    172 H172        2.5175  -14.1687  -46.0798 H         1 UNK         0.0600 
    173 H173        2.8724  -13.1384  -44.7004 H         1 UNK         0.0600 
    174 H174        0.2514  -13.7604  -45.2927 H         1 UNK         0.3000 
    175 H175       -2.7650  -14.1527  -43.3819 H         1 UNK         0.0600 
    176 H176       -2.9164  -11.7436  -43.9376 H         1 UNK         0.0600 
    177 H177       -1.7273  -11.9900  -42.6688 H         1 UNK         0.0600 
    178 H178       -1.1952  -11.6890  -44.3190 H         1 UNK         0.0600 
    179 H179       -2.2757  -13.1473  -46.0100 H         1 UNK         0.3000 
    180 H180       -2.3252  -16.1749  -47.7942 H         1 UNK         0.0600 
    181 H181       -4.7130  -14.2850  -47.5192 H         1 UNK         0.0600 
    182 H182       -4.7595  -16.0244  -47.2545 H         1 UNK         0.0600 
    183 H183       -4.4012  -15.3973  -48.8535 H         1 UNK         0.0600 
    184 H184       -2.6718  -13.6079  -48.8007 H         1 UNK         0.3000 
    185 H185       -0.6593  -13.1325  -50.2052 H         1 UNK         0.0600 
    186 H186       -0.6949  -11.1634  -47.8530 H         1 UNK         0.0600 
    187 H187       -0.5796  -10.6936  -49.5473 H         1 UNK         0.0600 
    188 H188       -2.0165  -11.5040  -48.9579 H         1 UNK         0.0600 
    189 H189        1.5270  -12.9476  -50.2897 H         1 UNK         0.3000 
    190 H190       -0.6316  -21.7542  -45.5678 H         1 UNK         0.3000 
    191 H191       -2.4386  -21.6099  -47.6839 H         1 UNK         0.0600 
    192 H192       -2.4973  -19.9568  -45.8891 H         1 UNK         0.0600 
    193 H193       -2.9150  -21.1864  -44.6937 H         1 UNK         0.0600 
    194 H194       -4.0615  -20.7335  -45.9483 H         1 UNK         0.0600 
    195 H195       -2.4894  -23.8289  -44.8912 H         1 UNK         0.3000 
    196 H196       -4.9691  -25.1244  -45.6112 H         1 UNK         0.0600 
    197 H197       -4.3149  -26.7001  -43.7817 H         1 UNK         0.0600 
    198 H198       -4.1714  -25.0277  -43.2639 H         1 UNK         0.0600 
    199 H199       -2.7266  -25.9474  -43.6846 H         1 UNK         0.0600 
    200 H200       -1.5169  -25.7859  -46.1869 H         1 UNK         0.3000 
    201 H201       -1.7921  -28.4089  -47.2676 H         1 UNK         0.0600 
    202 H202        0.3619  -27.4499  -46.4078 H         1 UNK         0.0600 
    203 H203        0.4085  -26.3350  -47.7743 H         1 UNK         0.0600 
    204 H204        0.5250  -28.0662  -48.0453 H         1 UNK         0.0600 
    205 H205       -1.8215  -25.1748  -48.7625 H         1 UNK         0.3000 
    206 H206       -2.4916  -26.2740  -51.4387 H         1 UNK         0.0600 
    207 H207       -0.6989  -24.5684  -51.2703 H         1 UNK         0.0600 
    208 H208       -2.0640  -23.9490  -52.1800 H         1 UNK         0.0600 
    209 H209       -1.8139  -23.4448  -50.5082 H         1 UNK         0.0600 
    210 H210       -4.3392  -26.4638  -49.1561 H         1 UNK         0.3000 
    211 H211       -6.4643  -26.5535  -48.7357 H         1 UNK         0.0600 
    212 H212       -6.9501  -25.5636  -51.5934 H         1 UNK         0.0600 
    213 H213       -8.1451  -26.3145  -50.5470 H         1 UNK         0.0600 
    214 H214       -6.7557  -27.2416  -51.0906 H         1 UNK         0.0600 
    215 H215       -5.9221  -23.4930  -50.4455 H         1 UNK         0.3000 
    216 H216       -6.8595  -21.8931  -48.2041 H         1 UNK         0.0600 
    217 H217       -8.5883  -20.6520  -49.5227 H         1 UNK         0.0600 
    218 H218       -9.0465  -22.3373  -49.3449 H         1 UNK         0.0600 
    219 H219       -8.3814  -21.7631  -50.8731 H         1 UNK         0.0600 
    220 H220       -4.3853  -22.2703  -49.0965 H         1 UNK         0.3000 
    221 H221       -2.4823  -21.3873  -49.9099 H         1 UNK         0.0600 
    222 H222       -3.9236  -18.6904  -49.7233 H         1 UNK         0.0600 
    223 H223       -3.1551  -19.5024  -48.3730 H         1 UNK         0.0600 
    224 H224       -2.1845  -18.9500  -49.7239 H         1 UNK         0.0600 
    225 H225       -4.1145  -22.5025  -51.9026 H         1 UNK         0.3000 
    226 H226       -4.5279  -22.6594  -54.0661 H         1 UNK         0.0600 
    227 H227       -2.0442  -22.5099  -54.2801 H         1 UNK         0.0600 
    228 H228       -2.8514  -21.8394  -55.6875 H         1 UNK         0.0600 
    229 H229       -2.1531  -20.7639  -54.4863 H         1 UNK         0.0600 
    230 H230       -6.1709  -20.9921  -52.7260 H         1 UNK         0.3000 
    231 H231       -7.7878  -19.4999  -52.8336 H         1 UNK         0.0600 
    232 H232       -8.3431  -20.5083  -55.0558 H         1 UNK         0.0600 
    233 H233       -7.3037  -19.3310  -55.8570 H         1 UNK         0.0600 
    234 H234       -8.7405  -18.7988  -54.9966 H         1 UNK         0.0600 
    235 H235       -5.5185  -18.6381  -51.8513 H         1 UNK         0.3000 
    236 H236       -4.1455  -16.9783  -51.3093 H         1 UNK         0.0600 
    237 H237       -5.0001  -14.6615  -51.3290 H         1 UNK         0.0600 
    238 H238       -6.2773  -15.1001  -52.4542 H         1 UNK         0.0600 
    239 H239       -6.2673  -15.7668  -50.8220 H         1 UNK         0.0600 
    240 H240       -3.2216  -18.2561  -53.3595 H         1 UNK         0.3000 
    241 H241       -1.9320  -18.3521  -55.1419 H         1 UNK         0.0600 
    242 H242       -4.4425  -17.2219  -57.5108 H         1 UNK         0.3800 
    243 H243       -4.3228  -18.2995  -56.1350 H         1 UNK         0.3800 
    244 H244       -0.3191  -16.3553  -55.5311 H         1 UNK         0.0800 
    245 H245       -1.0776  -15.5844  -54.1695 H         1 UNK         0.0800 
    246 H246       -1.2961  -17.6359  -51.6920 H         1 UNK         0.0800 
    247 H247       -0.5503  -16.0615  -51.8158 H         1 UNK         0.0800 
@<TRIPOS>BOND
     1    1    2 1    
     2    1  127 1    
     3    1  128 1    
     4    1  129 1    
     5    2    3 2    
     6    2    4 am   BACKBONE|DICT|INTERRES
     7    4    5 1    
     8    4  130 1    
     9    5    6 1    
    10    5   65 1    
    11    5  131 1    
    12    6    7 1    
    13    6  132 1    
    14    6  133 1    
    15    7    8 1    
    16    8    9 1    
    17    8  134 1    
    18    8  135 1    
    19    9   10 ar   
    20    9   14 ar   
    21   10   11 ar   
    22   10  136 1    
    23   11   12 ar   
    24   11  126 1    
    25   12   13 ar   
    26   12  137 1    
    27   13   14 ar   
    28   13   15 1    
    29   14  138 1    
    30   15   16 1    
    31   15  139 1    
    32   15  140 1    
    33   16   17 1    
    34   17   18 1    
    35   17  141 1    
    36   17  142 1    
    37   18   19 1    
    38   18   67 1    
    39   18  143 1    
    40   19   20 am   BACKBONE|DICT|INTERRES
    41   19  144 1    
    42   20   21 2    
    43   20   22 1    
    44   22   23 1    
    45   22   24 1    
    46   22  145 1    
    47   23  146 1    
    48   23  147 1    
    49   23  148 1    
    50   24   25 am   BACKBONE|DICT|INTERRES
    51   24  149 1    
    52   25   26 2    
    53   25   27 1    
    54   27   28 1    
    55   27   29 1    
    56   27  150 1    
    57   28  151 1    
    58   28  152 1    
    59   28  153 1    
    60   29   30 am   BACKBONE|DICT|INTERRES
    61   29  154 1    
    62   30   31 2    
    63   30   32 1    
    64   32   33 1    
    65   32   34 1    
    66   32  155 1    
    67   33  156 1    
    68   33  157 1    
    69   33  158 1    
    70   34   35 am   BACKBONE|DICT|INTERRES
    71   34  159 1    
    72   35   36 2    
    73   35   37 1    
    74   37   38 1    
    75   37   39 1    
    76   37  160 1    
    77   38  161 1    
    78   38  162 1    
    79   38  163 1    
    80   39   40 am   BACKBONE|DICT|INTERRES
    81   39  164 1    
    82   40   41 2    
    83   40   42 1    
    84   42   43 1    
    85   42   44 1    
    86   42  165 1    
    87   43  166 1    
    88   43  167 1    
    89   43  168 1    
    90   44   45 am   BACKBONE|DICT|INTERRES
    91   44  169 1    
    92   45   46 2    
    93   45   47 1    
    94   47   48 1    
    95   47   49 1    
    96   47  170 1    
    97   48  171 1    
    98   48  172 1    
    99   48  173 1    
   100   49   50 am   BACKBONE|DICT|INTERRES
   101   49  174 1    
   102   50   51 2    
   103   50   52 1    
   104   52   53 1    
   105   52   54 1    
   106   52  175 1    
   107   53  176 1    
   108   53  177 1    
   109   53  178 1    
   110   54   55 am   BACKBONE|DICT|INTERRES
   111   54  179 1    
   112   55   56 2    
   113   55   57 1    
   114   57   58 1    
   115   57   59 1    
   116   57  180 1    
   117   58  181 1    
   118   58  182 1    
   119   58  183 1    
   120   59   60 am   BACKBONE|DICT|INTERRES
   121   59  184 1    
   122   60   61 2    
   123   60   62 1    
   124   62   63 1    
   125   62   64 1    
   126   62  185 1    
   127   63  186 1    
   128   63  187 1    
   129   63  188 1    
   130   64   65 am   BACKBONE|DICT|INTERRES
   131   64  189 1    
   132   65   66 2    
   133   67   68 2    
   134   67   69 am   BACKBONE|DICT|INTERRES
   135   69   70 1    
   136   69  190 1    
   137   70   71 1    
   138   70   72 1    
   139   70  191 1    
   140   71  192 1    
   141   71  193 1    
   142   71  194 1    
   143   72   73 2    
   144   72   74 am   BACKBONE|DICT|INTERRES
   145   74   75 1    
   146   74  195 1    
   147   75   76 1    
   148   75   77 1    
   149   75  196 1    
   150   76  197 1    
   151   76  198 1    
   152   76  199 1    
   153   77   78 2    
   154   77   79 am   BACKBONE|DICT|INTERRES
   155   79   80 1    
   156   79  200 1    
   157   80   81 1    
   158   80   82 1    
   159   80  201 1    
   160   81  202 1    
   161   81  203 1    
   162   81  204 1    
   163   82   83 2    
   164   82   84 am   BACKBONE|DICT|INTERRES
   165   84   85 1    
   166   84  205 1    
   167   85   86 1    
   168   85   87 1    
   169   85  206 1    
   170   86  207 1    
   171   86  208 1    
   172   86  209 1    
   173   87   88 2    
   174   87   89 am   BACKBONE|DICT|INTERRES
   175   89   90 1    
   176   89  210 1    
   177   90   91 1    
   178   90   92 1    
   179   90  211 1    
   180   91  212 1    
   181   91  213 1    
   182   91  214 1    
   183   92   93 2    
   184   92   94 am   BACKBONE|DICT|INTERRES
   185   94   95 1    
   186   94  215 1    
   187   95   96 1    
   188   95   97 1    
   189   95  216 1    
   190   96  217 1    
   191   96  218 1    
   192   96  219 1    
   193   97   98 2    
   194   97   99 am   BACKBONE|DICT|INTERRES
   195   99  100 1    
   196   99  220 1    
   197  100  101 1    
   198  100  102 1    
   199  100  221 1    
   200  101  222 1    
   201  101  223 1    
   202  101  224 1    
   203  102  103 2    
   204  102  104 am   BACKBONE|DICT|INTERRES
   205  104  105 1    
   206  104  225 1    
   207  105  106 1    
   208  105  107 1    
   209  105  226 1    
   210  106  227 1    
   211  106  228 1    
   212  106  229 1    
   213  107  108 2    
   214  107  109 am   BACKBONE|DICT|INTERRES
   215  109  110 1    
   216  109  230 1    
   217  110  111 1    
   218  110  112 1    
   219  110  231 1    
   220  111  232 1    
   221  111  233 1    
   222  111  234 1    
   223  112  113 2    
   224  112  114 am   BACKBONE|DICT|INTERRES
   225  114  115 1    
   226  114  235 1    
   227  115  116 1    
   228  115  117 1    
   229  115  236 1    
   230  116  237 1    
   231  116  238 1    
   232  116  239 1    
   233  117  118 2    
   234  117  119 am   BACKBONE|DICT|INTERRES
   235  119  120 1    
   236  119  240 1    
   237  120  121 1    
   238  120  124 1    
   239  120  241 1    
   240  121  122 am   BACKBONE|DICT|INTERRES
   241  121  123 2    
   242  122  242 1    
   243  122  243 1    
   244  124  125 1    
   245  124  244 1    
   246  124  245 1    
   247  125  126 1    
   248  126  246 1    
   249  126  247 1    
@<TRIPOS>SUBSTRUCTURE
     1 UNK         1 GROUP             0       ****    0 ROOT    
