@<TRIPOS>MOLECULE
3R540
247   249    1
SMALL
USER_CHARGES


@<TRIPOS>ATOM
      1 CA         -0.0033  -16.4959  -52.6242 C.3       0 UNK        -0.1800 
      2 C          -0.0249  -15.9253  -51.2173 C.2       0 UNK         0.5000 
      3 O           1.0063  -15.9204  -50.5440 O.2       0 UNK        -0.5000 
      4 N          -1.2015  -15.4700  -50.7689 N.am      1 UNK        -0.5000 
      5 CA         -1.4103  -14.9001  -49.4341 C.3       1 UNK         0.1400 
      6 C6         -2.8653  -15.1028  -48.9247 C.3       23 UNK        -0.0398 
      7 S7         -2.8874  -15.4003  -47.1167 S.3       23 UNK        -0.2404 
      8 C8         -3.5253  -17.1056  -46.9542 C.3       23 UNK        -0.0205 
      9 C9         -2.8901  -18.1302  -47.8907 C.ar      23 UNK        -0.0193 
     10 C10        -3.7079  -19.0779  -48.5120 C.ar      23 UNK        -0.1150 
     11 C11        -3.1642  -20.0274  -49.3786 C.ar      23 UNK        -0.0193 
     12 C12        -1.7966  -20.0097  -49.6472 C.ar      23 UNK        -0.1150 
     13 C13        -0.9627  -19.0773  -49.0290 C.ar      23 UNK        -0.0193 
     14 C14        -1.5111  -18.1559  -48.1312 C.ar      23 UNK        -0.1150 
     15 C15         0.5261  -19.0641  -49.3443 C.3       23 UNK        -0.0205 
     16 S16         1.3203  -20.6699  -49.0216 S.3       23 UNK        -0.2404 
     17 C17         1.1814  -20.7362  -47.2089 C.3       23 UNK        -0.0398 
     18 CA          0.6666  -22.0811  -46.6490 C.3       11 UNK         0.1400 
     19 N           0.9015  -22.1345  -45.2066 N.am      11 UNK        -0.5000 
     20 C           0.7600  -23.2107  -44.4257 C.2       10 UNK         0.5000 
     21 O           0.4264  -24.3204  -44.8404 O.2       10 UNK        -0.5000 
     22 CA          0.9925  -22.9891  -42.9195 C.3       10 UNK         0.1400 
     23 CB          2.4934  -22.9535  -42.5956 C.3       10 UNK        -0.1800 
     24 N           0.3586  -21.7622  -42.4306 N.am      10 UNK        -0.5000 
     25 C          -0.9670  -21.5622  -42.4044 C.2       9 UNK         0.5000 
     26 O          -1.7910  -22.4038  -42.7616 O.2       9 UNK        -0.5000 
     27 CA         -1.4560  -20.1798  -41.9375 C.3       9 UNK         0.1400 
     28 CB         -1.3954  -20.0702  -40.4068 C.3       9 UNK        -0.1800 
     29 N          -0.7122  -19.0750  -42.5446 N.am      9 UNK        -0.5000 
     30 C          -0.6782  -18.8174  -43.8605 C.2       8 UNK         0.5000 
     31 O          -1.2863  -19.4739  -44.7016 O.2       8 UNK        -0.5000 
     32 CA          0.2301  -17.6695  -44.3283 C.3       8 UNK         0.1400 
     33 CB         -0.4407  -16.3088  -44.0868 C.3       8 UNK        -0.1800 
     34 N           1.5411  -17.6942  -43.6847 N.am      8 UNK        -0.5000 
     35 C           2.4200  -18.7036  -43.7467 C.2       7 UNK         0.5000 
     36 O           2.2355  -19.7406  -44.3810 O.2       7 UNK        -0.5000 
     37 CA          3.6985  -18.5484  -42.9104 C.3       7 UNK         0.1400 
     38 CB          4.6958  -17.5995  -43.5940 C.3       7 UNK        -0.1800 
     39 N           3.3997  -18.0682  -41.5627 N.am      7 UNK        -0.5000 
     40 C           2.7678  -18.7881  -40.6253 C.2       6 UNK         0.5000 
     41 O           2.3970  -19.9520  -40.7863 O.2       6 UNK        -0.5000 
     42 CA          2.4762  -18.0702  -39.2947 C.3       6 UNK         0.1400 
     43 CB          3.7095  -18.1008  -38.3795 C.3       6 UNK        -0.1800 
     44 N           2.0434  -16.6830  -39.4813 N.am      6 UNK        -0.5000 
     45 C           0.8750  -16.3330  -40.0356 C.2       5 UNK         0.5000 
     46 O           0.0467  -17.1424  -40.4523 O.2       5 UNK        -0.5000 
     47 CA          0.5968  -14.8252  -40.1829 C.3       5 UNK         0.1400 
     48 CB          0.1180  -14.2328  -38.8486 C.3       5 UNK        -0.1800 
     49 N           1.7151  -14.0244  -40.6972 N.am      5 UNK        -0.5000 
     50 C           2.3955  -14.2765  -41.8231 C.2       4 UNK         0.5000 
     51 O           2.3048  -15.3257  -42.4608 O.2       4 UNK        -0.5000 
     52 CA          3.3403  -13.1730  -42.3364 C.3       4 UNK         0.1400 
     53 CB          4.7708  -13.4228  -41.8358 C.3       4 UNK        -0.1800 
     54 N           3.3482  -13.1260  -43.8027 N.am      4 UNK        -0.5000 
     55 C           2.2716  -12.8690  -44.5595 C.2       3 UNK         0.5000 
     56 O           1.1950  -12.4808  -44.0956 O.2       3 UNK        -0.5000 
     57 CA          2.4208  -13.1209  -46.0756 C.3       3 UNK         0.1400 
     58 CB          2.7986  -14.5873  -46.3612 C.3       3 UNK        -0.1800 
     59 N           1.1702  -12.8310  -46.7756 N.am      3 UNK        -0.5000 
     60 C           0.7607  -11.6213  -47.1798 C.2       2 UNK         0.5000 
     61 O           1.4702  -10.6141  -47.1453 O.2       2 UNK        -0.5000 
     62 CA         -0.7018  -11.5278  -47.6702 C.3       2 UNK         0.1400 
     63 CB         -0.9467  -10.3691  -48.6605 C.3       2 UNK        -0.1800 
     64 N          -1.2160  -12.8116  -48.1694 N.am      2 UNK        -0.5000 
     65 C          -0.9008  -13.4416  -49.3113 C.2       1 UNK         0.5000 
     66 O          -0.2225  -12.9349  -50.2081 O.2       1 UNK        -0.5000 
     67 C          -0.8102  -22.3711  -47.0060 C.2       11 UNK         0.5000 
     68 O          -1.0701  -23.1302  -47.9429 O.2       11 UNK        -0.5000 
     69 N          -1.7452  -21.8195  -46.2175 N.am      12 UNK        -0.5000 
     70 CA         -3.1822  -22.0705  -46.3170 C.3       12 UNK         0.1400 
     71 CB         -3.9537  -21.0700  -45.4437 C.3       12 UNK        -0.1800 
     72 C          -3.5646  -23.5126  -45.9513 C.2       12 UNK         0.5000 
     73 O          -4.3845  -24.1083  -46.6495 O.2       12 UNK        -0.5000 
     74 N          -2.9509  -24.0588  -44.8912 N.am      13 UNK        -0.5000 
     75 CA         -3.1344  -25.4441  -44.4503 C.3       13 UNK         0.1400 
     76 CB         -2.4574  -25.6490  -43.0867 C.3       13 UNK        -0.1800 
     77 C          -2.6186  -26.4679  -45.4786 C.2       13 UNK         0.5000 
     78 O          -3.2652  -27.4939  -45.6929 O.2       13 UNK        -0.5000 
     79 N          -1.4849  -26.1536  -46.1199 N.am      14 UNK        -0.5000 
     80 CA         -0.9190  -26.9178  -47.2325 C.3       14 UNK         0.1400 
     81 CB          0.5367  -26.4744  -47.4469 C.3       14 UNK        -0.1800 
     82 C          -1.7194  -26.7664  -48.5425 C.2       14 UNK         0.5000 
     83 O          -1.6356  -27.6452  -49.4011 O.2       14 UNK        -0.5000 
     84 N          -2.4533  -25.6502  -48.6748 N.am      15 UNK        -0.5000 
     85 CA         -3.2010  -25.1910  -49.8516 C.3       15 UNK         0.1400 
     86 CB         -4.3889  -26.1277  -50.1501 C.3       15 UNK        -0.1800 
     87 C          -2.2806  -24.9652  -51.0717 C.2       15 UNK         0.5000 
     88 O          -2.6578  -25.2691  -52.2047 O.2       15 UNK        -0.5000 
     89 N          -1.0600  -24.4838  -50.8003 N.am      16 UNK        -0.5000 
     90 CA          0.0804  -24.5657  -51.7129 C.3       16 UNK         0.1400 
     91 CB          1.3660  -24.2943  -50.9169 C.3       16 UNK        -0.1800 
     92 C           0.0040  -23.6442  -52.9429 C.2       16 UNK         0.5000 
     93 O           0.5394  -24.0018  -53.9932 O.2       16 UNK        -0.5000 
     94 N          -0.6219  -22.4706  -52.7925 N.am      17 UNK        -0.5000 
     95 CA         -0.6166  -21.4187  -53.8136 C.3       17 UNK         0.1400 
     96 CB         -0.7275  -20.0546  -53.1197 C.3       17 UNK        -0.1800 
     97 C          -1.7121  -21.5759  -54.8861 C.2       17 UNK         0.5000 
     98 O          -1.5789  -20.9795  -55.9551 O.2       17 UNK        -0.5000 
     99 N          -2.7549  -22.3634  -54.5814 N.am      18 UNK        -0.5000 
    100 CA        -4.0174  -22.5355  -55.3149 C.3       18 UNK         0.1400 
    101 CB        -3.7940  -22.9270  -56.7893 C.3       18 UNK        -0.1800 
    102 C         -4.9523  -21.3144  -55.1851 C.2       18 UNK         0.5000 
    103 O         -4.4954  -20.1897  -54.9688 O.2       18 UNK        -0.5000 
    104 N         -6.2634  -21.5761  -55.2950 N.am      19 UNK        -0.5000 
    105 CA        -7.3789  -20.6940  -54.9211 C.3       19 UNK         0.1400 
    106 CB        -8.6971  -21.3283  -55.3907 C.3       19 UNK        -0.1800 
    107 C         -7.2910  -19.2330  -55.4030 C.2       19 UNK         0.5000 
    108 O         -7.6177  -18.3216  -54.6402 O.2       19 UNK        -0.5000 
    109 N         -6.8212  -19.0386  -56.6419 N.am      20 UNK        -0.5000 
    110 CA        -6.6414  -17.7302  -57.2743 C.3       20 UNK         0.1400 
    111 CB        -6.2908  -17.9392  -58.7556 C.3       20 UNK        -0.1800 
    112 C         -5.5824  -16.8400  -56.5920 C.2       20 UNK         0.5000 
    113 O         -5.6902  -15.6154  -56.6698 O.2       20 UNK        -0.5000 
    114 N         -4.5889  -17.4606  -55.9439 N.am      21 UNK        -0.5000 
    115 CA        -3.5227  -16.7853  -55.2061 C.3       21 UNK         0.1400 
    116 CB        -2.1907  -17.4549  -55.5619 C.3       21 UNK        -0.1800 
    117 C         -3.7758  -16.8140  -53.6866 C.2       21 UNK         0.5000 
    118 O         -3.3343  -15.8999  -52.9863 O.2       21 UNK        -0.5000 
    119 N         -4.4927  -17.8375  -53.2004 N.am      22 UNK        -0.5000 
    120 CA        -4.9970  -17.9176  -51.8195 C.3       22 UNK         0.1400 
    121 C         -6.0265  -16.8021  -51.4842 C.2       22 UNK         0.5000 
    122 N         -6.9504  -16.4849  -52.3848 N.am      22 UNK        -0.7600 
    123 O         -5.9884  -16.2253  -50.4017 O.2       22 UNK        -0.5000 
    124 C124       -5.6191  -19.2982  -51.4925 C.3       23 UNK        -0.0398 
    125 S125       -4.4697  -20.6949  -51.7178 S.3       23 UNK        -0.2404 
    126 C126       -4.0405  -21.0957  -50.0042 C.3       23 UNK        -0.0205 
    127 H127        0.8885  -17.1020  -52.7849 H         1 UNK         0.0600 
    128 H128       -0.0138  -15.6922  -53.3604 H         1 UNK         0.0600 
    129 H129       -0.8740  -17.1302  -52.7817 H         1 UNK         0.0600 
    130 H130       -2.0035  -15.4798  -51.3907 H         1 UNK         0.3000 
    131 H131       -0.7550  -15.4654  -48.7699 H         1 UNK         0.0600 
    132 H132       -3.3307  -15.9532  -49.4239 H         1 UNK         0.0800 
    133 H133       -3.5016  -14.2493  -49.1656 H         1 UNK         0.0800 
    134 H134       -3.3753  -17.4387  -45.9265 H         1 UNK         0.0800 
    135 H135       -4.6044  -17.0709  -47.1121 H         1 UNK         0.0800 
    136 H136       -4.7696  -19.0853  -48.3105 H         1 UNK         0.1150 
    137 H137       -1.3749  -20.7389  -50.3223 H         1 UNK         0.1150 
    138 H138       -0.8681  -17.4461  -47.6330 H         1 UNK         0.1150 
    139 H139        0.6624  -18.8084  -50.3945 H         1 UNK         0.0800 
    140 H140        1.0398  -18.2882  -48.7743 H         1 UNK         0.0800 
    141 H141        0.5686  -19.9138  -46.8373 H         1 UNK         0.0800 
    142 H142        2.1872  -20.5478  -46.8327 H         1 UNK         0.0800 
    143 H143        1.2649  -22.8789  -47.0941 H         1 UNK         0.0600 
    144 H144        1.2148  -21.2666  -44.7779 H         1 UNK         0.3000 
    145 H145        0.5494  -23.8331  -42.3870 H         1 UNK         0.0600 
    146 H146        2.9890  -23.8628  -42.9379 H         1 UNK         0.0600 
    147 H147        2.9898  -22.1075  -43.0725 H         1 UNK         0.0600 
    148 H148        2.6618  -22.8747  -41.5213 H         1 UNK         0.0600 
    149 H149        0.9745  -21.0245  -42.1090 H         1 UNK         0.3000 
    150 H150       -2.4999  -20.0808  -42.2420 H         1 UNK         0.0600 
    151 H151       -1.9336  -20.8922  -39.9332 H         1 UNK         0.0600 
    152 H152       -1.8514  -19.1425  -40.0611 H         1 UNK         0.0600 
    153 H153       -0.3681  -20.0941  -40.0412 H         1 UNK         0.0600 
    154 H154       -0.2148  -18.4590  -41.9084 H         1 UNK         0.3000 
    155 H155        0.3881  -17.7858  -45.4021 H         1 UNK         0.0600 
    156 H156       -0.5866  -16.1161  -43.0238 H         1 UNK         0.0600 
    157 H157        0.1561  -15.4922  -44.4919 H         1 UNK         0.0600 
    158 H158       -1.4194  -16.2657  -44.5648 H         1 UNK         0.0600 
    159 H159        1.7955  -16.8665  -43.1462 H         1 UNK         0.3000 
    160 H160        4.1670  -19.5314  -42.8273 H         1 UNK         0.0600 
    161 H161        4.2910  -16.5936  -43.7083 H         1 UNK         0.0600 
    162 H162        4.9549  -17.9615  -44.5897 H         1 UNK         0.0600 
    163 H163        5.6220  -17.5247  -43.0243 H         1 UNK         0.0600 
    164 H164        3.5926  -17.0950  -41.3758 H         1 UNK         0.3000 
    165 H165        1.6702  -18.6132  -38.7963 H         1 UNK         0.0600 
    166 H166        3.4870  -17.6682  -37.4040 H         1 UNK         0.0600 
    167 H167        4.0443  -19.1252  -38.2109 H         1 UNK         0.0600 
    168 H168        4.5459  -17.5484  -38.8095 H         1 UNK         0.0600 
    169 H169        2.6746  -15.9558  -39.1786 H         1 UNK         0.3000 
    170 H170       -0.2177  -14.7232  -40.9028 H         1 UNK         0.0600 
    171 H171       -0.7240  -14.7994  -38.4483 H         1 UNK         0.0600 
    172 H172        0.9078  -14.2427  -38.0966 H         1 UNK         0.0600 
    173 H173       -0.2163  -13.2024  -38.9712 H         1 UNK         0.0600 
    174 H174        1.8776  -13.1460  -40.2265 H         1 UNK         0.3000 
    175 H175        2.9956  -12.2061  -41.9646 H         1 UNK         0.0600 
    176 H176        5.1612  -14.3772  -42.1920 H         1 UNK         0.0600 
    177 H177        5.4487  -12.6369  -42.1693 H         1 UNK         0.0600 
    178 H178        4.8064  -13.4400  -40.7457 H         1 UNK         0.0600 
    179 H179        4.1884  -13.4585  -44.2516 H         1 UNK         0.3000 
    180 H180        3.2112  -12.4709  -46.4565 H         1 UNK         0.0600 
    181 H181        2.0780  -15.2835  -45.9307 H         1 UNK         0.0600 
    182 H182        3.7768  -14.8356  -45.9485 H         1 UNK         0.0600 
    183 H183        2.8471  -14.7797  -47.4334 H         1 UNK         0.0600 
    184 H184        0.5006  -13.5837  -46.8067 H         1 UNK         0.3000 
    185 H185       -1.2908  -11.3091  -46.7784 H         1 UNK         0.0600 
    186 H186       -0.7560   -9.4066  -48.1847 H         1 UNK         0.0600 
    187 H187       -0.2951  -10.4305  -49.5322 H         1 UNK         0.0600 
    188 H188       -1.9790  -10.3584  -49.0099 H         1 UNK         0.0600 
    189 H189       -1.8058  -13.3144  -47.5171 H         1 UNK         0.3000 
    190 H190       -1.4599  -21.1444  -45.5121 H         1 UNK         0.3000 
    191 H191       -3.4759  -21.9114  -47.3537 H         1 UNK         0.0600 
    192 H192       -3.6856  -21.1632  -44.3911 H         1 UNK         0.0600 
    193 H193       -5.0298  -21.2269  -45.5260 H         1 UNK         0.0600 
    194 H194       -3.7518  -20.0437  -45.7476 H         1 UNK         0.0600 
    195 H195       -2.3322  -23.4807  -44.3299 H         1 UNK         0.3000 
    196 H196       -4.2056  -25.6138  -44.3241 H         1 UNK         0.0600 
    197 H197       -2.5961  -26.6707  -42.7311 H         1 UNK         0.0600 
    198 H198       -2.8791  -24.9829  -42.3339 H         1 UNK         0.0600 
    199 H199       -1.3848  -25.4609  -43.1359 H         1 UNK         0.0600 
    200 H200       -0.9704  -25.3288  -45.8242 H         1 UNK         0.3000 
    201 H201       -0.9198  -27.9757  -46.9623 H         1 UNK         0.0600 
    202 H202        1.1355  -26.6425  -46.5516 H         1 UNK         0.0600 
    203 H203        0.6007  -25.4146  -47.6961 H         1 UNK         0.0600 
    204 H204        1.0020  -27.0329  -48.2600 H         1 UNK         0.0600 
    205 H205       -2.4088  -24.9830  -47.9153 H         1 UNK         0.3000 
    206 H206       -3.6140  -24.2207  -49.5824 H         1 UNK         0.0600 
    207 H207       -5.0237  -25.7143  -50.9346 H         1 UNK         0.0600 
    208 H208       -4.0577  -27.1119  -50.4821 H         1 UNK         0.0600 
    209 H209       -5.0126  -26.2633  -49.2663 H         1 UNK         0.0600 
    210 H210       -0.8621  -24.2075  -49.8450 H         1 UNK         0.3000 
    211 H211        0.1306  -25.5914  -52.0849 H         1 UNK         0.0600 
    212 H212        2.2465  -24.3602  -51.5573 H         1 UNK         0.0600 
    213 H213        1.3579  -23.3000  -50.4704 H         1 UNK         0.0600 
    214 H214        1.4945  -25.0209  -50.1146 H         1 UNK         0.0600 
    215 H215       -1.0465  -22.2572  -51.9029 H         1 UNK         0.3000 
    216 H216        0.3456  -21.4395  -54.3304 H         1 UNK         0.0600 
    217 H217       -1.7169  -19.8903  -52.6918 H         1 UNK         0.0600 
    218 H218       -0.5359  -19.2522  -53.8304 H         1 UNK         0.0600 
    219 H219        0.0106  -19.9557  -52.3250 H         1 UNK         0.0600 
    220 H220       -2.7317  -22.8039  -53.6727 H         1 UNK         0.3000 
    221 H221       -4.5140  -23.3736  -54.8234 H         1 UNK         0.0600 
    222 H222       -3.4175  -22.0937  -57.3830 H         1 UNK         0.0600 
    223 H223       -3.0861  -23.7512  -56.8770 H         1 UNK         0.0600 
    224 H224       -4.7276  -23.2508  -57.2502 H         1 UNK         0.0600 
    225 H225       -6.5301  -22.5253  -55.5125 H         1 UNK         0.3000 
    226 H226       -7.3996  -20.6695  -53.8315 H         1 UNK         0.0600 
    227 H227       -8.8480  -22.3086  -54.9383 H         1 UNK         0.0600 
    228 H228       -9.5516  -20.7101  -55.1116 H         1 UNK         0.0600 
    229 H229       -8.7203  -21.4508  -56.4742 H         1 UNK         0.0600 
    230 H230       -6.5509  -19.8471  -57.1824 H         1 UNK         0.3000 
    231 H231       -7.5951  -17.2010  -57.2206 H         1 UNK         0.0600 
    232 H232       -6.1762  -16.9836  -59.2690 H         1 UNK         0.0600 
    233 H233       -7.0748  -18.4923  -59.2731 H         1 UNK         0.0600 
    234 H234       -5.3563  -18.4893  -58.8731 H         1 UNK         0.0600 
    235 H235       -4.5970  -18.4748  -55.8843 H         1 UNK         0.3000 
    236 H236       -3.4586  -15.7378  -55.5077 H         1 UNK         0.0600 
    237 H237       -2.0141  -17.4340  -56.6373 H         1 UNK         0.0600 
    238 H238       -1.3522  -16.9466  -55.0889 H         1 UNK         0.0600 
    239 H239       -2.1803  -18.4961  -55.2448 H         1 UNK         0.0600 
    240 H240       -4.7354  -18.6048  -53.8173 H         1 UNK         0.3000 
    241 H241       -4.1409  -17.7734  -51.1576 H         1 UNK         0.0600 
    242 H242       -7.0347  -17.0059  -53.2520 H         1 UNK         0.3800 
    243 H243       -7.6181  -15.7610  -52.1731 H         1 UNK         0.3800 
    244 H244       -5.9968  -19.3139  -50.4690 H         1 UNK         0.0800 
    245 H245       -6.4878  -19.4742  -52.1258 H         1 UNK         0.0800 
    246 H246       -3.4967  -22.0384  -49.9983 H         1 UNK         0.0800 
    247 H247       -4.9462  -21.2580  -49.4179 H         1 UNK         0.0800 
@<TRIPOS>BOND
     1    1    2 1    
     2    1  127 1    
     3    1  128 1    
     4    1  129 1    
     5    2    3 2    
     6    2    4 am   BACKBONE|DICT|INTERRES
     7    4    5 1    
     8    4  130 1    
     9    5    6 1    
    10    5   65 1    
    11    5  131 1    
    12    6    7 1    
    13    6  132 1    
    14    6  133 1    
    15    7    8 1    
    16    8    9 1    
    17    8  134 1    
    18    8  135 1    
    19    9   10 ar   
    20    9   14 ar   
    21   10   11 ar   
    22   10  136 1    
    23   11   12 ar   
    24   11  126 1    
    25   12   13 ar   
    26   12  137 1    
    27   13   14 ar   
    28   13   15 1    
    29   14  138 1    
    30   15   16 1    
    31   15  139 1    
    32   15  140 1    
    33   16   17 1    
    34   17   18 1    
    35   17  141 1    
    36   17  142 1    
    37   18   19 1    
    38   18   67 1    
    39   18  143 1    
    40   19   20 am   BACKBONE|DICT|INTERRES
    41   19  144 1    
    42   20   21 2    
    43   20   22 1    
    44   22   23 1    
    45   22   24 1    
    46   22  145 1    
    47   23  146 1    
    48   23  147 1    
    49   23  148 1    
    50   24   25 am   BACKBONE|DICT|INTERRES
    51   24  149 1    
    52   25   26 2    
    53   25   27 1    
    54   27   28 1    
    55   27   29 1    
    56   27  150 1    
    57   28  151 1    
    58   28  152 1    
    59   28  153 1    
    60   29   30 am   BACKBONE|DICT|INTERRES
    61   29  154 1    
    62   30   31 2    
    63   30   32 1    
    64   32   33 1    
    65   32   34 1    
    66   32  155 1    
    67   33  156 1    
    68   33  157 1    
    69   33  158 1    
    70   34   35 am   BACKBONE|DICT|INTERRES
    71   34  159 1    
    72   35   36 2    
    73   35   37 1    
    74   37   38 1    
    75   37   39 1    
    76   37  160 1    
    77   38  161 1    
    78   38  162 1    
    79   38  163 1    
    80   39   40 am   BACKBONE|DICT|INTERRES
    81   39  164 1    
    82   40   41 2    
    83   40   42 1    
    84   42   43 1    
    85   42   44 1    
    86   42  165 1    
    87   43  166 1    
    88   43  167 1    
    89   43  168 1    
    90   44   45 am   BACKBONE|DICT|INTERRES
    91   44  169 1    
    92   45   46 2    
    93   45   47 1    
    94   47   48 1    
    95   47   49 1    
    96   47  170 1    
    97   48  171 1    
    98   48  172 1    
    99   48  173 1    
   100   49   50 am   BACKBONE|DICT|INTERRES
   101   49  174 1    
   102   50   51 2    
   103   50   52 1    
   104   52   53 1    
   105   52   54 1    
   106   52  175 1    
   107   53  176 1    
   108   53  177 1    
   109   53  178 1    
   110   54   55 am   BACKBONE|DICT|INTERRES
   111   54  179 1    
   112   55   56 2    
   113   55   57 1    
   114   57   58 1    
   115   57   59 1    
   116   57  180 1    
   117   58  181 1    
   118   58  182 1    
   119   58  183 1    
   120   59   60 am   BACKBONE|DICT|INTERRES
   121   59  184 1    
   122   60   61 2    
   123   60   62 1    
   124   62   63 1    
   125   62   64 1    
   126   62  185 1    
   127   63  186 1    
   128   63  187 1    
   129   63  188 1    
   130   64   65 am   BACKBONE|DICT|INTERRES
   131   64  189 1    
   132   65   66 2    
   133   67   68 2    
   134   67   69 am   BACKBONE|DICT|INTERRES
   135   69   70 1    
   136   69  190 1    
   137   70   71 1    
   138   70   72 1    
   139   70  191 1    
   140   71  192 1    
   141   71  193 1    
   142   71  194 1    
   143   72   73 2    
   144   72   74 am   BACKBONE|DICT|INTERRES
   145   74   75 1    
   146   74  195 1    
   147   75   76 1    
   148   75   77 1    
   149   75  196 1    
   150   76  197 1    
   151   76  198 1    
   152   76  199 1    
   153   77   78 2    
   154   77   79 am   BACKBONE|DICT|INTERRES
   155   79   80 1    
   156   79  200 1    
   157   80   81 1    
   158   80   82 1    
   159   80  201 1    
   160   81  202 1    
   161   81  203 1    
   162   81  204 1    
   163   82   83 2    
   164   82   84 am   BACKBONE|DICT|INTERRES
   165   84   85 1    
   166   84  205 1    
   167   85   86 1    
   168   85   87 1    
   169   85  206 1    
   170   86  207 1    
   171   86  208 1    
   172   86  209 1    
   173   87   88 2    
   174   87   89 am   BACKBONE|DICT|INTERRES
   175   89   90 1    
   176   89  210 1    
   177   90   91 1    
   178   90   92 1    
   179   90  211 1    
   180   91  212 1    
   181   91  213 1    
   182   91  214 1    
   183   92   93 2    
   184   92   94 am   BACKBONE|DICT|INTERRES
   185   94   95 1    
   186   94  215 1    
   187   95   96 1    
   188   95   97 1    
   189   95  216 1    
   190   96  217 1    
   191   96  218 1    
   192   96  219 1    
   193   97   98 2    
   194   97   99 am   BACKBONE|DICT|INTERRES
   195   99  100 1    
   196   99  220 1    
   197  100  101 1    
   198  100  102 1    
   199  100  221 1    
   200  101  222 1    
   201  101  223 1    
   202  101  224 1    
   203  102  103 2    
   204  102  104 am   BACKBONE|DICT|INTERRES
   205  104  105 1    
   206  104  225 1    
   207  105  106 1    
   208  105  107 1    
   209  105  226 1    
   210  106  227 1    
   211  106  228 1    
   212  106  229 1    
   213  107  108 2    
   214  107  109 am   BACKBONE|DICT|INTERRES
   215  109  110 1    
   216  109  230 1    
   217  110  111 1    
   218  110  112 1    
   219  110  231 1    
   220  111  232 1    
   221  111  233 1    
   222  111  234 1    
   223  112  113 2    
   224  112  114 am   BACKBONE|DICT|INTERRES
   225  114  115 1    
   226  114  235 1    
   227  115  116 1    
   228  115  117 1    
   229  115  236 1    
   230  116  237 1    
   231  116  238 1    
   232  116  239 1    
   233  117  118 2    
   234  117  119 am   BACKBONE|DICT|INTERRES
   235  119  120 1    
   236  119  240 1    
   237  120  121 1    
   238  120  124 1    
   239  120  241 1    
   240  121  122 am   BACKBONE|DICT|INTERRES
   241  121  123 2    
   242  122  242 1    
   243  122  243 1    
   244  124  125 1    
   245  124  244 1    
   246  124  245 1    
   247  125  126 1    
   248  126  246 1    
   249  126  247 1    
@<TRIPOS>SUBSTRUCTURE
     1 UNK         1 GROUP             0       ****    0 ROOT    
