@<TRIPOS>MOLECULE
3R540
247   249    1
SMALL
USER_CHARGES


@<TRIPOS>ATOM
      1 CA         -1.1572  -14.6364  -53.1759 C.3       0 UNK        -0.1800 
      2 C           0.2825  -14.1518  -53.0853 C.2       0 UNK         0.5000 
      3 O           0.6249  -13.1225  -53.6686 O.2       0 UNK        -0.5000 
      4 N           1.1267  -14.9020  -52.3689 N.am      1 UNK        -0.5000 
      5 CA          2.5426  -14.5962  -52.1356 C.3       1 UNK         0.1400 
      6 C6          3.3302  -15.8363  -51.6298 C.3       23 UNK        -0.0398 
      7 S7          3.0371  -17.3363  -52.6358 S.3       23 UNK        -0.2404 
      8 C8          2.8147  -18.6417  -51.3763 C.3       23 UNK        -0.0205 
      9 C9          1.7829  -18.3012  -50.3060 C.ar      23 UNK        -0.0193 
     10 C10         0.4769  -17.9430  -50.6562 C.ar      23 UNK        -0.1150 
     11 C11        -0.4570  -17.6160  -49.6690 C.ar      23 UNK        -0.0193 
     12 C12        -0.0848  -17.6709  -48.3238 C.ar      23 UNK        -0.1150 
     13 C13         1.2124  -18.0389  -47.9592 C.ar      23 UNK        -0.0193 
     14 C14         2.1426  -18.3469  -48.9549 C.ar      23 UNK        -0.1150 
     15 C15         1.6107  -18.0857  -46.4906 C.3       23 UNK        -0.0205 
     16 S16         1.8198  -19.7803  -45.8582 S.3       23 UNK        -0.2404 
     17 C17         0.1643  -20.5091  -46.0934 C.3       23 UNK        -0.0398 
     18 CA          0.2599  -22.0393  -46.2756 C.3       11 UNK         0.1400 
     19 N           0.6870  -22.7233  -45.0475 N.am      11 UNK        -0.5000 
     20 C           1.1349  -23.9861  -45.0067 C.2       10 UNK         0.5000 
     21 O           1.1790  -24.7162  -45.9956 O.2       10 UNK        -0.5000 
     22 CA          1.5724  -24.5504  -43.6423 C.3       10 UNK         0.1400 
     23 CB          3.0681  -24.2897  -43.4123 C.3       10 UNK        -0.1800 
     24 N           0.8108  -24.0186  -42.5123 N.am      10 UNK        -0.5000 
     25 C          -0.5038  -24.1934  -42.3238 C.2       9 UNK         0.5000 
     26 O          -1.2205  -24.8370  -43.0917 O.2       9 UNK        -0.5000 
     27 CA         -1.1464  -23.5065  -41.0996 C.3       9 UNK         0.1400 
     28 CB         -0.1319  -22.9041  -40.1007 C.3       9 UNK        -0.1800 
     29 N          -2.1218  -22.4925  -41.5135 N.am      9 UNK        -0.5000 
     30 C          -1.8907  -21.4408  -42.3128 C.2       8 UNK         0.5000 
     31 O          -0.7849  -21.1832  -42.7967 O.2       8 UNK        -0.5000 
     32 CA         -3.1158  -20.5794  -42.6786 C.3       8 UNK         0.1400 
     33 CB         -4.0409  -20.2751  -41.4798 C.3       8 UNK        -0.1800 
     34 N          -2.7273  -19.3676  -43.4030 N.am      8 UNK        -0.5000 
     35 C          -2.1427  -18.2608  -42.9267 C.2       7 UNK         0.5000 
     36 O          -1.9966  -18.0112  -41.7269 O.2       7 UNK        -0.5000 
     37 CA         -1.6675  -17.2563  -43.9999 C.3       7 UNK         0.1400 
     38 CB         -2.8624  -16.6069  -44.7195 C.3       7 UNK        -0.1800 
     39 N          -0.8091  -16.1945  -43.4658 N.am      7 UNK        -0.5000 
     40 C           0.4072  -16.3713  -42.9293 C.2       6 UNK         0.5000 
     41 O           1.0004  -17.4507  -42.9286 O.2       6 UNK        -0.5000 
     42 CA          1.0630  -15.1236  -42.3039 C.3       6 UNK         0.1400 
     43 CB          2.5405  -15.3469  -41.9324 C.3       6 UNK        -0.1800 
     44 N           0.9800  -14.0052  -43.2377 N.am      6 UNK        -0.5000 
     45 C           0.3366  -12.8466  -43.0390 C.2       5 UNK         0.5000 
     46 O          -0.2377  -12.5560  -41.9894 O.2       5 UNK        -0.5000 
     47 CA          0.3084  -11.8466  -44.2186 C.3       5 UNK         0.1400 
     48 CB          1.3840  -10.7658  -44.0327 C.3       5 UNK        -0.1800 
     49 N           0.5050  -12.4883  -45.5207 N.am      5 UNK        -0.5000 
     50 C          -0.3354  -13.3797  -46.0636 C.2       4 UNK         0.5000 
     51 O          -1.4614  -13.5988  -45.6179 O.2       4 UNK        -0.5000 
     52 CA          0.1777  -14.2130  -47.2567 C.3       4 UNK         0.1400 
     53 CB         -0.6232  -13.9015  -48.5297 C.3       4 UNK        -0.1800 
     54 N           1.6193  -14.1023  -47.5309 N.am      4 UNK        -0.5000 
     55 C           2.5951  -14.4948  -46.6932 C.2       3 UNK         0.5000 
     56 O           2.3642  -14.9466  -45.5722 O.2       3 UNK        -0.5000 
     57 CA          4.0672  -14.3656  -47.1411 C.3       3 UNK         0.1400 
     58 CB          4.7147  -15.7533  -47.2716 C.3       3 UNK        -0.1800 
     59 N           4.2532  -13.6526  -48.4022 N.am      3 UNK        -0.5000 
     60 C           4.1335  -12.3310  -48.5866 C.2       2 UNK         0.5000 
     61 O           3.9014  -11.5323  -47.6789 O.2       2 UNK        -0.5000 
     62 CA          4.2527  -11.8313  -50.0449 C.3       2 UNK         0.1400 
     63 CB          5.6754  -11.3244  -50.3248 C.3       2 UNK        -0.1800 
     64 N           3.8980  -12.8483  -51.0475 N.am      2 UNK        -0.5000 
     65 C           2.6935  -13.4315  -51.1326 C.2       1 UNK         0.5000 
     66 O           1.7564  -13.1288  -50.3916 O.2       1 UNK        -0.5000 
     67 C          -1.0446  -22.6225  -46.8540 C.2       11 UNK         0.5000 
     68 O          -1.2225  -22.6096  -48.0734 O.2       11 UNK        -0.5000 
     69 N          -1.8991  -23.1906  -45.9910 N.am      12 UNK        -0.5000 
     70 CA         -3.1137  -23.8999  -46.3937 C.3       12 UNK         0.1400 
     71 CB         -4.0106  -24.1138  -45.1662 C.3       12 UNK        -0.1800 
     72 C          -2.8190  -25.2375  -47.1030 C.2       12 UNK         0.5000 
     73 O          -3.6705  -25.7204  -47.8475 O.2       12 UNK        -0.5000 
     74 N          -1.6230  -25.8002  -46.8829 N.am      13 UNK        -0.5000 
     75 CA         -1.1206  -26.9733  -47.5906 C.3       13 UNK         0.1400 
     76 CB         -0.3012  -27.8462  -46.6262 C.3       13 UNK        -0.1800 
     77 C          -0.2812  -26.5499  -48.8069 C.2       13 UNK         0.5000 
     78 O          -0.5460  -27.0160  -49.9145 O.2       13 UNK        -0.5000 
     79 N           0.7030  -25.6656  -48.5857 N.am      14 UNK        -0.5000 
     80 CA          1.7066  -25.2524  -49.5706 C.3       14 UNK         0.1400 
     81 CB          2.7802  -24.3970  -48.8807 C.3       14 UNK        -0.1800 
     82 C           1.1295  -24.5128  -50.7898 C.2       14 UNK         0.5000 
     83 O           1.5624  -24.7768  -51.9121 O.2       14 UNK        -0.5000 
     84 N           0.1552  -23.6248  -50.5544 N.am      15 UNK        -0.5000 
     85 CA         -0.5715  -22.8976  -51.5989 C.3       15 UNK         0.1400 
     86 CB         -0.6100  -21.4064  -51.2302 C.3       15 UNK        -0.1800 
     87 C          -1.9846  -23.4762  -51.8158 C.2       15 UNK         0.5000 
     88 O          -2.7797  -22.8799  -52.5419 O.2       15 UNK        -0.5000 
     89 N          -2.2794  -24.6202  -51.1760 N.am      16 UNK        -0.5000 
     90 CA         -3.5167  -25.4091  -51.2520 C.3       16 UNK         0.1400 
     91 CB         -3.6717  -26.0191  -52.6602 C.3       16 UNK        -0.1800 
     92 C          -4.7906  -24.6601  -50.8013 C.2       16 UNK         0.5000 
     93 O          -5.8961  -25.0883  -51.1389 O.2       16 UNK        -0.5000 
     94 N          -4.6170  -23.5507  -50.0664 N.am      17 UNK        -0.5000 
     95 CA         -5.6175  -22.6043  -49.5594 C.3       17 UNK         0.1400 
     96 CB         -6.6076  -23.2836  -48.5960 C.3       17 UNK        -0.1800 
     97 C          -6.3564  -21.8136  -50.6575 C.2       17 UNK         0.5000 
     98 O          -6.4406  -20.5895  -50.5687 O.2       17 UNK        -0.5000 
     99 N          -6.8650  -22.5144  -51.6749 N.am      18 UNK        -0.5000 
    100 CA        -7.7232  -22.0078  -52.7465 C.3       18 UNK         0.1400 
    101 CB        -8.2218  -23.2062  -53.5697 C.3       18 UNK        -0.1800 
    102 C         -7.0884  -20.9490  -53.6710 C.2       18 UNK         0.5000 
    103 O         -7.8269  -20.2913  -54.4054 O.2       18 UNK        -0.5000 
    104 N         -5.7553  -20.8041  -53.6417 N.am      19 UNK        -0.5000 
    105 CA        -4.9994  -19.8620  -54.4693 C.3       19 UNK         0.1400 
    106 CB        -3.4941  -20.0880  -54.2630 C.3       19 UNK        -0.1800 
    107 C         -5.3684  -18.3849  -54.2303 C.2       19 UNK         0.5000 
    108 O         -5.5418  -17.6464  -55.2013 O.2       19 UNK        -0.5000 
    109 N         -5.4928  -17.9851  -52.9575 N.am      20 UNK        -0.5000 
    110 CA        -5.7914  -16.6099  -52.5461 C.3       20 UNK         0.1400 
    111 CB        -4.5758  -15.6920  -52.8066 C.3       20 UNK        -0.1800 
    112 C         -6.2684  -16.5474  -51.0820 C.2       20 UNK         0.5000 
    113 O         -5.9312  -15.5966  -50.3748 O.2       20 UNK        -0.5000 
    114 N         -7.0311  -17.5635  -50.6450 N.am      21 UNK        -0.5000 
    115 CA        -7.5008  -17.7776  -49.2661 C.3       21 UNK         0.1400 
    116 CB        -8.5107  -16.6901  -48.8432 C.3       21 UNK        -0.1800 
    117 C         -6.3197  -17.9349  -48.2836 C.2       21 UNK         0.5000 
    118 O         -6.2596  -17.2725  -47.2465 O.2       21 UNK        -0.5000 
    119 N         -5.3788  -18.7985  -48.6761 N.am      22 UNK        -0.5000 
    120 CA        -4.0725  -19.0047  -48.0370 C.3       22 UNK         0.1400 
    121 C         -4.1001  -19.8747  -46.7510 C.2       22 UNK         0.5000 
    122 N         -5.2232  -20.4655  -46.3633 N.am      22 UNK        -0.7600 
    123 O         -3.0778  -20.0034  -46.0859 O.2       22 UNK        -0.5000 
    124 C124       -3.0248  -19.5535  -49.0387 C.3       23 UNK        -0.0398 
    125 S125       -2.9006  -18.5819  -50.5783 S.3       23 UNK        -0.2404 
    126 C126       -1.8632  -17.1843  -50.0524 C.3       23 UNK        -0.0205 
    127 H127       -1.5927  -14.3637  -54.1373 H         1 UNK         0.0600 
    128 H128       -1.2172  -15.7205  -53.0787 H         1 UNK         0.0600 
    129 H129       -1.7569  -14.1820  -52.3872 H         1 UNK         0.0600 
    130 H130        0.7859  -15.7279  -51.9005 H         1 UNK         0.3000 
    131 H131        2.9780  -14.2789  -53.0856 H         1 UNK         0.0600 
    132 H132        3.0850  -16.0405  -50.5871 H         1 UNK         0.0800 
    133 H133        4.4026  -15.6364  -51.6477 H         1 UNK         0.0800 
    134 H134        2.5100  -19.5623  -51.8754 H         1 UNK         0.0800 
    135 H135        3.7851  -18.8478  -50.9221 H         1 UNK         0.0800 
    136 H136        0.1876  -17.9170  -51.6975 H         1 UNK         0.1150 
    137 H137       -0.8087  -17.4294  -47.5585 H         1 UNK         0.1150 
    138 H138        3.1471  -18.6286  -48.6717 H         1 UNK         0.1150 
    139 H139        2.5561  -17.5607  -46.3616 H         1 UNK         0.0800 
    140 H140        0.8893  -17.5515  -45.8732 H         1 UNK         0.0800 
    141 H141       -0.4667  -20.2511  -45.2430 H         1 UNK         0.0800 
    142 H142       -0.3008  -20.0571  -46.9683 H         1 UNK         0.0800 
    143 H143        1.0239  -22.2267  -47.0321 H         1 UNK         0.0600 
    144 H144        0.6206  -22.1896  -44.1883 H         1 UNK         0.3000 
    145 H145        1.4150  -25.6307  -43.6709 H         1 UNK         0.0600 
    146 H146        3.4144  -24.7604  -42.4920 H         1 UNK         0.0600 
    147 H147        3.6654  -24.6973  -44.2291 H         1 UNK         0.0600 
    148 H148        3.2853  -23.2227  -43.3476 H         1 UNK         0.0600 
    149 H149        1.3179  -23.4477  -41.8520 H         1 UNK         0.3000 
    150 H150       -1.7047  -24.2828  -40.5746 H         1 UNK         0.0600 
    151 H151        0.5635  -23.6626  -39.7390 H         1 UNK         0.0600 
    152 H152       -0.6440  -22.5002  -39.2273 H         1 UNK         0.0600 
    153 H153        0.4528  -22.0943  -40.5385 H         1 UNK         0.0600 
    154 H154       -3.0674  -22.6516  -41.1964 H         1 UNK         0.3000 
    155 H155       -3.6923  -21.1648  -43.3951 H         1 UNK         0.0600 
    156 H156       -4.8216  -19.5658  -41.7547 H         1 UNK         0.0600 
    157 H157       -3.4912  -19.8583  -40.6354 H         1 UNK         0.0600 
    158 H158       -4.5410  -21.1775  -41.1275 H         1 UNK         0.0600 
    159 H159       -2.7916  -19.4725  -44.4149 H         1 UNK         0.3000 
    160 H160       -1.0919  -17.8210  -44.7343 H         1 UNK         0.0600 
    161 H161       -3.4151  -15.9395  -44.0576 H         1 UNK         0.0600 
    162 H162       -3.5665  -17.3521  -45.0898 H         1 UNK         0.0600 
    163 H163       -2.5334  -16.0294  -45.5828 H         1 UNK         0.0600 
    164 H164       -1.2131  -15.2697  -43.4344 H         1 UNK         0.3000 
    165 H165        0.5118  -14.9033  -41.3877 H         1 UNK         0.0600 
    166 H166        3.1383  -15.6053  -42.8076 H         1 UNK         0.0600 
    167 H167        2.9727  -14.4522  -41.4843 H         1 UNK         0.0600 
    168 H168        2.6457  -16.1558  -41.2085 H         1 UNK         0.0600 
    169 H169        1.4101  -14.1816  -44.1430 H         1 UNK         0.3000 
    170 H170       -0.6709  -11.3639  -44.2208 H         1 UNK         0.0600 
    171 H171        1.2551  -10.2452  -43.0828 H         1 UNK         0.0600 
    172 H172        2.3879  -11.1924  -44.0404 H         1 UNK         0.0600 
    173 H173        1.3314  -10.0163  -44.8228 H         1 UNK         0.0600 
    174 H174        1.4055  -12.3594  -45.9589 H         1 UNK         0.3000 
    175 H175       -0.0142  -15.2521  -46.9898 H         1 UNK         0.0600 
    176 H176       -0.4775  -12.8698  -48.8512 H         1 UNK         0.0600 
    177 H177       -0.3291  -14.5553  -49.3507 H         1 UNK         0.0600 
    178 H178       -1.6919  -14.0481  -48.3686 H         1 UNK         0.0600 
    179 H179        1.8663  -13.7256  -48.4400 H         1 UNK         0.3000 
    180 H180        4.5935  -13.8170  -46.3573 H         1 UNK         0.0600 
    181 H181        4.2237  -16.3558  -48.0364 H         1 UNK         0.0600 
    182 H182        4.6589  -16.3029  -46.3311 H         1 UNK         0.0600 
    183 H183        5.7701  -15.6737  -47.5331 H         1 UNK         0.0600 
    184 H184        4.4596  -14.2209  -49.2088 H         1 UNK         0.3000 
    185 H185        3.5612  -10.9939  -50.1593 H         1 UNK         0.0600 
    186 H186        5.9610  -10.5488  -49.6129 H         1 UNK         0.0600 
    187 H187        6.4108  -12.1263  -50.2490 H         1 UNK         0.0600 
    188 H188        5.7513  -10.8909  -51.3222 H         1 UNK         0.0600 
    189 H189        4.6327  -13.1277  -51.6820 H         1 UNK         0.3000 
    190 H190       -1.6600  -23.2116  -45.0096 H         1 UNK         0.3000 
    191 H191       -3.6546  -23.2664  -47.0997 H         1 UNK         0.0600 
    192 H192       -4.9498  -24.5903  -45.4499 H         1 UNK         0.0600 
    193 H193       -4.2596  -23.1670  -44.6886 H         1 UNK         0.0600 
    194 H194       -3.5325  -24.7518  -44.4229 H         1 UNK         0.0600 
    195 H195       -0.9702  -25.3287  -46.2713 H         1 UNK         0.3000 
    196 H196       -1.9550  -27.5782  -47.9523 H         1 UNK         0.0600 
    197 H197        0.0778  -28.7346  -47.1328 H         1 UNK         0.0600 
    198 H198       -0.9130  -28.1854  -45.7902 H         1 UNK         0.0600 
    199 H199        0.5563  -27.3132  -46.2152 H         1 UNK         0.0600 
    200 H200        0.8542  -25.3322  -47.6350 H         1 UNK         0.3000 
    201 H201        2.1889  -26.1602  -49.9390 H         1 UNK         0.0600 
    202 H202        3.2470  -24.9373  -48.0569 H         1 UNK         0.0600 
    203 H203        2.3636  -23.4728  -48.4813 H         1 UNK         0.0600 
    204 H204        3.5713  -24.1240  -49.5802 H         1 UNK         0.0600 
    205 H205       -0.1529  -23.4551  -49.6019 H         1 UNK         0.3000 
    206 H206       -0.0539  -22.9825  -52.5561 H         1 UNK         0.0600 
    207 H207        0.3963  -21.0035  -51.1181 H         1 UNK         0.0600 
    208 H208       -1.1086  -20.8187  -52.0016 H         1 UNK         0.0600 
    209 H209       -1.1384  -21.2373  -50.2948 H         1 UNK         0.0600 
    210 H210       -1.5424  -25.0398  -50.6252 H         1 UNK         0.3000 
    211 H211       -3.3903  -26.2338  -50.5495 H         1 UNK         0.0600 
    212 H212       -3.8675  -25.2543  -53.4125 H         1 UNK         0.0600 
    213 H213       -4.4986  -26.7294  -52.6933 H         1 UNK         0.0600 
    214 H214       -2.7724  -26.5593  -52.9562 H         1 UNK         0.0600 
    215 H215       -3.6572  -23.2965  -49.8825 H         1 UNK         0.3000 
    216 H216       -5.0622  -21.8776  -48.9699 H         1 UNK         0.0600 
    217 H217       -7.2357  -24.0172  -49.1016 H         1 UNK         0.0600 
    218 H218       -7.2711  -22.5482  -48.1395 H         1 UNK         0.0600 
    219 H219       -6.0836  -23.7939  -47.7880 H         1 UNK         0.0600 
    220 H220       -6.7032  -23.5188  -51.6584 H         1 UNK         0.3000 
    221 H221       -8.5870  -21.5362  -52.2740 H         1 UNK         0.0600 
    222 H222       -7.3946  -23.7393  -54.0402 H         1 UNK         0.0600 
    223 H223       -8.7651  -23.9155  -52.9449 H         1 UNK         0.0600 
    224 H224       -8.9010  -22.8869  -54.3613 H         1 UNK         0.0600 
    225 H225       -5.2212  -21.3929  -53.0182 H         1 UNK         0.3000 
    226 H226       -5.2297  -20.0878  -55.5126 H         1 UNK         0.0600 
    227 H227       -3.1985  -21.0841  -54.5921 H         1 UNK         0.0600 
    228 H228       -2.9052  -19.3701  -54.8354 H         1 UNK         0.0600 
    229 H229       -3.2105  -19.9857  -53.2157 H         1 UNK         0.0600 
    230 H230       -5.3186  -18.6506  -52.2162 H         1 UNK         0.3000 
    231 H231       -6.6266  -16.2476  -53.1487 H         1 UNK         0.0600 
    232 H232       -3.7114  -16.0113  -52.2263 H         1 UNK         0.0600 
    233 H233       -4.2868  -15.6850  -53.8571 H         1 UNK         0.0600 
    234 H234       -4.7924  -14.6585  -52.5342 H         1 UNK         0.0600 
    235 H235       -7.2471  -18.3107  -51.2905 H         1 UNK         0.3000 
    236 H236       -8.0310  -18.7311  -49.2641 H         1 UNK         0.0600 
    237 H237       -9.3337  -16.6194  -49.5542 H         1 UNK         0.0600 
    238 H238       -8.9425  -16.9201  -47.8686 H         1 UNK         0.0600 
    239 H239       -8.0465  -15.7065  -48.7684 H         1 UNK         0.0600 
    240 H240       -5.5585  -19.3334  -49.5206 H         1 UNK         0.3000 
    241 H241       -3.7208  -18.0251  -47.7093 H         1 UNK         0.0600 
    242 H242       -6.0779  -20.3173  -46.8733 H         1 UNK         0.3800 
    243 H243       -5.2333  -21.0103  -45.5184 H         1 UNK         0.3800 
    244 H244       -2.0404  -19.6162  -48.5761 H         1 UNK         0.0800 
    245 H245       -3.2700  -20.5752  -49.3250 H         1 UNK         0.0800 
    246 H246       -2.3499  -16.6622  -49.2275 H         1 UNK         0.0800 
    247 H247       -1.8032  -16.4633  -50.8662 H         1 UNK         0.0800 
@<TRIPOS>BOND
     1    1    2 1    
     2    1  127 1    
     3    1  128 1    
     4    1  129 1    
     5    2    3 2    
     6    2    4 am   BACKBONE|DICT|INTERRES
     7    4    5 1    
     8    4  130 1    
     9    5    6 1    
    10    5   65 1    
    11    5  131 1    
    12    6    7 1    
    13    6  132 1    
    14    6  133 1    
    15    7    8 1    
    16    8    9 1    
    17    8  134 1    
    18    8  135 1    
    19    9   10 ar   
    20    9   14 ar   
    21   10   11 ar   
    22   10  136 1    
    23   11   12 ar   
    24   11  126 1    
    25   12   13 ar   
    26   12  137 1    
    27   13   14 ar   
    28   13   15 1    
    29   14  138 1    
    30   15   16 1    
    31   15  139 1    
    32   15  140 1    
    33   16   17 1    
    34   17   18 1    
    35   17  141 1    
    36   17  142 1    
    37   18   19 1    
    38   18   67 1    
    39   18  143 1    
    40   19   20 am   BACKBONE|DICT|INTERRES
    41   19  144 1    
    42   20   21 2    
    43   20   22 1    
    44   22   23 1    
    45   22   24 1    
    46   22  145 1    
    47   23  146 1    
    48   23  147 1    
    49   23  148 1    
    50   24   25 am   BACKBONE|DICT|INTERRES
    51   24  149 1    
    52   25   26 2    
    53   25   27 1    
    54   27   28 1    
    55   27   29 1    
    56   27  150 1    
    57   28  151 1    
    58   28  152 1    
    59   28  153 1    
    60   29   30 am   BACKBONE|DICT|INTERRES
    61   29  154 1    
    62   30   31 2    
    63   30   32 1    
    64   32   33 1    
    65   32   34 1    
    66   32  155 1    
    67   33  156 1    
    68   33  157 1    
    69   33  158 1    
    70   34   35 am   BACKBONE|DICT|INTERRES
    71   34  159 1    
    72   35   36 2    
    73   35   37 1    
    74   37   38 1    
    75   37   39 1    
    76   37  160 1    
    77   38  161 1    
    78   38  162 1    
    79   38  163 1    
    80   39   40 am   BACKBONE|DICT|INTERRES
    81   39  164 1    
    82   40   41 2    
    83   40   42 1    
    84   42   43 1    
    85   42   44 1    
    86   42  165 1    
    87   43  166 1    
    88   43  167 1    
    89   43  168 1    
    90   44   45 am   BACKBONE|DICT|INTERRES
    91   44  169 1    
    92   45   46 2    
    93   45   47 1    
    94   47   48 1    
    95   47   49 1    
    96   47  170 1    
    97   48  171 1    
    98   48  172 1    
    99   48  173 1    
   100   49   50 am   BACKBONE|DICT|INTERRES
   101   49  174 1    
   102   50   51 2    
   103   50   52 1    
   104   52   53 1    
   105   52   54 1    
   106   52  175 1    
   107   53  176 1    
   108   53  177 1    
   109   53  178 1    
   110   54   55 am   BACKBONE|DICT|INTERRES
   111   54  179 1    
   112   55   56 2    
   113   55   57 1    
   114   57   58 1    
   115   57   59 1    
   116   57  180 1    
   117   58  181 1    
   118   58  182 1    
   119   58  183 1    
   120   59   60 am   BACKBONE|DICT|INTERRES
   121   59  184 1    
   122   60   61 2    
   123   60   62 1    
   124   62   63 1    
   125   62   64 1    
   126   62  185 1    
   127   63  186 1    
   128   63  187 1    
   129   63  188 1    
   130   64   65 am   BACKBONE|DICT|INTERRES
   131   64  189 1    
   132   65   66 2    
   133   67   68 2    
   134   67   69 am   BACKBONE|DICT|INTERRES
   135   69   70 1    
   136   69  190 1    
   137   70   71 1    
   138   70   72 1    
   139   70  191 1    
   140   71  192 1    
   141   71  193 1    
   142   71  194 1    
   143   72   73 2    
   144   72   74 am   BACKBONE|DICT|INTERRES
   145   74   75 1    
   146   74  195 1    
   147   75   76 1    
   148   75   77 1    
   149   75  196 1    
   150   76  197 1    
   151   76  198 1    
   152   76  199 1    
   153   77   78 2    
   154   77   79 am   BACKBONE|DICT|INTERRES
   155   79   80 1    
   156   79  200 1    
   157   80   81 1    
   158   80   82 1    
   159   80  201 1    
   160   81  202 1    
   161   81  203 1    
   162   81  204 1    
   163   82   83 2    
   164   82   84 am   BACKBONE|DICT|INTERRES
   165   84   85 1    
   166   84  205 1    
   167   85   86 1    
   168   85   87 1    
   169   85  206 1    
   170   86  207 1    
   171   86  208 1    
   172   86  209 1    
   173   87   88 2    
   174   87   89 am   BACKBONE|DICT|INTERRES
   175   89   90 1    
   176   89  210 1    
   177   90   91 1    
   178   90   92 1    
   179   90  211 1    
   180   91  212 1    
   181   91  213 1    
   182   91  214 1    
   183   92   93 2    
   184   92   94 am   BACKBONE|DICT|INTERRES
   185   94   95 1    
   186   94  215 1    
   187   95   96 1    
   188   95   97 1    
   189   95  216 1    
   190   96  217 1    
   191   96  218 1    
   192   96  219 1    
   193   97   98 2    
   194   97   99 am   BACKBONE|DICT|INTERRES
   195   99  100 1    
   196   99  220 1    
   197  100  101 1    
   198  100  102 1    
   199  100  221 1    
   200  101  222 1    
   201  101  223 1    
   202  101  224 1    
   203  102  103 2    
   204  102  104 am   BACKBONE|DICT|INTERRES
   205  104  105 1    
   206  104  225 1    
   207  105  106 1    
   208  105  107 1    
   209  105  226 1    
   210  106  227 1    
   211  106  228 1    
   212  106  229 1    
   213  107  108 2    
   214  107  109 am   BACKBONE|DICT|INTERRES
   215  109  110 1    
   216  109  230 1    
   217  110  111 1    
   218  110  112 1    
   219  110  231 1    
   220  111  232 1    
   221  111  233 1    
   222  111  234 1    
   223  112  113 2    
   224  112  114 am   BACKBONE|DICT|INTERRES
   225  114  115 1    
   226  114  235 1    
   227  115  116 1    
   228  115  117 1    
   229  115  236 1    
   230  116  237 1    
   231  116  238 1    
   232  116  239 1    
   233  117  118 2    
   234  117  119 am   BACKBONE|DICT|INTERRES
   235  119  120 1    
   236  119  240 1    
   237  120  121 1    
   238  120  124 1    
   239  120  241 1    
   240  121  122 am   BACKBONE|DICT|INTERRES
   241  121  123 2    
   242  122  242 1    
   243  122  243 1    
   244  124  125 1    
   245  124  244 1    
   246  124  245 1    
   247  125  126 1    
   248  126  246 1    
   249  126  247 1    
@<TRIPOS>SUBSTRUCTURE
     1 UNK         1 GROUP             0       ****    0 ROOT    
