@<TRIPOS>MOLECULE
3R540
247   249    1
SMALL
USER_CHARGES


@<TRIPOS>ATOM
      1 CA         -1.8730  -12.8319  -47.6593 C.3       0 UNK        -0.1800 
      2 C          -0.4803  -12.6910  -48.2564 C.2       0 UNK         0.5000 
      3 O          -0.3317  -12.0916  -49.3217 O.2       0 UNK        -0.5000 
      4 N           0.5357  -13.2407  -47.5811 N.am      1 UNK        -0.5000 
      5 CA          1.9431  -13.1321  -47.9715 C.3       1 UNK         0.1400 
      6 C6          2.7868  -14.3471  -47.4947 C.3       23 UNK        -0.0398 
      7 S7          2.0960  -16.0006  -47.8378 S.3       23 UNK        -0.2404 
      8 C8          1.6598  -15.9654  -49.6052 C.3       23 UNK        -0.0205 
      9 C9          0.7590  -17.1443  -49.9374 C.ar      23 UNK        -0.0193 
     10 C10        -0.6301  -16.9879  -49.9224 C.ar      23 UNK        -0.1150 
     11 C11        -1.4721  -18.0785  -50.1591 C.ar      23 UNK        -0.0193 
     12 C12        -0.9108  -19.3337  -50.4054 C.ar      23 UNK        -0.1150 
     13 C13         0.4755  -19.5053  -50.4304 C.ar      23 UNK        -0.0193 
     14 C14         1.3068  -18.4009  -50.2126 C.ar      23 UNK        -0.1150 
     15 C15         1.0575  -20.8974  -50.6505 C.3       23 UNK        -0.0205 
     16 S16         2.2206  -21.4202  -49.3427 S.3       23 UNK        -0.2404 
     17 C17         1.3164  -21.0262  -47.8043 C.3       23 UNK        -0.0398 
     18 CA          0.7457  -22.2521  -47.0582 C.3       11 UNK         0.1400 
     19 N           0.3859  -21.8999  -45.6831 N.am      11 UNK        -0.5000 
     20 C           0.0266  -22.7650  -44.7271 C.2       10 UNK         0.5000 
     21 O          -0.0173  -23.9826  -44.8909 O.2       10 UNK        -0.5000 
     22 CA         -0.3892  -22.1689  -43.3697 C.3       10 UNK         0.1400 
     23 CB          0.8449  -21.8111  -42.5287 C.3       10 UNK        -0.1800 
     24 N          -1.2513  -20.9938  -43.5055 N.am      10 UNK        -0.5000 
     25 C          -2.4746  -21.0116  -44.0551 C.2       9 UNK         0.5000 
     26 O          -3.0197  -22.0302  -44.4788 O.2       9 UNK        -0.5000 
     27 CA         -3.1889  -19.6565  -44.2065 C.3       9 UNK         0.1400 
     28 CB         -3.7743  -19.1860  -42.8668 C.3       9 UNK        -0.1800 
     29 N          -2.3124  -18.6208  -44.7506 N.am      9 UNK        -0.5000 
     30 C          -1.7265  -18.6773  -45.9547 C.2       8 UNK         0.5000 
     31 O          -1.8963  -19.5905  -46.7623 O.2       8 UNK        -0.5000 
     32 CA         -0.7425  -17.5467  -46.2866 C.3       8 UNK         0.1400 
     33 CB         -1.4918  -16.2750  -46.7063 C.3       8 UNK        -0.1800 
     34 N           0.1600  -17.2438  -45.1744 N.am      8 UNK        -0.5000 
     35 C           1.0609  -18.1017  -44.6740 C.2       7 UNK         0.5000 
     36 O           1.2455  -19.2354  -45.1110 O.2       7 UNK        -0.5000 
     37 CA          1.8428  -17.6396  -43.4334 C.3       7 UNK         0.1400 
     38 CB          3.0279  -16.7444  -43.8279 C.3       7 UNK        -0.1800 
     39 N           0.9813  -16.9381  -42.4827 N.am      7 UNK        -0.5000 
     40 C          -0.0166  -17.5176  -41.7976 C.2       6 UNK         0.5000 
     41 O          -0.2778  -18.7193  -41.8516 O.2       6 UNK        -0.5000 
     42 CA         -0.9027  -16.5845  -40.9519 C.3       6 UNK         0.1400 
     43 CB         -0.2921  -16.3755  -39.5584 C.3       6 UNK        -0.1800 
     44 N          -1.1101  -15.2830  -41.5901 N.am      6 UNK        -0.5000 
     45 C          -1.7635  -15.0980  -42.7468 C.2       5 UNK         0.5000 
     46 O          -2.3271  -16.0053  -43.3577 O.2       5 UNK        -0.5000 
     47 CA         -1.7367  -13.6764  -43.3431 C.3       5 UNK         0.1400 
     48 CB         -2.9800  -12.8847  -42.9141 C.3       5 UNK        -0.1800 
     49 N          -0.5304  -12.9363  -42.9606 N.am      5 UNK        -0.5000 
     50 C           0.6955  -13.1945  -43.4347 C.2       4 UNK         0.5000 
     51 O           0.9223  -13.9859  -44.3554 O.2       4 UNK        -0.5000 
     52 CA          1.8565  -12.5225  -42.6853 C.3       4 UNK         0.1400 
     53 CB          2.0481  -13.2128  -41.3154 C.3       4 UNK        -0.1800 
     54 N           3.0791  -12.6160  -43.4800 N.am      4 UNK        -0.5000 
     55 C           4.2549  -12.0458  -43.1813 C.2       3 UNK         0.5000 
     56 O           4.4404  -11.3225  -42.2018 O.2       3 UNK        -0.5000 
     57 CA          5.4232  -12.3211  -44.1462 C.3       3 UNK         0.1400 
     58 CB          5.7913  -13.8147  -44.1651 C.3       3 UNK        -0.1800 
     59 N           5.1295  -11.8757  -45.5059 N.am      3 UNK        -0.5000 
     60 C           4.9955  -10.5971  -45.8905 C.2       2 UNK         0.5000 
     61 O           5.2045   -9.6322  -45.1546 O.2       2 UNK        -0.5000 
     62 CA          4.5353  -10.3571  -47.3449 C.3       2 UNK         0.1400 
     63 CB          5.7449  -10.1166  -48.2612 C.3       2 UNK        -0.1800 
     64 N           3.7354  -11.4624  -47.8849 N.am      2 UNK        -0.5000 
     65 C           2.5364  -11.8249  -47.4079 C.2       1 UNK         0.5000 
     66 O           1.9466  -11.2040  -46.5189 O.2       1 UNK        -0.5000 
     67 C          -0.4347  -22.9018  -47.8113 C.2       11 UNK         0.5000 
     68 O          -0.2545  -23.9535  -48.4258 O.2       11 UNK        -0.5000 
     69 N          -1.6310  -22.3046  -47.7066 N.am      12 UNK        -0.5000 
     70 CA         -2.8709  -22.8421  -48.2697 C.3       12 UNK         0.1400 
     71 CB         -3.9901  -21.7994  -48.1392 C.3       12 UNK        -0.1800 
     72 C          -3.2840  -24.1828  -47.6321 C.2       12 UNK         0.5000 
     73 O          -3.7100  -25.0878  -48.3491 O.2       12 UNK        -0.5000 
     74 N          -3.1125  -24.3118  -46.3082 N.am      13 UNK        -0.5000 
     75 CA         -3.3495  -25.5504  -45.5639 C.3       13 UNK         0.1400 
     76 CB         -3.2992  -25.2726  -44.0542 C.3       13 UNK        -0.1800 
     77 C          -2.3697  -26.6750  -45.9478 C.2       13 UNK         0.5000 
     78 O          -2.7972  -27.8200  -46.0940 O.2       13 UNK        -0.5000 
     79 N          -1.0878  -26.3289  -46.1348 N.am      14 UNK        -0.5000 
     80 CA         -0.0337  -27.2377  -46.5900 C.3       14 UNK         0.1400 
     81 CB          1.3373  -26.5635  -46.4285 C.3       14 UNK        -0.1800 
     82 C          -0.2433  -27.7097  -48.0403 C.2       14 UNK         0.5000 
     83 O          -0.0334  -28.8883  -48.3303 O.2       14 UNK        -0.5000 
     84 N          -0.6816  -26.7935  -48.9154 N.am      15 UNK        -0.5000 
     85 CA         -1.0802  -27.0857  -50.2944 C.3       15 UNK         0.1400 
     86 CB         -1.2273  -25.7646  -51.0655 C.3       15 UNK        -0.1800 
     87 C          -2.3865  -27.9000  -50.3828 C.2       15 UNK         0.5000 
     88 O          -2.5805  -28.6264  -51.3581 O.2       15 UNK        -0.5000 
     89 N          -3.2495  -27.7486  -49.3673 N.am      16 UNK        -0.5000 
     90 CA         -4.5936  -28.3131  -49.2247 C.3       16 UNK         0.1400 
     91 CB         -4.5384  -29.8503  -49.1074 C.3       16 UNK        -0.1800 
     92 C          -5.5536  -27.8142  -50.3243 C.2       16 UNK         0.5000 
     93 O          -6.3942  -28.5748  -50.8089 O.2       16 UNK        -0.5000 
     94 N          -5.3995  -26.5417  -50.7074 N.am      17 UNK        -0.5000 
     95 CA         -6.1124  -25.8846  -51.7963 C.3       17 UNK         0.1400 
     96 CB         -5.5756  -26.3878  -53.1517 C.3       17 UNK        -0.1800 
     97 C          -5.9237  -24.3670  -51.6773 C.2       17 UNK         0.5000 
     98 O          -5.0372  -23.9072  -50.9519 O.2       17 UNK        -0.5000 
     99 N          -6.7268  -23.6102  -52.4351 N.am      18 UNK        -0.5000 
    100 CA        -6.6432  -22.1540  -52.5752 C.3       18 UNK         0.1400 
    101 CB        -7.9928  -21.6298  -53.0962 C.3       18 UNK        -0.1800 
    102 C         -5.4542  -21.7341  -53.4681 C.2       18 UNK         0.5000 
    103 O         -5.6449  -21.1374  -54.5308 O.2       18 UNK        -0.5000 
    104 N         -4.2446  -22.0911  -53.0211 N.am      19 UNK        -0.5000 
    105 CA        -2.9575  -21.7875  -53.6423 C.3       19 UNK         0.1400 
    106 CB        -1.8551  -22.4874  -52.8320 C.3       19 UNK        -0.1800 
    107 C         -2.6862  -20.2753  -53.7465 C.2       19 UNK         0.5000 
    108 O         -3.2932  -19.4892  -53.0184 O.2       19 UNK        -0.5000 
    109 N         -1.7910  -19.9020  -54.6729 N.am      20 UNK        -0.5000 
    110 CA        -1.3478  -18.5310  -54.9757 C.3       20 UNK         0.1400 
    111 CB        -0.5247  -17.9591  -53.8040 C.3       20 UNK        -0.1800 
    112 C         -2.4825  -17.5752  -55.4153 C.2       20 UNK         0.5000 
    113 O         -2.3205  -16.3563  -55.3383 O.2       20 UNK        -0.5000 
    114 N         -3.6029  -18.1515  -55.8779 N.am      21 UNK        -0.5000 
    115 CA        -4.8491  -17.4948  -56.2805 C.3       21 UNK         0.1400 
    116 CB        -4.6343  -16.6262  -57.5383 C.3       21 UNK        -0.1800 
    117 C         -5.5492  -16.7356  -55.1308 C.2       21 UNK         0.5000 
    118 O         -6.2366  -15.7447  -55.3859 O.2       21 UNK        -0.5000 
    119 N         -5.3887  -17.2173  -53.8890 N.am      22 UNK        -0.5000 
    120 CA        -6.0356  -16.6524  -52.6889 C.3       22 UNK         0.1400 
    121 C         -7.5748  -16.8860  -52.6014 C.2       22 UNK         0.5000 
    122 N         -8.1747  -17.7300  -53.4321 N.am      22 UNK        -0.7600 
    123 O         -8.2404  -16.2815  -51.7650 O.2       22 UNK        -0.5000 
    124 C124       -5.3499  -17.1170  -51.3794 C.3       23 UNK        -0.0398 
    125 S125       -3.5858  -16.6619  -51.2942 S.3       23 UNK        -0.2404 
    126 C126       -2.9862  -17.9228  -50.1234 C.3       23 UNK        -0.0205 
    127 H127       -2.4800  -13.4947  -48.2762 H         1 UNK         0.0600 
    128 H128       -2.3636  -11.8597  -47.6132 H         1 UNK         0.0600 
    129 H129       -1.8393  -13.2399  -46.6508 H         1 UNK         0.0600 
    130 H130        0.3750  -13.6677  -46.6784 H         1 UNK         0.3000 
    131 H131        2.0130  -13.0736  -49.0592 H         1 UNK         0.0600 
    132 H132        3.7838  -14.3137  -47.9367 H         1 UNK         0.0800 
    133 H133        2.9345  -14.3018  -46.4144 H         1 UNK         0.0800 
    134 H134        1.1449  -15.0382  -49.8553 H         1 UNK         0.0800 
    135 H135        2.5674  -15.9962  -50.2096 H         1 UNK         0.0800 
    136 H136       -1.0591  -16.0189  -49.7101 H         1 UNK         0.1150 
    137 H137       -1.5599  -20.1818  -50.5674 H         1 UNK         0.1150 
    138 H138        2.3800  -18.5290  -50.2122 H         1 UNK         0.1150 
    139 H139        0.2629  -21.6421  -50.7110 H         1 UNK         0.0800 
    140 H140        1.5714  -20.9176  -51.6121 H         1 UNK         0.0800 
    141 H141        0.5369  -20.2832  -47.9692 H         1 UNK         0.0800 
    142 H142        2.0499  -20.5316  -47.1676 H         1 UNK         0.0800 
    143 H143        1.5379  -23.0008  -46.9906 H         1 UNK         0.0600 
    144 H144        0.4455  -20.9127  -45.4460 H         1 UNK         0.3000 
    145 H145       -0.9535  -22.9334  -42.8320 H         1 UNK         0.0600 
    146 H146        0.5575  -21.4680  -41.5347 H         1 UNK         0.0600 
    147 H147        1.4942  -22.6779  -42.3991 H         1 UNK         0.0600 
    148 H148        1.4367  -21.0232  -42.9951 H         1 UNK         0.0600 
    149 H149       -0.8848  -20.1169  -43.1481 H         1 UNK         0.3000 
    150 H150       -4.0137  -19.7930  -44.9089 H         1 UNK         0.0600 
    151 H151       -4.4613  -19.9287  -42.4595 H         1 UNK         0.0600 
    152 H152       -4.3314  -18.2564  -42.9854 H         1 UNK         0.0600 
    153 H153       -2.9962  -19.0155  -42.1228 H         1 UNK         0.0600 
    154 H154       -2.1496  -17.8045  -44.1689 H         1 UNK         0.3000 
    155 H155       -0.1367  -17.8825  -47.1302 H         1 UNK         0.0600 
    156 H156       -2.0498  -15.8308  -45.8849 H         1 UNK         0.0600 
    157 H157       -0.7964  -15.5307  -47.0841 H         1 UNK         0.0600 
    158 H158       -2.2058  -16.4807  -47.5016 H         1 UNK         0.0600 
    159 H159        0.0821  -16.3273  -44.7577 H         1 UNK         0.3000 
    160 H160        2.2398  -18.5274  -42.9367 H         1 UNK         0.0600 
    161 H161        2.7048  -15.8566  -44.3696 H         1 UNK         0.0600 
    162 H162        3.7194  -17.2832  -44.4767 H         1 UNK         0.0600 
    163 H163        3.5895  -16.4188  -42.9522 H         1 UNK         0.0600 
    164 H164        1.1065  -15.9410  -42.4068 H         1 UNK         0.3000 
    165 H165       -1.8764  -17.0646  -40.8332 H         1 UNK         0.0600 
    166 H166       -0.9461  -15.7733  -38.9275 H         1 UNK         0.0600 
    167 H167       -0.1424  -17.3298  -39.0516 H         1 UNK         0.0600 
    168 H168        0.6765  -15.8766  -39.6116 H         1 UNK         0.0600 
    169 H169       -0.6981  -14.4830  -41.1354 H         1 UNK         0.3000 
    170 H170       -1.7532  -13.7766  -44.4285 H         1 UNK         0.0600 
    171 H171       -3.8932  -13.4045  -43.2072 H         1 UNK         0.0600 
    172 H172       -3.0156  -12.7419  -41.8334 H         1 UNK         0.0600 
    173 H173       -3.0020  -11.9015  -43.3845 H         1 UNK         0.0600 
    174 H174       -0.6369  -12.2580  -42.2197 H         1 UNK         0.3000 
    175 H175        1.6119  -11.4683  -42.5416 H         1 UNK         0.0600 
    176 H176        2.3515  -14.2541  -41.4303 H         1 UNK         0.0600 
    177 H177        2.8055  -12.7140  -40.7118 H         1 UNK         0.0600 
    178 H178        1.1305  -13.1994  -40.7269 H         1 UNK         0.0600 
    179 H179        2.9776  -13.1665  -44.3215 H         1 UNK         0.3000 
    180 H180        6.2919  -11.7655  -43.7862 H         1 UNK         0.0600 
    181 H181        4.9926  -14.4290  -44.5819 H         1 UNK         0.0600 
    182 H182        5.9931  -14.1795  -43.1570 H         1 UNK         0.0600 
    183 H183        6.6894  -13.9897  -44.7576 H         1 UNK         0.0600 
    184 H184        4.9686  -12.5949  -46.1929 H         1 UNK         0.3000 
    185 H185        3.9170   -9.4569  -47.3503 H         1 UNK         0.0600 
    186 H186        6.3477   -9.2820  -47.9006 H         1 UNK         0.0600 
    187 H187        6.3936  -10.9921  -48.3110 H         1 UNK         0.0600 
    188 H188        5.4295   -9.8727  -49.2758 H         1 UNK         0.0600 
    189 H189        4.1587  -11.9974  -48.6298 H         1 UNK         0.3000 
    190 H190       -1.7044  -21.4204  -47.2080 H         1 UNK         0.3000 
    191 H191       -2.7028  -23.0223  -49.3335 H         1 UNK         0.0600 
    192 H192       -4.1869  -21.5492  -47.0960 H         1 UNK         0.0600 
    193 H193       -4.9196  -22.1696  -48.5737 H         1 UNK         0.0600 
    194 H194       -3.7307  -20.8779  -48.6608 H         1 UNK         0.0600 
    195 H195       -2.8124  -23.5056  -45.7680 H         1 UNK         0.3000 
    196 H196       -4.3568  -25.8950  -45.8070 H         1 UNK         0.0600 
    197 H197       -3.4907  -26.1818  -43.4831 H         1 UNK         0.0600 
    198 H198       -4.0535  -24.5415  -43.7634 H         1 UNK         0.0600 
    199 H199       -2.3264  -24.8900  -43.7461 H         1 UNK         0.0600 
    200 H200       -0.8031  -25.3759  -45.9236 H         1 UNK         0.3000 
    201 H201       -0.0534  -28.1207  -45.9480 H         1 UNK         0.0600 
    202 H202        1.5281  -26.3048  -45.3869 H         1 UNK         0.0600 
    203 H203        1.4093  -25.6492  -47.0181 H         1 UNK         0.0600 
    204 H204        2.1402  -27.2274  -46.7512 H         1 UNK         0.0600 
    205 H205       -0.7504  -25.8242  -48.6166 H         1 UNK         0.3000 
    206 H206       -0.2876  -27.6719  -50.7639 H         1 UNK         0.0600 
    207 H207       -0.2972  -25.1960  -51.0589 H         1 UNK         0.0600 
    208 H208       -1.4898  -25.9491  -52.1078 H         1 UNK         0.0600 
    209 H209       -2.0075  -25.1337  -50.6377 H         1 UNK         0.0600 
    210 H210       -3.0079  -27.0605  -48.6643 H         1 UNK         0.3000 
    211 H211       -4.9836  -27.9251  -48.2826 H         1 UNK         0.0600 
    212 H212       -4.2156  -30.3181  -50.0378 H         1 UNK         0.0600 
    213 H213       -5.5189  -30.2581  -48.8596 H         1 UNK         0.0600 
    214 H214       -3.8508  -30.1585  -48.3197 H         1 UNK         0.0600 
    215 H215       -4.7378  -25.9465  -50.2169 H         1 UNK         0.3000 
    216 H216       -7.1781  -26.1066  -51.7116 H         1 UNK         0.0600 
    217 H217       -4.5063  -26.1959  -53.2522 H         1 UNK         0.0600 
    218 H218       -6.0776  -25.8970  -53.9861 H         1 UNK         0.0600 
    219 H219       -5.7329  -27.4596  -53.2719 H         1 UNK         0.0600 
    220 H220       -7.4041  -24.0690  -53.0271 H         1 UNK         0.3000 
    221 H221       -6.4767  -21.7154  -51.5888 H         1 UNK         0.0600 
    222 H222       -8.8061  -21.8939  -52.4202 H         1 UNK         0.0600 
    223 H223       -8.2303  -22.0326  -54.0816 H         1 UNK         0.0600 
    224 H224       -7.9821  -20.5431  -53.1780 H         1 UNK         0.0600 
    225 H225       -4.2153  -22.6071  -52.1475 H         1 UNK         0.3000 
    226 H226       -2.9695  -22.2010  -54.6526 H         1 UNK         0.0600 
    227 H227       -1.9709  -23.5699  -52.8752 H         1 UNK         0.0600 
    228 H228       -0.8625  -22.2527  -53.2184 H         1 UNK         0.0600 
    229 H229       -1.8802  -22.1931  -51.7828 H         1 UNK         0.0600 
    230 H230       -1.3587  -20.6227  -55.2343 H         1 UNK         0.3000 
    231 H231       -0.6798  -18.6142  -55.8340 H         1 UNK         0.0600 
    232 H232       -1.1565  -17.7429  -52.9434 H         1 UNK         0.0600 
    233 H233       -0.0318  -17.0281  -54.0854 H         1 UNK         0.0600 
    234 H234        0.2517  -18.6538  -53.4839 H         1 UNK         0.0600 
    235 H235       -3.6301  -19.1613  -55.8787 H         1 UNK         0.3000 
    236 H236       -5.5310  -18.3004  -56.5567 H         1 UNK         0.0600 
    237 H237       -5.5856  -16.2701  -57.9352 H         1 UNK         0.0600 
    238 H238       -4.0215  -15.7496  -57.3268 H         1 UNK         0.0600 
    239 H239       -4.1469  -17.1935  -58.3313 H         1 UNK         0.0600 
    240 H240       -4.7716  -18.0072  -53.7353 H         1 UNK         0.3000 
    241 H241       -5.9119  -15.5691  -52.7445 H         1 UNK         0.0600 
    242 H242       -9.1719  -17.8619  -53.3695 H         1 UNK         0.3800 
    243 H243       -7.6439  -18.2269  -54.1287 H         1 UNK         0.3800 
    244 H244       -5.4511  -18.1990  -51.2805 H         1 UNK         0.0800 
    245 H245       -5.8400  -16.6805  -50.5072 H         1 UNK         0.0800 
    246 H246       -3.3074  -17.6666  -49.1145 H         1 UNK         0.0800 
    247 H247       -3.4573  -18.8781  -50.3581 H         1 UNK         0.0800 
@<TRIPOS>BOND
     1    1    2 1    
     2    1  127 1    
     3    1  128 1    
     4    1  129 1    
     5    2    3 2    
     6    2    4 am   BACKBONE|DICT|INTERRES
     7    4    5 1    
     8    4  130 1    
     9    5    6 1    
    10    5   65 1    
    11    5  131 1    
    12    6    7 1    
    13    6  132 1    
    14    6  133 1    
    15    7    8 1    
    16    8    9 1    
    17    8  134 1    
    18    8  135 1    
    19    9   10 ar   
    20    9   14 ar   
    21   10   11 ar   
    22   10  136 1    
    23   11   12 ar   
    24   11  126 1    
    25   12   13 ar   
    26   12  137 1    
    27   13   14 ar   
    28   13   15 1    
    29   14  138 1    
    30   15   16 1    
    31   15  139 1    
    32   15  140 1    
    33   16   17 1    
    34   17   18 1    
    35   17  141 1    
    36   17  142 1    
    37   18   19 1    
    38   18   67 1    
    39   18  143 1    
    40   19   20 am   BACKBONE|DICT|INTERRES
    41   19  144 1    
    42   20   21 2    
    43   20   22 1    
    44   22   23 1    
    45   22   24 1    
    46   22  145 1    
    47   23  146 1    
    48   23  147 1    
    49   23  148 1    
    50   24   25 am   BACKBONE|DICT|INTERRES
    51   24  149 1    
    52   25   26 2    
    53   25   27 1    
    54   27   28 1    
    55   27   29 1    
    56   27  150 1    
    57   28  151 1    
    58   28  152 1    
    59   28  153 1    
    60   29   30 am   BACKBONE|DICT|INTERRES
    61   29  154 1    
    62   30   31 2    
    63   30   32 1    
    64   32   33 1    
    65   32   34 1    
    66   32  155 1    
    67   33  156 1    
    68   33  157 1    
    69   33  158 1    
    70   34   35 am   BACKBONE|DICT|INTERRES
    71   34  159 1    
    72   35   36 2    
    73   35   37 1    
    74   37   38 1    
    75   37   39 1    
    76   37  160 1    
    77   38  161 1    
    78   38  162 1    
    79   38  163 1    
    80   39   40 am   BACKBONE|DICT|INTERRES
    81   39  164 1    
    82   40   41 2    
    83   40   42 1    
    84   42   43 1    
    85   42   44 1    
    86   42  165 1    
    87   43  166 1    
    88   43  167 1    
    89   43  168 1    
    90   44   45 am   BACKBONE|DICT|INTERRES
    91   44  169 1    
    92   45   46 2    
    93   45   47 1    
    94   47   48 1    
    95   47   49 1    
    96   47  170 1    
    97   48  171 1    
    98   48  172 1    
    99   48  173 1    
   100   49   50 am   BACKBONE|DICT|INTERRES
   101   49  174 1    
   102   50   51 2    
   103   50   52 1    
   104   52   53 1    
   105   52   54 1    
   106   52  175 1    
   107   53  176 1    
   108   53  177 1    
   109   53  178 1    
   110   54   55 am   BACKBONE|DICT|INTERRES
   111   54  179 1    
   112   55   56 2    
   113   55   57 1    
   114   57   58 1    
   115   57   59 1    
   116   57  180 1    
   117   58  181 1    
   118   58  182 1    
   119   58  183 1    
   120   59   60 am   BACKBONE|DICT|INTERRES
   121   59  184 1    
   122   60   61 2    
   123   60   62 1    
   124   62   63 1    
   125   62   64 1    
   126   62  185 1    
   127   63  186 1    
   128   63  187 1    
   129   63  188 1    
   130   64   65 am   BACKBONE|DICT|INTERRES
   131   64  189 1    
   132   65   66 2    
   133   67   68 2    
   134   67   69 am   BACKBONE|DICT|INTERRES
   135   69   70 1    
   136   69  190 1    
   137   70   71 1    
   138   70   72 1    
   139   70  191 1    
   140   71  192 1    
   141   71  193 1    
   142   71  194 1    
   143   72   73 2    
   144   72   74 am   BACKBONE|DICT|INTERRES
   145   74   75 1    
   146   74  195 1    
   147   75   76 1    
   148   75   77 1    
   149   75  196 1    
   150   76  197 1    
   151   76  198 1    
   152   76  199 1    
   153   77   78 2    
   154   77   79 am   BACKBONE|DICT|INTERRES
   155   79   80 1    
   156   79  200 1    
   157   80   81 1    
   158   80   82 1    
   159   80  201 1    
   160   81  202 1    
   161   81  203 1    
   162   81  204 1    
   163   82   83 2    
   164   82   84 am   BACKBONE|DICT|INTERRES
   165   84   85 1    
   166   84  205 1    
   167   85   86 1    
   168   85   87 1    
   169   85  206 1    
   170   86  207 1    
   171   86  208 1    
   172   86  209 1    
   173   87   88 2    
   174   87   89 am   BACKBONE|DICT|INTERRES
   175   89   90 1    
   176   89  210 1    
   177   90   91 1    
   178   90   92 1    
   179   90  211 1    
   180   91  212 1    
   181   91  213 1    
   182   91  214 1    
   183   92   93 2    
   184   92   94 am   BACKBONE|DICT|INTERRES
   185   94   95 1    
   186   94  215 1    
   187   95   96 1    
   188   95   97 1    
   189   95  216 1    
   190   96  217 1    
   191   96  218 1    
   192   96  219 1    
   193   97   98 2    
   194   97   99 am   BACKBONE|DICT|INTERRES
   195   99  100 1    
   196   99  220 1    
   197  100  101 1    
   198  100  102 1    
   199  100  221 1    
   200  101  222 1    
   201  101  223 1    
   202  101  224 1    
   203  102  103 2    
   204  102  104 am   BACKBONE|DICT|INTERRES
   205  104  105 1    
   206  104  225 1    
   207  105  106 1    
   208  105  107 1    
   209  105  226 1    
   210  106  227 1    
   211  106  228 1    
   212  106  229 1    
   213  107  108 2    
   214  107  109 am   BACKBONE|DICT|INTERRES
   215  109  110 1    
   216  109  230 1    
   217  110  111 1    
   218  110  112 1    
   219  110  231 1    
   220  111  232 1    
   221  111  233 1    
   222  111  234 1    
   223  112  113 2    
   224  112  114 am   BACKBONE|DICT|INTERRES
   225  114  115 1    
   226  114  235 1    
   227  115  116 1    
   228  115  117 1    
   229  115  236 1    
   230  116  237 1    
   231  116  238 1    
   232  116  239 1    
   233  117  118 2    
   234  117  119 am   BACKBONE|DICT|INTERRES
   235  119  120 1    
   236  119  240 1    
   237  120  121 1    
   238  120  124 1    
   239  120  241 1    
   240  121  122 am   BACKBONE|DICT|INTERRES
   241  121  123 2    
   242  122  242 1    
   243  122  243 1    
   244  124  125 1    
   245  124  244 1    
   246  124  245 1    
   247  125  126 1    
   248  126  246 1    
   249  126  247 1    
@<TRIPOS>SUBSTRUCTURE
     1 UNK         1 GROUP             0       ****    0 ROOT    
