@<TRIPOS>MOLECULE
3R540
247   249    1
SMALL
USER_CHARGES


@<TRIPOS>ATOM
      1 CA         -0.9751  -11.8224  -47.5797 C.3       0 UNK        -0.1800 
      2 C           0.4926  -11.6840  -47.1999 C.2       0 UNK         0.5000 
      3 O           0.8478  -10.7761  -46.4494 O.2       0 UNK        -0.5000 
      4 N           1.3434  -12.5682  -47.7322 N.am      1 UNK        -0.5000 
      5 CA          2.7758  -12.6506  -47.4365 C.3       1 UNK         0.1400 
      6 C6          3.5541  -13.4198  -48.5357 C.3       23 UNK        -0.0398 
      7 S7          2.8154  -15.0279  -48.9850 S.3       23 UNK        -0.2404 
      8 C8          2.1564  -14.6767  -50.6423 C.3       23 UNK        -0.0205 
      9 C9          1.1742  -15.7540  -51.0693 C.ar      23 UNK        -0.0193 
     10 C10        -0.1921  -15.4684  -51.1606 C.ar      23 UNK        -0.1150 
     11 C11        -1.0987  -16.4667  -51.5261 C.ar      23 UNK        -0.0193 
     12 C12        -0.6291  -17.7507  -51.8088 C.ar      23 UNK        -0.1150 
     13 C13         0.7314  -18.0509  -51.7148 C.ar      23 UNK        -0.0193 
     14 C14         1.6305  -17.0451  -51.3534 C.ar      23 UNK        -0.1150 
     15 C15         1.2221  -19.4660  -51.9802 C.3       23 UNK        -0.0205 
     16 S16         1.2306  -20.4647  -50.4561 S.3       23 UNK        -0.2404 
     17 C17        -0.5549  -20.5427  -50.1015 C.3       23 UNK        -0.0398 
     18 CA         -0.9382  -21.7284  -49.1850 C.3       11 UNK         0.1400 
     19 N          -0.5132  -21.4993  -47.7983 N.am      11 UNK        -0.5000 
     20 C          -0.5012  -22.4135  -46.8203 C.2       10 UNK         0.5000 
     21 O          -0.8113  -23.5930  -46.9843 O.2       10 UNK        -0.5000 
     22 CA         -0.2061  -21.9028  -45.3978 C.3       10 UNK         0.1400 
     23 CB          1.3052  -21.8621  -45.1326 C.3       10 UNK        -0.1800 
     24 N          -0.8038  -20.5905  -45.1283 N.am      10 UNK        -0.5000 
     25 C          -2.1198  -20.3287  -45.1694 C.2       9 UNK         0.5000 
     26 O          -2.9722  -21.1855  -45.4022 O.2       9 UNK        -0.5000 
     27 CA         -2.5612  -18.8684  -44.9664 C.3       9 UNK         0.1400 
     28 CB         -2.5983  -18.5083  -43.4744 C.3       9 UNK        -0.1800 
     29 N          -1.7101  -17.9224  -45.6864 N.am      9 UNK        -0.5000 
     30 C          -1.6226  -17.8415  -47.0224 C.2       8 UNK         0.5000 
     31 O          -2.3144  -18.5054  -47.7934 O.2       8 UNK        -0.5000 
     32 CA         -0.5518  -16.8914  -47.5909 C.3       8 UNK         0.1400 
     33 CB         -1.0843  -15.4565  -47.6981 C.3       8 UNK        -0.1800 
     34 N           0.6765  -16.9025  -46.7955 N.am      8 UNK        -0.5000 
     35 C           1.4945  -17.9604  -46.7044 C.2       7 UNK         0.5000 
     36 O           1.3191  -19.0133  -47.3168 O.2       7 UNK        -0.5000 
     37 CA          2.6535  -17.8570  -45.6976 C.3       7 UNK         0.1400 
     38 CB          3.8881  -17.1716  -46.2982 C.3       7 UNK        -0.1800 
     39 N           2.2481  -17.1703  -44.4711 N.am      7 UNK        -0.5000 
     40 C           1.4650  -17.7364  -43.5435 C.2       6 UNK         0.5000 
     41 O           1.0252  -18.8819  -43.6336 O.2       6 UNK        -0.5000 
     42 CA          1.0898  -16.8878  -42.3185 C.3       6 UNK         0.1400 
     43 CB          2.1634  -17.0141  -41.2273 C.3       6 UNK        -0.1800 
     44 N           0.8696  -15.4728  -42.6082 N.am      6 UNK        -0.5000 
     45 C          -0.0835  -14.9709  -43.4065 C.2       5 UNK         0.5000 
     46 O          -0.8104  -15.6696  -44.1131 O.2       5 UNK        -0.5000 
     47 CA         -0.2536  -13.4336  -43.3943 C.3       5 UNK         0.1400 
     48 CB         -1.7097  -12.9953  -43.6541 C.3       5 UNK        -0.1800 
     49 N           0.2935  -12.8042  -42.1816 N.am      5 UNK        -0.5000 
     50 C          -0.1258  -12.9683  -40.9145 C.2       4 UNK         0.5000 
     51 O          -1.1336  -13.6071  -40.6105 O.2       4 UNK        -0.5000 
     52 CA          0.7487  -12.3738  -39.7894 C.3       4 UNK         0.1400 
     53 CB          0.9743  -13.3977  -38.6621 C.3       4 UNK        -0.1800 
     54 N           2.0595  -11.9385  -40.2770 N.am      4 UNK        -0.5000 
     55 C           2.4207  -10.6681  -40.4896 C.2       3 UNK         0.5000 
     56 O           1.6948   -9.6989  -40.2653 O.2       3 UNK        -0.5000 
     57 CA          3.8306  -10.4425  -41.0724 C.3       3 UNK         0.1400 
     58 CB          4.8489  -10.2371  -39.9402 C.3       3 UNK        -0.1800 
     59 N           4.3152  -11.5059  -41.9649 N.am      3 UNK        -0.5000 
     60 C           3.7189  -11.8914  -43.1014 C.2       2 UNK         0.5000 
     61 O           2.6049  -11.4941  -43.4459 O.2       2 UNK        -0.5000 
     62 CA          4.5098  -12.8713  -43.9912 C.3       2 UNK         0.1400 
     63 CB          4.4305  -14.3194  -43.4679 C.3       2 UNK        -0.1800 
     64 N           4.1200  -12.7500  -45.4030 N.am      2 UNK        -0.5000 
     65 C           3.0286  -13.2244  -46.0238 C.2       1 UNK         0.5000 
     66 O           2.2588  -14.0671  -45.5519 O.2       1 UNK        -0.5000 
     67 C          -2.4402  -22.0742  -49.3464 C.2       11 UNK         0.5000 
     68 O          -2.8694  -22.2906  -50.4778 O.2       11 UNK        -0.5000 
     69 N          -3.2172  -22.1309  -48.2590 N.am      12 UNK        -0.5000 
     70 CA         -4.5762  -22.6612  -48.2418 C.3       12 UNK         0.1400 
     71 CB         -5.5642  -21.5351  -47.8982 C.3       12 UNK        -0.1800 
     72 C          -4.6743  -23.8236  -47.2417 C.2       12 UNK         0.5000 
     73 O          -5.1062  -24.9142  -47.6153 O.2       12 UNK        -0.5000 
     74 N          -4.2793  -23.5719  -45.9864 N.am      13 UNK        -0.5000 
     75 CA         -4.4587  -24.4833  -44.8581 C.3       13 UNK         0.1400 
     76 CB         -4.3002  -23.7000  -43.5450 C.3       13 UNK        -0.1800 
     77 C          -3.5105  -25.6923  -44.8894 C.2       13 UNK         0.5000 
     78 O          -3.9744  -26.8280  -44.7841 O.2       13 UNK        -0.5000 
     79 N          -2.2035  -25.4324  -45.0266 N.am      14 UNK        -0.5000 
     80 CA         -1.1626  -26.4647  -45.0308 C.3       14 UNK         0.1400 
     81 CB          0.1896  -25.8457  -44.6423 C.3       14 UNK        -0.1800 
     82 C          -1.0756  -27.1810  -46.3883 C.2       14 UNK         0.5000 
     83 O          -0.8220  -28.3853  -46.4287 O.2       14 UNK        -0.5000 
     84 N          -1.3231  -26.4311  -47.4704 N.am      15 UNK        -0.5000 
     85 CA         -1.4245  -26.9342  -48.8401 C.3       15 UNK         0.1400 
     86 CB         -1.4332  -25.7354  -49.8002 C.3       15 UNK        -0.1800 
     87 C          -2.6600  -27.8288  -49.0756 C.2       15 UNK         0.5000 
     88 O          -2.6378  -28.6508  -49.9921 O.2       15 UNK        -0.5000 
     89 N          -3.7060  -27.6484  -48.2520 N.am      16 UNK        -0.5000 
     90 CA         -5.0032  -28.3410  -48.2689 C.3       16 UNK         0.1400 
     91 CB         -4.8293  -29.8460  -47.9785 C.3       16 UNK        -0.1800 
     92 C          -5.8407  -28.0701  -49.5399 C.2       16 UNK         0.5000 
     93 O          -6.7634  -28.8259  -49.8495 O.2       16 UNK        -0.5000 
     94 N          -5.5109  -26.9820  -50.2373 N.am      17 UNK        -0.5000 
     95 CA         -6.0969  -26.4678  -51.4662 C.3       17 UNK         0.1400 
     96 CB         -5.7814  -27.3982  -52.6522 C.3       17 UNK        -0.1800 
     97 C          -5.4786  -25.0804  -51.6822 C.2       17 UNK         0.5000 
     98 O          -4.3947  -24.8200  -51.1570 O.2       17 UNK        -0.5000 
     99 N          -6.1666  -24.2146  -52.4336 N.am      18 UNK        -0.5000 
    100 CA        -5.7404  -22.8433  -52.7123 C.3       18 UNK         0.1400 
    101 CB        -6.9590  -22.0325  -53.1876 C.3       18 UNK        -0.1800 
    102 C         -4.5831  -22.7987  -53.7302 C.2       18 UNK         0.5000 
    103 O         -4.8237  -22.6738  -54.9337 O.2       18 UNK        -0.5000 
    104 N         -3.3449  -22.9003  -53.2324 N.am      19 UNK        -0.5000 
    105 CA        -2.1171  -22.7196  -54.0055 C.3       19 UNK         0.1400 
    106 CB        -0.9121  -23.1733  -53.1686 C.3       19 UNK        -0.1800 
    107 C         -1.9722  -21.2503  -54.4378 C.2       19 UNK         0.5000 
    108 O         -2.3907  -20.3540  -53.7011 O.2       19 UNK        -0.5000 
    109 N         -1.4450  -21.0275  -55.6491 N.am      20 UNK        -0.5000 
    110 CA        -1.3554  -19.7238  -56.3288 C.3       20 UNK         0.1400 
    111 CB        -0.3716  -18.7907  -55.5913 C.3       20 UNK        -0.1800 
    112 C         -2.7312  -19.0529  -56.5705 C.2       20 UNK         0.5000 
    113 O         -2.7934  -17.8403  -56.7753 O.2       20 UNK        -0.5000 
    114 N         -3.8029  -19.8619  -56.5404 N.am      21 UNK        -0.5000 
    115 CA        -5.2187  -19.4939  -56.6218 C.3       21 UNK         0.1400 
    116 CB        -5.5500  -18.8460  -57.9831 C.3       21 UNK        -0.1800 
    117 C         -5.7232  -18.6643  -55.4193 C.2       21 UNK         0.5000 
    118 O         -6.7302  -17.9656  -55.5515 O.2       21 UNK        -0.5000 
    119 N         -5.0532  -18.7679  -54.2633 N.am      22 UNK        -0.5000 
    120 CA        -5.4426  -18.0774  -53.0212 C.3       22 UNK         0.1400 
    121 C         -5.0919  -18.8367  -51.7114 C.2       22 UNK         0.5000 
    122 N         -4.1784  -19.7975  -51.7073 N.am      22 UNK        -0.7600 
    123 O         -5.6916  -18.5666  -50.6752 O.2       22 UNK        -0.5000 
    124 C124       -5.0016  -16.5873  -52.9862 C.3       23 UNK        -0.0398 
    125 S125       -3.2182  -16.3324  -53.2872 S.3       23 UNK        -0.2404 
    126 C126       -2.5900  -16.1851  -51.5863 C.3       23 UNK        -0.0205 
    127 H127       -1.1095  -12.4695  -48.4466 H         1 UNK         0.0600 
    128 H128       -1.3953  -10.8464  -47.8225 H         1 UNK         0.0600 
    129 H129       -1.5406  -12.2402  -46.7477 H         1 UNK         0.0600 
    130 H130        0.9917  -13.3176  -48.3085 H         1 UNK         0.3000 
    131 H131        3.1584  -11.6274  -47.4363 H         1 UNK         0.0600 
    132 H132        3.6169  -12.7983  -49.4298 H         1 UNK         0.0800 
    133 H133        4.5892  -13.5886  -48.2338 H         1 UNK         0.0800 
    134 H134        1.6734  -13.6984  -50.6474 H         1 UNK         0.0800 
    135 H135        2.9785  -14.6235  -51.3574 H         1 UNK         0.0800 
    136 H136       -0.5517  -14.4748  -50.9335 H         1 UNK         0.1150 
    137 H137       -1.3336  -18.5197  -52.0913 H         1 UNK         0.1150 
    138 H138        2.6840  -17.2715  -51.2675 H         1 UNK         0.1150 
    139 H139        0.5986  -19.9490  -52.7346 H         1 UNK         0.0800 
    140 H140        2.2319  -19.4378  -52.3917 H         1 UNK         0.0800 
    141 H141       -1.0682  -20.6039  -51.0620 H         1 UNK         0.0800 
    142 H142       -0.8670  -19.5984  -49.6564 H         1 UNK         0.0800 
    143 H143       -0.4048  -22.6119  -49.5411 H         1 UNK         0.0600 
    144 H144       -0.2087  -20.5575  -47.5780 H         1 UNK         0.3000 
    145 H145       -0.6493  -22.6117  -44.6959 H         1 UNK         0.0600 
    146 H146        1.5168  -21.5821  -44.1006 H         1 UNK         0.0600 
    147 H147        1.7580  -22.8396  -45.3025 H         1 UNK         0.0600 
    148 H148        1.8111  -21.1498  -45.7838 H         1 UNK         0.0600 
    149 H149       -0.1639  -19.8470  -44.8655 H         1 UNK         0.3000 
    150 H150       -3.5745  -18.7714  -45.3618 H         1 UNK         0.0600 
    151 H151       -3.2727  -19.1713  -42.9310 H         1 UNK         0.0600 
    152 H152       -2.9518  -17.4881  -43.3232 H         1 UNK         0.0600 
    153 H153       -1.6148  -18.5929  -43.0136 H         1 UNK         0.0600 
    154 H154       -1.1640  -17.2760  -45.1238 H         1 UNK         0.3000 
    155 H155       -0.3038  -17.2360  -48.5974 H         1 UNK         0.0600 
    156 H156       -0.3593  -14.8159  -48.1965 H         1 UNK         0.0600 
    157 H157       -2.0030  -15.4239  -48.2850 H         1 UNK         0.0600 
    158 H158       -1.3002  -15.0273  -46.7194 H         1 UNK         0.0600 
    159 H159        0.8790  -16.0800  -46.2432 H         1 UNK         0.3000 
    160 H160        2.9464  -18.8774  -45.4402 H         1 UNK         0.0600 
    161 H161        3.7232  -16.1081  -46.4564 H         1 UNK         0.0600 
    162 H162        4.1532  -17.6121  -47.2602 H         1 UNK         0.0600 
    163 H163        4.7516  -17.2772  -45.6415 H         1 UNK         0.0600 
    164 H164        2.5113  -16.1989  -44.3755 H         1 UNK         0.3000 
    165 H165        0.1549  -17.2861  -41.9197 H         1 UNK         0.0600 
    166 H166        3.1167  -16.5920  -41.5476 H         1 UNK         0.0600 
    167 H167        1.8593  -16.5047  -40.3128 H         1 UNK         0.0600 
    168 H168        2.3378  -18.0600  -40.9708 H         1 UNK         0.0600 
    169 H169        1.4154  -14.8162  -42.0739 H         1 UNK         0.3000 
    170 H170        0.3426  -13.0514  -44.2218 H         1 UNK         0.0600 
    171 H171       -2.0565  -13.3527  -44.6240 H         1 UNK         0.0600 
    172 H172       -2.3956  -13.3882  -42.9037 H         1 UNK         0.0600 
    173 H173       -1.7989  -11.9091  -43.6588 H         1 UNK         0.0600 
    174 H174        1.1178  -12.2338  -42.3466 H         1 UNK         0.3000 
    175 H175        0.1970  -11.5297  -39.3712 H         1 UNK         0.0600 
    176 H176        0.0295  -13.7078  -38.2139 H         1 UNK         0.0600 
    177 H177        1.4758  -14.2948  -39.0266 H         1 UNK         0.0600 
    178 H178        1.5837  -12.9746  -37.8633 H         1 UNK         0.0600 
    179 H179        2.7307  -12.6630  -40.4855 H         1 UNK         0.3000 
    180 H180        3.7890   -9.5227  -41.6595 H         1 UNK         0.0600 
    181 H181        4.5338   -9.4358  -39.2703 H         1 UNK         0.0600 
    182 H182        5.8277   -9.9619  -40.3336 H         1 UNK         0.0600 
    183 H183        4.9689  -11.1392  -39.3389 H         1 UNK         0.0600 
    184 H184        5.2224  -11.8891  -41.7402 H         1 UNK         0.3000 
    185 H185        5.5567  -12.5659  -43.9552 H         1 UNK         0.0600 
    186 H186        4.9294  -14.4112  -42.5028 H         1 UNK         0.0600 
    187 H187        3.4021  -14.6448  -43.3266 H         1 UNK         0.0600 
    188 H188        4.9160  -15.0159  -44.1514 H         1 UNK         0.0600 
    189 H189        4.6708  -12.0728  -45.9118 H         1 UNK         0.3000 
    190 H190       -2.8128  -21.9091  -47.3581 H         1 UNK         0.3000 
    191 H191       -4.8532  -23.0584  -49.2195 H         1 UNK         0.0600 
    192 H192       -5.3343  -21.0686  -46.9397 H         1 UNK         0.0600 
    193 H193       -6.5856  -21.9137  -47.8463 H         1 UNK         0.0600 
    194 H194       -5.5446  -20.7546  -48.6594 H         1 UNK         0.0600 
    195 H195       -3.9063  -22.6512  -45.7604 H         1 UNK         0.3000 
    196 H196       -5.4812  -24.8659  -44.8948 H         1 UNK         0.0600 
    197 H197       -4.4479  -24.3495  -42.6813 H         1 UNK         0.0600 
    198 H198       -5.0334  -22.8962  -43.4763 H         1 UNK         0.0600 
    199 H199       -3.3089  -23.2537  -43.4556 H         1 UNK         0.0600 
    200 H200       -1.9060  -24.4829  -45.1990 H         1 UNK         0.3000 
    201 H201       -1.4129  -27.2128  -44.2753 H         1 UNK         0.0600 
    202 H202        0.1266  -25.3225  -43.6881 H         1 UNK         0.0600 
    203 H203        0.5477  -25.1398  -45.3907 H         1 UNK         0.0600 
    204 H204        0.9513  -26.6193  -44.5387 H         1 UNK         0.0600 
    205 H205       -1.4290  -25.4294  -47.3407 H         1 UNK         0.3000 
    206 H206       -0.5380  -27.5362  -49.0495 H         1 UNK         0.0600 
    207 H207       -0.5087  -25.1629  -49.7256 H         1 UNK         0.0600 
    208 H208       -1.5357  -26.0577  -50.8373 H         1 UNK         0.0600 
    209 H209       -2.2616  -25.0610  -49.5836 H         1 UNK         0.0600 
    210 H210       -3.6277  -26.9180  -47.5574 H         1 UNK         0.3000 
    211 H211       -5.5733  -27.9133  -47.4430 H         1 UNK         0.0600 
    212 H212       -4.3329  -30.3633  -48.7998 H         1 UNK         0.0600 
    213 H213       -5.7949  -30.3292  -47.8256 H         1 UNK         0.0600 
    214 H214       -4.2410  -30.0066  -47.0749 H         1 UNK         0.0600 
    215 H215       -4.7619  -26.3941  -49.8877 H         1 UNK         0.3000 
    216 H216       -7.1761  -26.3688  -51.3357 H         1 UNK         0.0600 
    217 H217       -4.7062  -27.5335  -52.7778 H         1 UNK         0.0600 
    218 H218       -6.1733  -26.9909  -53.5848 H         1 UNK         0.0600 
    219 H219       -6.2285  -28.3831  -52.5185 H         1 UNK         0.0600 
    220 H220       -7.0320  -24.5108  -52.8610 H         1 UNK         0.3000 
    221 H221       -5.3894  -22.3914  -51.7819 H         1 UNK         0.0600 
    222 H222       -7.7304  -21.9950  -52.4183 H         1 UNK         0.0600 
    223 H223       -7.4033  -22.4564  -54.0889 H         1 UNK         0.0600 
    224 H224       -6.6786  -21.0038  -53.4129 H         1 UNK         0.0600 
    225 H225       -3.2359  -22.9592  -52.2211 H         1 UNK         0.3000 
    226 H226       -2.1792  -23.3490  -54.8955 H         1 UNK         0.0600 
    227 H227       -1.0164  -24.2140  -52.8611 H         1 UNK         0.0600 
    228 H228        0.0138  -23.0915  -53.7389 H         1 UNK         0.0600 
    229 H229       -0.7947  -22.5726  -52.2683 H         1 UNK         0.0600 
    230 H230       -1.1346  -21.8206  -56.1938 H         1 UNK         0.3000 
    231 H231       -0.9406  -19.9247  -57.3175 H         1 UNK         0.0600 
    232 H232       -0.7745  -18.4519  -54.6368 H         1 UNK         0.0600 
    233 H233       -0.1573  -17.9010  -56.1842 H         1 UNK         0.0600 
    234 H234        0.5789  -19.2876  -55.3979 H         1 UNK         0.0600 
    235 H235       -3.6349  -20.8412  -56.3546 H         1 UNK         0.3000 
    236 H236       -5.7666  -20.4360  -56.5726 H         1 UNK         0.0600 
    237 H237       -6.6275  -18.7414  -58.1145 H         1 UNK         0.0600 
    238 H238       -5.1139  -17.8512  -58.0765 H         1 UNK         0.0600 
    239 H239       -5.1824  -19.4538  -58.8098 H         1 UNK         0.0600 
    240 H240       -4.2121  -19.3289  -54.2217 H         1 UNK         0.3000 
    241 H241       -6.5345  -18.0696  -53.0061 H         1 UNK         0.0600 
    242 H242       -3.9995  -20.2977  -50.8512 H         1 UNK         0.3800 
    243 H243       -3.5776  -19.9851  -52.5085 H         1 UNK         0.3800 
    244 H244       -5.2916  -16.1136  -52.0467 H         1 UNK         0.0800 
    245 H245       -5.5388  -16.0397  -53.7612 H         1 UNK         0.0800 
    246 H246       -3.0991  -16.8939  -50.9323 H         1 UNK         0.0800 
    247 H247       -2.8187  -15.1895  -51.2034 H         1 UNK         0.0800 
@<TRIPOS>BOND
     1    1    2 1    
     2    1  127 1    
     3    1  128 1    
     4    1  129 1    
     5    2    3 2    
     6    2    4 am   BACKBONE|DICT|INTERRES
     7    4    5 1    
     8    4  130 1    
     9    5    6 1    
    10    5   65 1    
    11    5  131 1    
    12    6    7 1    
    13    6  132 1    
    14    6  133 1    
    15    7    8 1    
    16    8    9 1    
    17    8  134 1    
    18    8  135 1    
    19    9   10 ar   
    20    9   14 ar   
    21   10   11 ar   
    22   10  136 1    
    23   11   12 ar   
    24   11  126 1    
    25   12   13 ar   
    26   12  137 1    
    27   13   14 ar   
    28   13   15 1    
    29   14  138 1    
    30   15   16 1    
    31   15  139 1    
    32   15  140 1    
    33   16   17 1    
    34   17   18 1    
    35   17  141 1    
    36   17  142 1    
    37   18   19 1    
    38   18   67 1    
    39   18  143 1    
    40   19   20 am   BACKBONE|DICT|INTERRES
    41   19  144 1    
    42   20   21 2    
    43   20   22 1    
    44   22   23 1    
    45   22   24 1    
    46   22  145 1    
    47   23  146 1    
    48   23  147 1    
    49   23  148 1    
    50   24   25 am   BACKBONE|DICT|INTERRES
    51   24  149 1    
    52   25   26 2    
    53   25   27 1    
    54   27   28 1    
    55   27   29 1    
    56   27  150 1    
    57   28  151 1    
    58   28  152 1    
    59   28  153 1    
    60   29   30 am   BACKBONE|DICT|INTERRES
    61   29  154 1    
    62   30   31 2    
    63   30   32 1    
    64   32   33 1    
    65   32   34 1    
    66   32  155 1    
    67   33  156 1    
    68   33  157 1    
    69   33  158 1    
    70   34   35 am   BACKBONE|DICT|INTERRES
    71   34  159 1    
    72   35   36 2    
    73   35   37 1    
    74   37   38 1    
    75   37   39 1    
    76   37  160 1    
    77   38  161 1    
    78   38  162 1    
    79   38  163 1    
    80   39   40 am   BACKBONE|DICT|INTERRES
    81   39  164 1    
    82   40   41 2    
    83   40   42 1    
    84   42   43 1    
    85   42   44 1    
    86   42  165 1    
    87   43  166 1    
    88   43  167 1    
    89   43  168 1    
    90   44   45 am   BACKBONE|DICT|INTERRES
    91   44  169 1    
    92   45   46 2    
    93   45   47 1    
    94   47   48 1    
    95   47   49 1    
    96   47  170 1    
    97   48  171 1    
    98   48  172 1    
    99   48  173 1    
   100   49   50 am   BACKBONE|DICT|INTERRES
   101   49  174 1    
   102   50   51 2    
   103   50   52 1    
   104   52   53 1    
   105   52   54 1    
   106   52  175 1    
   107   53  176 1    
   108   53  177 1    
   109   53  178 1    
   110   54   55 am   BACKBONE|DICT|INTERRES
   111   54  179 1    
   112   55   56 2    
   113   55   57 1    
   114   57   58 1    
   115   57   59 1    
   116   57  180 1    
   117   58  181 1    
   118   58  182 1    
   119   58  183 1    
   120   59   60 am   BACKBONE|DICT|INTERRES
   121   59  184 1    
   122   60   61 2    
   123   60   62 1    
   124   62   63 1    
   125   62   64 1    
   126   62  185 1    
   127   63  186 1    
   128   63  187 1    
   129   63  188 1    
   130   64   65 am   BACKBONE|DICT|INTERRES
   131   64  189 1    
   132   65   66 2    
   133   67   68 2    
   134   67   69 am   BACKBONE|DICT|INTERRES
   135   69   70 1    
   136   69  190 1    
   137   70   71 1    
   138   70   72 1    
   139   70  191 1    
   140   71  192 1    
   141   71  193 1    
   142   71  194 1    
   143   72   73 2    
   144   72   74 am   BACKBONE|DICT|INTERRES
   145   74   75 1    
   146   74  195 1    
   147   75   76 1    
   148   75   77 1    
   149   75  196 1    
   150   76  197 1    
   151   76  198 1    
   152   76  199 1    
   153   77   78 2    
   154   77   79 am   BACKBONE|DICT|INTERRES
   155   79   80 1    
   156   79  200 1    
   157   80   81 1    
   158   80   82 1    
   159   80  201 1    
   160   81  202 1    
   161   81  203 1    
   162   81  204 1    
   163   82   83 2    
   164   82   84 am   BACKBONE|DICT|INTERRES
   165   84   85 1    
   166   84  205 1    
   167   85   86 1    
   168   85   87 1    
   169   85  206 1    
   170   86  207 1    
   171   86  208 1    
   172   86  209 1    
   173   87   88 2    
   174   87   89 am   BACKBONE|DICT|INTERRES
   175   89   90 1    
   176   89  210 1    
   177   90   91 1    
   178   90   92 1    
   179   90  211 1    
   180   91  212 1    
   181   91  213 1    
   182   91  214 1    
   183   92   93 2    
   184   92   94 am   BACKBONE|DICT|INTERRES
   185   94   95 1    
   186   94  215 1    
   187   95   96 1    
   188   95   97 1    
   189   95  216 1    
   190   96  217 1    
   191   96  218 1    
   192   96  219 1    
   193   97   98 2    
   194   97   99 am   BACKBONE|DICT|INTERRES
   195   99  100 1    
   196   99  220 1    
   197  100  101 1    
   198  100  102 1    
   199  100  221 1    
   200  101  222 1    
   201  101  223 1    
   202  101  224 1    
   203  102  103 2    
   204  102  104 am   BACKBONE|DICT|INTERRES
   205  104  105 1    
   206  104  225 1    
   207  105  106 1    
   208  105  107 1    
   209  105  226 1    
   210  106  227 1    
   211  106  228 1    
   212  106  229 1    
   213  107  108 2    
   214  107  109 am   BACKBONE|DICT|INTERRES
   215  109  110 1    
   216  109  230 1    
   217  110  111 1    
   218  110  112 1    
   219  110  231 1    
   220  111  232 1    
   221  111  233 1    
   222  111  234 1    
   223  112  113 2    
   224  112  114 am   BACKBONE|DICT|INTERRES
   225  114  115 1    
   226  114  235 1    
   227  115  116 1    
   228  115  117 1    
   229  115  236 1    
   230  116  237 1    
   231  116  238 1    
   232  116  239 1    
   233  117  118 2    
   234  117  119 am   BACKBONE|DICT|INTERRES
   235  119  120 1    
   236  119  240 1    
   237  120  121 1    
   238  120  124 1    
   239  120  241 1    
   240  121  122 am   BACKBONE|DICT|INTERRES
   241  121  123 2    
   242  122  242 1    
   243  122  243 1    
   244  124  125 1    
   245  124  244 1    
   246  124  245 1    
   247  125  126 1    
   248  126  246 1    
   249  126  247 1    
@<TRIPOS>SUBSTRUCTURE
     1 UNK         1 GROUP             0       ****    0 ROOT    
