@<TRIPOS>MOLECULE
3R540
247   249    1
SMALL
USER_CHARGES


@<TRIPOS>ATOM
      1 CA         -1.2079  -16.0006  -45.5934 C.3       0 UNK        -0.1800 
      2 C          -1.3142  -15.3287  -46.9479 C.2       0 UNK         0.5000 
      3 O          -0.3798  -14.6493  -47.3769 O.2       0 UNK        -0.5000 
      4 N          -2.4706  -15.4906  -47.6045 N.am      1 UNK        -0.5000 
      5 CA         -2.8881  -14.8829  -48.8792 C.3       1 UNK         0.1400 
      6 C6         -1.9612  -15.1854  -50.0885 C.3       23 UNK        -0.0398 
      7 S7         -1.6353  -16.9654  -50.3575 S.3       23 UNK        -0.2404 
      8 C8          0.1734  -17.0034  -50.1116 C.3       23 UNK        -0.0205 
      9 C9          0.8524  -18.2894  -50.5751 C.ar      23 UNK        -0.0193 
     10 C10         0.5101  -18.8959  -51.7907 C.ar      23 UNK        -0.1150 
     11 C11         1.2062  -20.0191  -52.2473 C.ar      23 UNK        -0.0193 
     12 C12         2.2607  -20.5289  -51.4874 C.ar      23 UNK        -0.1150 
     13 C13         2.6264  -19.9260  -50.2824 C.ar      23 UNK        -0.0193 
     14 C14         1.9080  -18.8178  -49.8227 C.ar      23 UNK        -0.1150 
     15 C15         3.8446  -20.4354  -49.5262 C.3       23 UNK        -0.0205 
     16 S16         3.5335  -22.0179  -48.6864 S.3       23 UNK        -0.2404 
     17 C17         2.6529  -21.4584  -47.1942 C.3       23 UNK        -0.0398 
     18 CA          1.4174  -22.3288  -46.8689 C.3       11 UNK         0.1400 
     19 N           1.0786  -22.2548  -45.4464 N.am      11 UNK        -0.5000 
     20 C           0.1951  -23.0462  -44.8241 C.2       10 UNK         0.5000 
     21 O          -0.4119  -23.9641  -45.3774 O.2       10 UNK        -0.5000 
     22 CA         -0.0854  -22.7265  -43.3428 C.3       10 UNK         0.1400 
     23 CB          1.0072  -23.3166  -42.4391 C.3       10 UNK        -0.1800 
     24 N          -0.2024  -21.2888  -43.0902 N.am      10 UNK        -0.5000 
     25 C          -1.1564  -20.5074  -43.6153 C.2       9 UNK         0.5000 
     26 O          -2.0722  -20.9282  -44.3201 O.2       9 UNK        -0.5000 
     27 CA         -1.0388  -18.9951  -43.3652 C.3       9 UNK         0.1400 
     28 CB         -1.5784  -18.6187  -41.9782 C.3       9 UNK        -0.1800 
     29 N           0.3280  -18.4930  -43.5248 N.am      9 UNK        -0.5000 
     30 C           1.0540  -18.5740  -44.6501 C.2       8 UNK         0.5000 
     31 O           0.6408  -19.0627  -45.6983 O.2       8 UNK        -0.5000 
     32 CA          2.5015  -18.0655  -44.5891 C.3       8 UNK         0.1400 
     33 CB          2.5574  -16.5370  -44.7291 C.3       8 UNK        -0.1800 
     34 N           3.1661  -18.4881  -43.3588 N.am      8 UNK        -0.5000 
     35 C           3.4755  -19.7616  -43.0738 C.2       7 UNK         0.5000 
     36 O           3.2828  -20.7035  -43.8437 O.2       7 UNK        -0.5000 
     37 CA          4.0480  -20.0271  -41.6705 C.3       7 UNK         0.1400 
     38 CB          5.5537  -19.7262  -41.6302 C.3       7 UNK        -0.1800 
     39 N           3.3655  -19.2435  -40.6392 N.am      7 UNK        -0.5000 
     40 C           2.0846  -19.4190  -40.2849 C.2       6 UNK         0.5000 
     41 O           1.3568  -20.2895  -40.7631 O.2       6 UNK        -0.5000 
     42 CA          1.5121  -18.4288  -39.2535 C.3       6 UNK         0.1400 
     43 CB          1.8073  -18.9084  -37.8247 C.3       6 UNK        -0.1800 
     44 N           2.0078  -17.0582  -39.4193 N.am      6 UNK        -0.5000 
     45 C           1.7761  -16.2899  -40.4921 C.2       5 UNK         0.5000 
     46 O           1.1725  -16.6785  -41.4933 O.2       5 UNK        -0.5000 
     47 CA          2.3607  -14.8664  -40.4631 C.3       5 UNK         0.1400 
     48 CB          3.7026  -14.8264  -41.2107 C.3       5 UNK        -0.1800 
     49 N           1.4549  -13.8808  -41.0574 N.am      5 UNK        -0.5000 
     50 C           0.2786  -13.5063  -40.5331 C.2       4 UNK         0.5000 
     51 O          -0.1661  -13.9616  -39.4780 O.2       4 UNK        -0.5000 
     52 CA         -0.5278  -12.4209  -41.2769 C.3       4 UNK         0.1400 
     53 CB         -0.6469  -11.1548  -40.4113 C.3       4 UNK        -0.1800 
     54 N           0.0678  -12.0434  -42.5630 N.am      4 UNK        -0.5000 
     55 C          -0.3897  -12.4326  -43.7588 C.2       3 UNK         0.5000 
     56 O          -1.3635  -13.1726  -43.9149 O.2       3 UNK        -0.5000 
     57 CA          0.4023  -11.9275  -44.9793 C.3       3 UNK         0.1400 
     58 CB          1.6557  -12.7910  -45.1960 C.3       3 UNK        -0.1800 
     59 N          -0.4064  -11.9656  -46.1977 N.am      3 UNK        -0.5000 
     60 C          -1.2884  -11.0209  -46.5623 C.2       2 UNK         0.5000 
     61 O          -1.4633   -9.9827  -45.9224 O.2       2 UNK        -0.5000 
     62 CA         -2.1158  -11.2504  -47.8454 C.3       2 UNK         0.1400 
     63 CB         -1.6001  -10.3745  -48.9991 C.3       2 UNK        -0.1800 
     64 N          -2.1009  -12.6507  -48.2593 N.am      2 UNK        -0.5000 
     65 C          -3.1310  -13.3635  -48.7246 C.2       1 UNK         0.5000 
     66 O          -4.2361  -12.8869  -48.9861 O.2       1 UNK        -0.5000 
     67 C           0.2075  -21.9871  -47.7652 C.2       11 UNK         0.5000 
     68 O          -0.0941  -22.7338  -48.6952 O.2       11 UNK        -0.5000 
     69 N          -0.4998  -20.9005  -47.4296 N.am      12 UNK        -0.5000 
     70 CA         -1.7244  -20.4565  -48.0905 C.3       12 UNK         0.1400 
     71 CB         -2.1439  -19.0960  -47.5223 C.3       12 UNK        -0.1800 
     72 C          -2.8694  -21.4738  -47.9628 C.2       12 UNK         0.5000 
     73 O          -3.5726  -21.7152  -48.9429 O.2       12 UNK        -0.5000 
     74 N          -3.0231  -22.0766  -46.7748 N.am      13 UNK        -0.5000 
     75 CA         -3.9923  -23.1389  -46.5063 C.3       13 UNK         0.1400 
     76 CB         -3.9945  -23.4912  -45.0119 C.3       13 UNK        -0.1800 
     77 C          -3.7494  -24.3892  -47.3696 C.2       13 UNK         0.5000 
     78 O          -4.7015  -24.9213  -47.9439 O.2       13 UNK        -0.5000 
     79 N          -2.4765  -24.7956  -47.4888 N.am      14 UNK        -0.5000 
     80 CA         -2.0297  -25.8701  -48.3769 C.3       14 UNK         0.1400 
     81 CB         -0.5564  -26.1977  -48.0916 C.3       14 UNK        -0.1800 
     82 C          -2.2469  -25.5383  -49.8665 C.2       14 UNK         0.5000 
     83 O          -2.6381  -26.4191  -50.6333 O.2       14 UNK        -0.5000 
     84 N          -2.0572  -24.2662  -50.2420 N.am      15 UNK        -0.5000 
     85 CA         -2.3167  -23.7035  -51.5697 C.3       15 UNK         0.1400 
     86 CB         -1.4799  -22.4277  -51.7414 C.3       15 UNK        -0.1800 
     87 C          -3.8189  -23.4610  -51.8459 C.2       15 UNK         0.5000 
     88 O          -4.1991  -22.3834  -52.3159 O.2       15 UNK        -0.5000 
     89 N          -4.6283  -24.4943  -51.5785 N.am      16 UNK        -0.5000 
     90 CA         -6.0691  -24.6037  -51.8008 C.3       16 UNK         0.1400 
     91 CB         -6.3867  -24.5837  -53.3100 C.3       16 UNK        -0.1800 
     92 C          -6.8902  -23.5809  -50.9924 C.2       16 UNK         0.5000 
     93 O          -7.6907  -22.8430  -51.5664 O.2       16 UNK        -0.5000 
     94 N          -6.6939  -23.5733  -49.6653 N.am      17 UNK        -0.5000 
     95 CA         -7.4739  -22.8138  -48.6783 C.3       17 UNK         0.1400 
     96 CB         -8.9116  -23.3683  -48.5872 C.3       17 UNK        -0.1800 
     97 C          -7.4299  -21.2872  -48.9047 C.2       17 UNK         0.5000 
     98 O          -8.4667  -20.6219  -48.8737 O.2       17 UNK        -0.5000 
     99 N          -6.2167  -20.7701  -49.1390 N.am      18 UNK        -0.5000 
    100 CA        -5.8760  -19.3681  -49.3954 C.3       18 UNK         0.1400 
    101 CB        -6.2297  -18.4665  -48.1946 C.3       18 UNK        -0.1800 
    102 C         -6.3925  -18.8278  -50.7435 C.2       18 UNK         0.5000 
    103 O         -6.4741  -17.6112  -50.9196 O.2       18 UNK        -0.5000 
    104 N         -6.6672  -19.7281  -51.6998 N.am      19 UNK        -0.5000 
    105 CA        -6.9159  -19.3839  -53.1034 C.3       19 UNK         0.1400 
    106 CB        -7.5956  -20.5656  -53.8085 C.3       19 UNK        -0.1800 
    107 C         -5.6266  -18.9857  -53.8514 C.2       19 UNK         0.5000 
    108 O         -5.7182  -18.3916  -54.9261 O.2       19 UNK        -0.5000 
    109 N         -4.4638  -19.3166  -53.2668 N.am      20 UNK        -0.5000 
    110 CA        -3.1086  -19.0586  -53.7540 C.3       20 UNK         0.1400 
    111 CB        -2.8359  -17.5455  -53.8887 C.3       20 UNK        -0.1800 
    112 C         -2.8167  -19.8487  -55.0411 C.2       20 UNK         0.5000 
    113 O         -2.3940  -19.2763  -56.0488 O.2       20 UNK        -0.5000 
    114 N         -3.0502  -21.1670  -54.9769 N.am      21 UNK        -0.5000 
    115 CA        -2.8563  -22.1361  -56.0599 C.3       21 UNK         0.1400 
    116 CB        -3.6169  -23.4259  -55.7060 C.3       21 UNK        -0.1800 
    117 C         -1.3719  -22.3977  -56.4148 C.2       21 UNK         0.5000 
    118 O         -0.9223  -23.5450  -56.4103 O.2       21 UNK        -0.5000 
    119 N         -0.6405  -21.3264  -56.7295 N.am      22 UNK        -0.5000 
    120 CA         0.7410  -21.3323  -57.2295 C.3       22 UNK         0.1400 
    121 C          1.0564  -20.1707  -58.2178 C.2       22 UNK         0.5000 
    122 N          0.1086  -19.3069  -58.5678 N.am      22 UNK        -0.7600 
    123 O          2.1787  -20.0645  -58.7051 O.2       22 UNK        -0.5000 
    124 C124        1.7921  -21.4853  -56.0974 C.3       23 UNK        -0.0398 
    125 S125        1.8762  -20.0793  -54.9291 S.3       23 UNK        -0.2404 
    126 C126        0.8412  -20.6842  -53.5643 C.3       23 UNK        -0.0205 
    127 H127       -1.0978  -17.0700  -45.7354 H         1 UNK         0.0600 
    128 H128       -2.0997  -15.8175  -44.9939 H         1 UNK         0.0600 
    129 H129       -0.3458  -15.6320  -45.0385 H         1 UNK         0.0600 
    130 H130       -3.1878  -16.0469  -47.1623 H         1 UNK         0.3000 
    131 H131       -3.8582  -15.3299  -49.1039 H         1 UNK         0.0600 
    132 H132       -2.4147  -14.8010  -51.0036 H         1 UNK         0.0800 
    133 H133       -1.0142  -14.6538  -49.9870 H         1 UNK         0.0800 
    134 H134        0.6278  -16.1783  -50.6613 H         1 UNK         0.0800 
    135 H135        0.3787  -16.8244  -49.0552 H         1 UNK         0.0800 
    136 H136       -0.2825  -18.4787  -52.3937 H         1 UNK         0.1150 
    137 H137        2.8157  -21.3842  -51.8469 H         1 UNK         0.1150 
    138 H138        2.1990  -18.3387  -48.8983 H         1 UNK         0.1150 
    139 H139        4.6639  -20.5747  -50.2330 H         1 UNK         0.0800 
    140 H140        4.1955  -19.6963  -48.8042 H         1 UNK         0.0800 
    141 H141        2.3832  -20.4046  -47.2752 H         1 UNK         0.0800 
    142 H142        3.3747  -21.5167  -46.3789 H         1 UNK         0.0800 
    143 H143        1.6778  -23.3717  -47.0640 H         1 UNK         0.0600 
    144 H144        1.5439  -21.5337  -44.9082 H         1 UNK         0.3000 
    145 H145       -1.0365  -23.1922  -43.0765 H         1 UNK         0.0600 
    146 H146        0.7740  -23.1586  -41.3859 H         1 UNK         0.0600 
    147 H147        1.1044  -24.3919  -42.5941 H         1 UNK         0.0600 
    148 H148        1.9805  -22.8657  -42.6355 H         1 UNK         0.0600 
    149 H149        0.4890  -20.8710  -42.4749 H         1 UNK         0.3000 
    150 H150       -1.6666  -18.4986  -44.1046 H         1 UNK         0.0600 
    151 H151       -2.6203  -18.9226  -41.8714 H         1 UNK         0.0600 
    152 H152       -1.5349  -17.5414  -41.8165 H         1 UNK         0.0600 
    153 H153       -1.0150  -19.1013  -41.1809 H         1 UNK         0.0600 
    154 H154        0.7278  -18.0098  -42.7240 H         1 UNK         0.3000 
    155 H155        3.0438  -18.4995  -45.4319 H         1 UNK         0.0600 
    156 H156        2.0023  -16.0333  -43.9379 H         1 UNK         0.0600 
    157 H157        3.5848  -16.1741  -44.7044 H         1 UNK         0.0600 
    158 H158        2.1256  -16.2228  -45.6804 H         1 UNK         0.0600 
    159 H159        3.3090  -17.7836  -42.6516 H         1 UNK         0.3000 
    160 H160        3.9040  -21.0864  -41.4464 H         1 UNK         0.0600 
    161 H161        5.7616  -18.6728  -41.8221 H         1 UNK         0.0600 
    162 H162        6.0875  -20.3088  -42.3823 H         1 UNK         0.0600 
    163 H163        5.9804  -19.9815  -40.6601 H         1 UNK         0.0600 
    164 H164        3.8943  -18.5086  -40.1933 H         1 UNK         0.3000 
    165 H165        0.4287  -18.4065  -39.3844 H         1 UNK         0.0600 
    166 H166        1.3273  -18.2663  -37.0859 H         1 UNK         0.0600 
    167 H167        1.4304  -19.9200  -37.6670 H         1 UNK         0.0600 
    168 H168        2.8776  -18.9205  -37.6154 H         1 UNK         0.0600 
    169 H169        2.5225  -16.6710  -38.6414 H         1 UNK         0.3000 
    170 H170        2.5353  -14.5801  -39.4239 H         1 UNK         0.0600 
    171 H171        3.5846  -15.0666  -42.2675 H         1 UNK         0.0600 
    172 H172        4.1620  -13.8402  -41.1420 H         1 UNK         0.0600 
    173 H173        4.4095  -15.5416  -40.7880 H         1 UNK         0.0600 
    174 H174        1.7278  -13.4930  -41.9465 H         1 UNK         0.3000 
    175 H175       -1.5335  -12.8190  -41.4262 H         1 UNK         0.0600 
    176 H176       -1.2529  -10.3956  -40.9063 H         1 UNK         0.0600 
    177 H177        0.3298  -10.7185  -40.1983 H         1 UNK         0.0600 
    178 H178       -1.1241  -11.3745  -39.4553 H         1 UNK         0.0600 
    179 H179        0.8687  -11.4289  -42.5191 H         1 UNK         0.3000 
    180 H180        0.7177  -10.8989  -44.7910 H         1 UNK         0.0600 
    181 H181        1.3975  -13.8343  -45.3772 H         1 UNK         0.0600 
    182 H182        2.3139  -12.7618  -44.3270 H         1 UNK         0.0600 
    183 H183        2.2335  -12.4384  -46.0505 H         1 UNK         0.0600 
    184 H184       -0.3434  -12.8312  -46.7194 H         1 UNK         0.3000 
    185 H185       -3.1406  -10.9535  -47.6127 H         1 UNK         0.0600 
    186 H186       -1.6050   -9.3193  -48.7231 H         1 UNK         0.0600 
    187 H187       -0.5789  -10.6386  -49.2764 H         1 UNK         0.0600 
    188 H188       -2.2266  -10.4812  -49.8849 H         1 UNK         0.0600 
    189 H189       -1.2565  -13.1764  -48.0554 H         1 UNK         0.3000 
    190 H190       -0.1565  -20.3101  -46.6733 H         1 UNK         0.3000 
    191 H191       -1.5002  -20.3256  -49.1506 H         1 UNK         0.0600 
    192 H192       -1.3498  -18.3645  -47.6648 H         1 UNK         0.0600 
    193 H193       -3.0309  -18.7126  -48.0257 H         1 UNK         0.0600 
    194 H194       -2.3656  -19.1523  -46.4566 H         1 UNK         0.0600 
    195 H195       -2.4514  -21.7736  -45.9906 H         1 UNK         0.3000 
    196 H196       -4.9772  -22.7452  -46.7556 H         1 UNK         0.0600 
    197 H197       -4.7200  -24.2766  -44.7968 H         1 UNK         0.0600 
    198 H198       -4.2632  -22.6268  -44.4045 H         1 UNK         0.0600 
    199 H199       -3.0193  -23.8444  -44.6774 H         1 UNK         0.0600 
    200 H200       -1.7580  -24.3133  -46.9591 H         1 UNK         0.3000 
    201 H201       -2.6230  -26.7575  -48.1473 H         1 UNK         0.0600 
    202 H202       -0.4127  -26.4911  -47.0515 H         1 UNK         0.0600 
    203 H203        0.0945  -25.3463  -48.2899 H         1 UNK         0.0600 
    204 H204       -0.2133  -27.0247  -48.7143 H         1 UNK         0.0600 
    205 H205       -1.6967  -23.6160  -49.5509 H         1 UNK         0.3000 
    206 H206       -1.9713  -24.4217  -52.3159 H         1 UNK         0.0600 
    207 H207       -0.4266  -22.6129  -51.5307 H         1 UNK         0.0600 
    208 H208       -1.5510  -22.0629  -52.7640 H         1 UNK         0.0600 
    209 H209       -1.8178  -21.6293  -51.0817 H         1 UNK         0.0600 
    210 H210       -4.1824  -25.3229  -51.1975 H         1 UNK         0.3000 
    211 H211       -6.3588  -25.5857  -51.4242 H         1 UNK         0.0600 
    212 H212       -6.1466  -23.6217  -53.7595 H         1 UNK         0.0600 
    213 H213       -7.4457  -24.7722  -53.4894 H         1 UNK         0.0600 
    214 H214       -5.8250  -25.3512  -53.8424 H         1 UNK         0.0600 
    215 H215       -5.9757  -24.1778  -49.2756 H         1 UNK         0.3000 
    216 H216       -7.0064  -22.9927  -47.7111 H         1 UNK         0.0600 
    217 H217       -9.4625  -22.8944  -47.7739 H         1 UNK         0.0600 
    218 H218       -8.9084  -24.4408  -48.3928 H         1 UNK         0.0600 
    219 H219       -9.4731  -23.1955  -49.5059 H         1 UNK         0.0600 
    220 H220       -5.4162  -21.3988  -49.1598 H         1 UNK         0.3000 
    221 H221       -4.7906  -19.3509  -49.4933 H         1 UNK         0.0600 
    222 H222       -7.3072  -18.3589  -48.0701 H         1 UNK         0.0600 
    223 H223       -5.8208  -18.8682  -47.2674 H         1 UNK         0.0600 
    224 H224       -5.8155  -17.4656  -48.3220 H         1 UNK         0.0600 
    225 H225       -6.6228  -20.7145  -51.4759 H         1 UNK         0.3000 
    226 H226       -7.5966  -18.5308  -53.1384 H         1 UNK         0.0600 
    227 H227       -8.5233  -20.8447  -53.3088 H         1 UNK         0.0600 
    228 H228       -7.8446  -20.3159  -54.8405 H         1 UNK         0.0600 
    229 H229       -6.9468  -21.4407  -53.8310 H         1 UNK         0.0600 
    230 H230       -4.5221  -19.8719  -52.4243 H         1 UNK         0.3000 
    231 H231       -2.4347  -19.4466  -52.9891 H         1 UNK         0.0600 
    232 H232       -3.4051  -17.0972  -54.7033 H         1 UNK         0.0600 
    233 H233       -1.7806  -17.3580  -54.0893 H         1 UNK         0.0600 
    234 H234       -3.0939  -17.0144  -52.9731 H         1 UNK         0.0600 
    235 H235       -3.4234  -21.5412  -54.1110 H         1 UNK         0.3000 
    236 H236       -3.3195  -21.7246  -56.9589 H         1 UNK         0.0600 
    237 H237       -4.6762  -23.2237  -55.5517 H         1 UNK         0.0600 
    238 H238       -3.5455  -24.1591  -56.5104 H         1 UNK         0.0600 
    239 H239       -3.2249  -23.8906  -54.8012 H         1 UNK         0.0600 
    240 H240       -1.0834  -20.4159  -56.6408 H         1 UNK         0.3000 
    241 H241        0.8347  -22.2205  -57.8574 H         1 UNK         0.0600 
    242 H242       -0.8294  -19.3667  -58.2051 H         1 UNK         0.3800 
    243 H243        0.3388  -18.5710  -59.2172 H         1 UNK         0.3800 
    244 H244        1.6090  -22.4098  -55.5492 H         1 UNK         0.0800 
    245 H245        2.7850  -21.6109  -56.5319 H         1 UNK         0.0800 
    246 H246       -0.2023  -20.4960  -53.8107 H         1 UNK         0.0800 
    247 H247        0.9484  -21.7645  -53.4602 H         1 UNK         0.0800 
@<TRIPOS>BOND
     1    1    2 1    
     2    1  127 1    
     3    1  128 1    
     4    1  129 1    
     5    2    3 2    
     6    2    4 am   BACKBONE|DICT|INTERRES
     7    4    5 1    
     8    4  130 1    
     9    5    6 1    
    10    5   65 1    
    11    5  131 1    
    12    6    7 1    
    13    6  132 1    
    14    6  133 1    
    15    7    8 1    
    16    8    9 1    
    17    8  134 1    
    18    8  135 1    
    19    9   10 ar   
    20    9   14 ar   
    21   10   11 ar   
    22   10  136 1    
    23   11   12 ar   
    24   11  126 1    
    25   12   13 ar   
    26   12  137 1    
    27   13   14 ar   
    28   13   15 1    
    29   14  138 1    
    30   15   16 1    
    31   15  139 1    
    32   15  140 1    
    33   16   17 1    
    34   17   18 1    
    35   17  141 1    
    36   17  142 1    
    37   18   19 1    
    38   18   67 1    
    39   18  143 1    
    40   19   20 am   BACKBONE|DICT|INTERRES
    41   19  144 1    
    42   20   21 2    
    43   20   22 1    
    44   22   23 1    
    45   22   24 1    
    46   22  145 1    
    47   23  146 1    
    48   23  147 1    
    49   23  148 1    
    50   24   25 am   BACKBONE|DICT|INTERRES
    51   24  149 1    
    52   25   26 2    
    53   25   27 1    
    54   27   28 1    
    55   27   29 1    
    56   27  150 1    
    57   28  151 1    
    58   28  152 1    
    59   28  153 1    
    60   29   30 am   BACKBONE|DICT|INTERRES
    61   29  154 1    
    62   30   31 2    
    63   30   32 1    
    64   32   33 1    
    65   32   34 1    
    66   32  155 1    
    67   33  156 1    
    68   33  157 1    
    69   33  158 1    
    70   34   35 am   BACKBONE|DICT|INTERRES
    71   34  159 1    
    72   35   36 2    
    73   35   37 1    
    74   37   38 1    
    75   37   39 1    
    76   37  160 1    
    77   38  161 1    
    78   38  162 1    
    79   38  163 1    
    80   39   40 am   BACKBONE|DICT|INTERRES
    81   39  164 1    
    82   40   41 2    
    83   40   42 1    
    84   42   43 1    
    85   42   44 1    
    86   42  165 1    
    87   43  166 1    
    88   43  167 1    
    89   43  168 1    
    90   44   45 am   BACKBONE|DICT|INTERRES
    91   44  169 1    
    92   45   46 2    
    93   45   47 1    
    94   47   48 1    
    95   47   49 1    
    96   47  170 1    
    97   48  171 1    
    98   48  172 1    
    99   48  173 1    
   100   49   50 am   BACKBONE|DICT|INTERRES
   101   49  174 1    
   102   50   51 2    
   103   50   52 1    
   104   52   53 1    
   105   52   54 1    
   106   52  175 1    
   107   53  176 1    
   108   53  177 1    
   109   53  178 1    
   110   54   55 am   BACKBONE|DICT|INTERRES
   111   54  179 1    
   112   55   56 2    
   113   55   57 1    
   114   57   58 1    
   115   57   59 1    
   116   57  180 1    
   117   58  181 1    
   118   58  182 1    
   119   58  183 1    
   120   59   60 am   BACKBONE|DICT|INTERRES
   121   59  184 1    
   122   60   61 2    
   123   60   62 1    
   124   62   63 1    
   125   62   64 1    
   126   62  185 1    
   127   63  186 1    
   128   63  187 1    
   129   63  188 1    
   130   64   65 am   BACKBONE|DICT|INTERRES
   131   64  189 1    
   132   65   66 2    
   133   67   68 2    
   134   67   69 am   BACKBONE|DICT|INTERRES
   135   69   70 1    
   136   69  190 1    
   137   70   71 1    
   138   70   72 1    
   139   70  191 1    
   140   71  192 1    
   141   71  193 1    
   142   71  194 1    
   143   72   73 2    
   144   72   74 am   BACKBONE|DICT|INTERRES
   145   74   75 1    
   146   74  195 1    
   147   75   76 1    
   148   75   77 1    
   149   75  196 1    
   150   76  197 1    
   151   76  198 1    
   152   76  199 1    
   153   77   78 2    
   154   77   79 am   BACKBONE|DICT|INTERRES
   155   79   80 1    
   156   79  200 1    
   157   80   81 1    
   158   80   82 1    
   159   80  201 1    
   160   81  202 1    
   161   81  203 1    
   162   81  204 1    
   163   82   83 2    
   164   82   84 am   BACKBONE|DICT|INTERRES
   165   84   85 1    
   166   84  205 1    
   167   85   86 1    
   168   85   87 1    
   169   85  206 1    
   170   86  207 1    
   171   86  208 1    
   172   86  209 1    
   173   87   88 2    
   174   87   89 am   BACKBONE|DICT|INTERRES
   175   89   90 1    
   176   89  210 1    
   177   90   91 1    
   178   90   92 1    
   179   90  211 1    
   180   91  212 1    
   181   91  213 1    
   182   91  214 1    
   183   92   93 2    
   184   92   94 am   BACKBONE|DICT|INTERRES
   185   94   95 1    
   186   94  215 1    
   187   95   96 1    
   188   95   97 1    
   189   95  216 1    
   190   96  217 1    
   191   96  218 1    
   192   96  219 1    
   193   97   98 2    
   194   97   99 am   BACKBONE|DICT|INTERRES
   195   99  100 1    
   196   99  220 1    
   197  100  101 1    
   198  100  102 1    
   199  100  221 1    
   200  101  222 1    
   201  101  223 1    
   202  101  224 1    
   203  102  103 2    
   204  102  104 am   BACKBONE|DICT|INTERRES
   205  104  105 1    
   206  104  225 1    
   207  105  106 1    
   208  105  107 1    
   209  105  226 1    
   210  106  227 1    
   211  106  228 1    
   212  106  229 1    
   213  107  108 2    
   214  107  109 am   BACKBONE|DICT|INTERRES
   215  109  110 1    
   216  109  230 1    
   217  110  111 1    
   218  110  112 1    
   219  110  231 1    
   220  111  232 1    
   221  111  233 1    
   222  111  234 1    
   223  112  113 2    
   224  112  114 am   BACKBONE|DICT|INTERRES
   225  114  115 1    
   226  114  235 1    
   227  115  116 1    
   228  115  117 1    
   229  115  236 1    
   230  116  237 1    
   231  116  238 1    
   232  116  239 1    
   233  117  118 2    
   234  117  119 am   BACKBONE|DICT|INTERRES
   235  119  120 1    
   236  119  240 1    
   237  120  121 1    
   238  120  124 1    
   239  120  241 1    
   240  121  122 am   BACKBONE|DICT|INTERRES
   241  121  123 2    
   242  122  242 1    
   243  122  243 1    
   244  124  125 1    
   245  124  244 1    
   246  124  245 1    
   247  125  126 1    
   248  126  246 1    
   249  126  247 1    
@<TRIPOS>SUBSTRUCTURE
     1 UNK         1 GROUP             0       ****    0 ROOT    
