@<TRIPOS>MOLECULE
3R540
247   249    1
SMALL
USER_CHARGES


@<TRIPOS>ATOM
      1 CA          1.0185  -10.3829  -51.9282 C.3       0 UNK        -0.1800 
      2 C           1.5691  -10.9918  -50.6468 C.2       0 UNK         0.5000 
      3 O           2.5482  -10.4859  -50.0966 O.2       0 UNK        -0.5000 
      4 N           0.9402  -12.0686  -50.1591 N.am      1 UNK        -0.5000 
      5 CA          1.3090  -12.8010  -48.9417 C.3       1 UNK         0.1400 
      6 C6          0.8576  -14.2822  -49.0315 C.3       23 UNK        -0.0398 
      7 S7          1.8839  -15.3854  -48.0018 S.3       23 UNK        -0.2404 
      8 C8          3.0398  -16.0732  -49.2301 C.3       23 UNK        -0.0205 
      9 C9          2.3458  -16.9757  -50.2413 C.ar      23 UNK        -0.0193 
     10 C10         2.2975  -16.6209  -51.5931 C.ar      23 UNK        -0.1150 
     11 C11         1.6698  -17.4556  -52.5221 C.ar      23 UNK        -0.0193 
     12 C12         1.0975  -18.6563  -52.0930 C.ar      23 UNK        -0.1150 
     13 C13         1.1380  -19.0238  -50.7453 C.ar      23 UNK        -0.0193 
     14 C14         1.7606  -18.1744  -49.8246 C.ar      23 UNK        -0.1150 
     15 C15         0.4947  -20.3298  -50.2974 C.3       23 UNK        -0.0205 
     16 S16         1.6633  -21.4117  -49.4105 S.3       23 UNK        -0.2404 
     17 C17         1.2223  -21.0622  -47.6721 C.3       23 UNK        -0.0398 
     18 CA          0.3844  -22.1962  -47.0388 C.3       11 UNK         0.1400 
     19 N           0.3329  -22.0966  -45.5815 N.am      11 UNK        -0.5000 
     20 C          -0.1483  -23.0506  -44.7725 C.2       10 UNK         0.5000 
     21 O          -0.5592  -24.1428  -45.1672 O.2       10 UNK        -0.5000 
     22 CA         -0.2295  -22.7046  -43.2758 C.3       10 UNK         0.1400 
     23 CB          1.1464  -22.8437  -42.6079 C.3       10 UNK        -0.1800 
     24 N          -0.7620  -21.3610  -43.0405 N.am      10 UNK        -0.5000 
     25 C          -1.9996  -20.9704  -43.3787 C.2       9 UNK         0.5000 
     26 O          -2.8342  -21.7150  -43.8939 O.2       9 UNK        -0.5000 
     27 CA         -2.3563  -19.4933  -43.1365 C.3       9 UNK         0.1400 
     28 CB         -2.6816  -19.2481  -41.6556 C.3       9 UNK        -0.1800 
     29 N          -1.3057  -18.5719  -43.5715 N.am      9 UNK        -0.5000 
     30 C          -0.8894  -18.4322  -44.8392 C.2       8 UNK         0.5000 
     31 O          -1.3565  -19.0600  -45.7878 O.2       8 UNK        -0.5000 
     32 CA          0.2864  -17.4714  -45.0834 C.3       8 UNK         0.1400 
     33 CB         -0.1760  -16.0075  -45.0146 C.3       8 UNK        -0.1800 
     34 N           1.3806  -17.6883  -44.1395 N.am      8 UNK        -0.5000 
     35 C           2.0632  -18.8339  -44.0044 C.2       7 UNK         0.5000 
     36 O           1.8782  -19.8327  -44.6992 O.2       7 UNK        -0.5000 
     37 CA          3.0874  -18.8897  -42.8600 C.3       7 UNK         0.1400 
     38 CB          4.3962  -18.1908  -43.2581 C.3       7 UNK        -0.1800 
     39 N           2.5604  -18.2978  -41.6302 N.am      7 UNK        -0.5000 
     40 C           1.5604  -18.8219  -40.9066 C.2       6 UNK         0.5000 
     41 O           0.9930  -19.8782  -41.1840 O.2       6 UNK        -0.5000 
     42 CA          1.0900  -18.0046  -39.6904 C.3       6 UNK         0.1400 
     43 CB          2.0091  -18.2467  -38.4838 C.3       6 UNK        -0.1800 
     44 N           1.0243  -16.5702  -39.9732 N.am      6 UNK        -0.5000 
     45 C           0.1570  -16.0099  -40.8278 C.2       5 UNK         0.5000 
     46 O          -0.6971  -16.6411  -41.4492 O.2       5 UNK        -0.5000 
     47 CA          0.3016  -14.4952  -41.0624 C.3       5 UNK         0.1400 
     48 CB         -0.4494  -13.7050  -39.9806 C.3       5 UNK        -0.1800 
     49 N           1.6950  -14.0406  -41.1207 N.am      5 UNK        -0.5000 
     50 C           2.5839  -14.4496  -42.0345 C.2       4 UNK         0.5000 
     51 O           2.3475  -15.3139  -42.8795 O.2       4 UNK        -0.5000 
     52 CA          3.9757  -13.7979  -41.9909 C.3       4 UNK         0.1400 
     53 CB          4.9432  -14.6726  -41.1796 C.3       4 UNK        -0.1800 
     54 N           4.5057  -13.6354  -43.3473 N.am      4 UNK        -0.5000 
     55 C           4.1495  -12.7158  -44.2565 C.2       3 UNK         0.5000 
     56 O           4.5601  -12.7688  -45.4176 O.2       3 UNK        -0.5000 
     57 CA          3.2505  -11.5324  -43.8454 C.3       3 UNK         0.1400 
     58 CB          4.0844  -10.3971  -43.2213 C.3       3 UNK        -0.1800 
     59 N           2.5605  -11.0367  -45.0301 N.am      3 UNK        -0.5000 
     60 C           1.4224  -10.3344  -45.0338 C.2       2 UNK         0.5000 
     61 O           0.8223  -10.0020  -44.0107 O.2       2 UNK        -0.5000 
     62 CA          0.8543   -9.9285  -46.4070 C.3       2 UNK         0.1400 
     63 CB          1.2814   -8.4961  -46.7628 C.3       2 UNK        -0.1800 
     64 N           1.2542  -10.8234  -47.4943 N.am      2 UNK        -0.5000 
     65 C           0.7945  -12.0674  -47.6791 C.2       1 UNK         0.5000 
     66 O          -0.0242  -12.6011  -46.9289 O.2       1 UNK        -0.5000 
     67 C          -1.0279  -22.2884  -47.6502 C.2       11 UNK         0.5000 
     68 O          -1.2541  -23.1534  -48.4923 O.2       11 UNK        -0.5000 
     69 N          -1.9626  -21.4394  -47.1970 N.am      12 UNK        -0.5000 
     70 CA         -3.3632  -21.4519  -47.6231 C.3       12 UNK         0.1400 
     71 CB         -4.1233  -20.2797  -46.9873 C.3       12 UNK        -0.1800 
     72 C          -4.0680  -22.7845  -47.3207 C.2       12 UNK         0.5000 
     73 O          -4.7767  -23.2961  -48.1872 O.2       12 UNK        -0.5000 
     74 N          -3.8293  -23.3425  -46.1258 N.am      13 UNK        -0.5000 
     75 CA         -4.3195  -24.6579  -45.7144 C.3       13 UNK         0.1400 
     76 CB         -3.9966  -24.8924  -44.2311 C.3       13 UNK        -0.1800 
     77 C          -3.7628  -25.7946  -46.5916 C.2       13 UNK         0.5000 
     78 O          -4.5380  -26.6258  -47.0670 O.2       13 UNK        -0.5000 
     79 N          -2.4435  -25.7799  -46.8353 N.am      14 UNK        -0.5000 
     80 CA         -1.7481  -26.7211  -47.7195 C.3       14 UNK         0.1400 
     81 CB         -0.2319  -26.5026  -47.6060 C.3       14 UNK        -0.1800 
     82 C          -2.2054  -26.6226  -49.1889 C.2       14 UNK         0.5000 
     83 O          -2.3000  -27.6437  -49.8699 O.2       14 UNK        -0.5000 
     84 N          -2.5261  -25.4010  -49.6313 N.am      15 UNK        -0.5000 
     85 CA         -3.0650  -25.0661  -50.9485 C.3       15 UNK         0.1400 
     86 CB         -2.6943  -23.6091  -51.2740 C.3       15 UNK        -0.1800 
     87 C          -4.5855  -25.3014  -51.0843 C.2       15 UNK         0.5000 
     88 O          -5.1716  -24.8237  -52.0573 O.2       15 UNK        -0.5000 
     89 N          -5.1956  -26.0191  -50.1282 N.am      16 UNK        -0.5000 
     90 CA         -6.6015  -26.4316  -50.0808 C.3       16 UNK         0.1400 
     91 CB         -6.9293  -27.3942  -51.2421 C.3       16 UNK        -0.1800 
     92 C          -7.5606  -25.2294  -49.9988 C.2       16 UNK         0.5000 
     93 O          -8.4182  -25.0540  -50.8649 O.2       16 UNK        -0.5000 
     94 N          -7.3660  -24.4109  -48.9560 N.am      17 UNK        -0.5000 
     95 CA         -8.0611  -23.1492  -48.6747 C.3       17 UNK         0.1400 
     96 CB         -9.5707  -23.3708  -48.4418 C.3       17 UNK        -0.1800 
     97 C          -7.7493  -22.0784  -49.7392 C.2       17 UNK         0.5000 
     98 O          -8.6487  -21.3815  -50.2119 O.2       17 UNK        -0.5000 
     99 N          -6.4585  -21.9897  -50.0914 N.am      18 UNK        -0.5000 
    100 CA        -5.8519  -21.0776  -51.0652 C.3       18 UNK         0.1400 
    101 CB        -5.9581  -19.6157  -50.5830 C.3       18 UNK        -0.1800 
    102 C         -6.3544  -21.2685  -52.5132 C.2       18 UNK         0.5000 
    103 O         -6.2614  -20.3400  -53.3162 O.2       18 UNK        -0.5000 
    104 N         -6.8461  -22.4704  -52.8425 N.am      19 UNK        -0.5000 
    105 CA        -7.3011  -22.8394  -54.1833 C.3       19 UNK         0.1400 
    106 CB        -8.1257  -24.1324  -54.1044 C.3       19 UNK        -0.1800 
    107 C         -6.1315  -23.0000  -55.1707 C.2       19 UNK         0.5000 
    108 O         -6.2425  -22.5747  -56.3209 O.2       19 UNK        -0.5000 
    109 N         -5.0288  -23.5935  -54.6953 N.am      20 UNK        -0.5000 
    110 CA        -3.7985  -23.8057  -55.4625 C.3       20 UNK         0.1400 
    111 CB        -3.1677  -25.1342  -55.0150 C.3       20 UNK        -0.1800 
    112 C         -2.7899  -22.6455  -55.3217 C.2       20 UNK         0.5000 
    113 O         -1.7392  -22.6820  -55.9643 O.2       20 UNK        -0.5000 
    114 N         -3.1000  -21.6542  -54.4755 N.am      21 UNK        -0.5000 
    115 CA        -2.2699  -20.4760  -54.2248 C.3       21 UNK         0.1400 
    116 CB        -2.6398  -19.8959  -52.8488 C.3       21 UNK        -0.1800 
    117 C         -2.4194  -19.4141  -55.3331 C.2       21 UNK         0.5000 
    118 O         -3.3078  -19.5126  -56.1839 O.2       21 UNK        -0.5000 
    119 N         -1.5402  -18.4073  -55.2900 N.am      22 UNK        -0.5000 
    120 CA        -1.5644  -17.2151  -56.1510 C.3       22 UNK         0.1400 
    121 C         -2.8198  -16.3164  -55.9416 C.2       22 UNK         0.5000 
    122 N         -3.2219  -15.5632  -56.9570 N.am      22 UNK        -0.7600 
    123 O         -3.4140  -16.2692  -54.8665 O.2       22 UNK        -0.5000 
    124 C124       -0.2470  -16.4006  -56.0253 C.3       23 UNK        -0.0398 
    125 S125        0.1933  -15.9602  -54.3037 S.3       23 UNK        -0.2404 
    126 C126        1.6051  -17.0654  -53.9892 C.3       23 UNK        -0.0205 
    127 H127        0.1554  -10.9348  -52.3015 H         1 UNK         0.0600 
    128 H128        0.7130   -9.3514  -51.7520 H         1 UNK         0.0600 
    129 H129        1.7848  -10.3852  -52.7035 H         1 UNK         0.0600 
    130 H130        0.1188  -12.4101  -50.6380 H         1 UNK         0.3000 
    131 H131        2.3998  -12.7969  -48.8811 H         1 UNK         0.0600 
    132 H132       -0.1906  -14.4055  -48.7541 H         1 UNK         0.0800 
    133 H133        0.9172  -14.6265  -50.0639 H         1 UNK         0.0800 
    134 H134        3.8036  -16.6507  -48.7077 H         1 UNK         0.0800 
    135 H135        3.5620  -15.2550  -49.7285 H         1 UNK         0.0800 
    136 H136        2.7420  -15.6928  -51.9244 H         1 UNK         0.1150 
    137 H137        0.6172  -19.3055  -52.8107 H         1 UNK         0.1150 
    138 H138        1.7980  -18.4428  -48.7792 H         1 UNK         0.1150 
    139 H139       -0.3781  -20.1104  -49.6813 H         1 UNK         0.0800 
    140 H140        0.1192  -20.8840  -51.1590 H         1 UNK         0.0800 
    141 H141        0.7140  -20.1013  -47.5780 H         1 UNK         0.0800 
    142 H142        2.1616  -20.9549  -47.1283 H         1 UNK         0.0800 
    143 H143        0.8900  -23.1387  -47.2609 H         1 UNK         0.0600 
    144 H144        0.6870  -21.2349  -45.1736 H         1 UNK         0.3000 
    145 H145       -0.9087  -23.4196  -42.8070 H         1 UNK         0.0600 
    146 H146        1.0776  -22.6909  -41.5308 H         1 UNK         0.0600 
    147 H147        1.5609  -23.8396  -42.7693 H         1 UNK         0.0600 
    148 H148        1.8612  -22.1209  -43.0025 H         1 UNK         0.0600 
    149 H149       -0.1422  -20.7000  -42.5817 H         1 UNK         0.3000 
    150 H150       -3.2521  -19.2706  -43.7195 H         1 UNK         0.0600 
    151 H151       -3.4652  -19.9233  -41.3097 H         1 UNK         0.0600 
    152 H152       -3.0356  -18.2298  -41.4944 H         1 UNK         0.0600 
    153 H153       -1.8089  -19.4026  -41.0203 H         1 UNK         0.0600 
    154 H154       -0.8897  -17.9886  -42.8510 H         1 UNK         0.3000 
    155 H155        0.6735  -17.6609  -46.0867 H         1 UNK         0.0600 
    156 H156       -0.5996  -15.7606  -44.0414 H         1 UNK         0.0600 
    157 H157       -0.9387  -15.8046  -45.7673 H         1 UNK         0.0600 
    158 H158        0.6509  -15.3214  -45.1989 H         1 UNK         0.0600 
    159 H159        1.6374  -16.8963  -43.5549 H         1 UNK         0.3000 
    160 H160        3.3108  -19.9401  -42.6612 H         1 UNK         0.0600 
    161 H161        5.1368  -18.2546  -42.4608 H         1 UNK         0.0600 
    162 H162        4.2404  -17.1372  -43.4904 H         1 UNK         0.0600 
    163 H163        4.8304  -18.6579  -44.1429 H         1 UNK         0.0600 
    164 H164        2.9319  -17.3993  -41.3625 H         1 UNK         0.3000 
    165 H165        0.0862  -18.3460  -39.4283 H         1 UNK         0.0600 
    166 H166        1.6380  -17.7329  -37.5968 H         1 UNK         0.0600 
    167 H167        2.0643  -19.3093  -38.2432 H         1 UNK         0.0600 
    168 H168        3.0256  -17.8995  -38.6727 H         1 UNK         0.0600 
    169 H169        1.6941  -15.9775  -39.5058 H         1 UNK         0.3000 
    170 H170       -0.1592  -14.2693  -42.0264 H         1 UNK         0.0600 
    171 H171       -1.4949  -14.0120  -39.9281 H         1 UNK         0.0600 
    172 H172       -0.0126  -13.8569  -38.9927 H         1 UNK         0.0600 
    173 H173       -0.4371  -12.6358  -40.1932 H         1 UNK         0.0600 
    174 H174        1.9660  -13.3424  -40.4429 H         1 UNK         0.3000 
    175 H175        3.9071  -12.8265  -41.4995 H         1 UNK         0.0600 
    176 H176        5.0611  -15.6637  -41.6186 H         1 UNK         0.0600 
    177 H177        5.9309  -14.2149  -41.1205 H         1 UNK         0.0600 
    178 H178        4.5879  -14.8068  -40.1570 H         1 UNK         0.0600 
    179 H179        5.0920  -14.3926  -43.6633 H         1 UNK         0.3000 
    180 H180        2.4963  -11.8678  -43.1339 H         1 UNK         0.0600 
    181 H181        4.8059   -9.9950  -43.9335 H         1 UNK         0.0600 
    182 H182        4.6439  -10.7435  -42.3522 H         1 UNK         0.0600 
    183 H183        3.4504   -9.5749  -42.8892 H         1 UNK         0.0600 
    184 H184        2.9839  -11.3112  -45.9076 H         1 UNK         0.3000 
    185 H185       -0.2349   -9.9497  -46.3308 H         1 UNK         0.0600 
    186 H186        0.9750   -7.7924  -45.9877 H         1 UNK         0.0600 
    187 H187        2.3636   -8.4147  -46.8716 H         1 UNK         0.0600 
    188 H188        0.8244   -8.1687  -47.6969 H         1 UNK         0.0600 
    189 H189        1.8925  -10.4504  -48.1900 H         1 UNK         0.3000 
    190 H190       -1.7009  -20.7173  -46.5289 H         1 UNK         0.3000 
    191 H191       -3.3776  -21.3112  -48.7054 H         1 UNK         0.0600 
    192 H192       -4.0832  -20.3163  -45.8988 H         1 UNK         0.0600 
    193 H193       -5.1749  -20.2905  -47.2764 H         1 UNK         0.0600 
    194 H194       -3.7078  -19.3234  -47.3053 H         1 UNK         0.0600 
    195 H195       -3.2702  -22.8306  -45.4490 H         1 UNK         0.3000 
    196 H196       -5.4057  -24.6556  -45.8259 H         1 UNK         0.0600 
    197 H197       -4.3687  -25.8622  -43.8986 H         1 UNK         0.0600 
    198 H198       -4.4616  -24.1322  -43.6032 H         1 UNK         0.0600 
    199 H199       -2.9234  -24.8688  -44.0413 H         1 UNK         0.0600 
    200 H200       -1.8711  -25.0692  -46.3893 H         1 UNK         0.3000 
    201 H201       -1.9731  -27.7311  -47.3711 H         1 UNK         0.0600 
    202 H202        0.1102  -26.6380  -46.5799 H         1 UNK         0.0600 
    203 H203        0.0552  -25.5000  -47.9238 H         1 UNK         0.0600 
    204 H204        0.3133  -27.2134  -48.2282 H         1 UNK         0.0600 
    205 H205       -2.3366  -24.6100  -49.0207 H         1 UNK         0.3000 
    206 H206       -2.5832  -25.7082  -51.6876 H         1 UNK         0.0600 
    207 H207       -1.6133  -23.4683  -51.2732 H         1 UNK         0.0600 
    208 H208       -3.0550  -23.3123  -52.2571 H         1 UNK         0.0600 
    209 H209       -3.1193  -22.9205  -50.5452 H         1 UNK         0.0600 
    210 H210       -4.6347  -26.3152  -49.3397 H         1 UNK         0.3000 
    211 H211       -6.7258  -26.9893  -49.1513 H         1 UNK         0.0600 
    212 H212       -6.8493  -26.9066  -52.2140 H         1 UNK         0.0600 
    213 H213       -7.9463  -27.7776  -51.1536 H         1 UNK         0.0600 
    214 H214       -6.2575  -28.2525  -51.2426 H         1 UNK         0.0600 
    215 H215       -6.5633  -24.5926  -48.3661 H         1 UNK         0.3000 
    216 H216       -7.6409  -22.7752  -47.7398 H         1 UNK         0.0600 
    217 H217      -10.0474  -22.4543  -48.0923 H         1 UNK         0.0600 
    218 H218       -9.7447  -24.1356  -47.6850 H         1 UNK         0.0600 
    219 H219      -10.0856  -23.6760  -49.3529 H         1 UNK         0.0600 
    220 H220       -5.8137  -22.6094  -49.6068 H         1 UNK         0.3000 
    221 H221       -4.7930  -21.3321  -51.0885 H         1 UNK         0.0600 
    222 H222       -6.9904  -19.2651  -50.5788 H         1 UNK         0.0600 
    223 H223       -5.5613  -19.5024  -49.5749 H         1 UNK         0.0600 
    224 H224       -5.3905  -18.9434  -51.2267 H         1 UNK         0.0600 
    225 H225       -6.8486  -23.2057  -52.1470 H         1 UNK         0.3000 
    226 H226       -7.9505  -22.0451  -54.5575 H         1 UNK         0.0600 
    227 H227       -8.9974  -24.0038  -53.4625 H         1 UNK         0.0600 
    228 H228       -8.4872  -24.4278  -55.0900 H         1 UNK         0.0600 
    229 H229       -7.5383  -24.9608  -53.7063 H         1 UNK         0.0600 
    230 H230       -5.0458  -23.9535  -53.7435 H         1 UNK         0.3000 
    231 H231       -4.0417  -23.8939  -56.5234 H         1 UNK         0.0600 
    232 H232       -3.8726  -25.9599  -55.1147 H         1 UNK         0.0600 
    233 H233       -2.8422  -25.0952  -53.9767 H         1 UNK         0.0600 
    234 H234       -2.2950  -25.3781  -55.6221 H         1 UNK         0.0600 
    235 H235       -4.0213  -21.6558  -54.0653 H         1 UNK         0.3000 
    236 H236       -1.2234  -20.7872  -54.1939 H         1 UNK         0.0600 
    237 H237       -1.9884  -19.0637  -52.5798 H         1 UNK         0.0600 
    238 H238       -3.6627  -19.5206  -52.8382 H         1 UNK         0.0600 
    239 H239       -2.5429  -20.6443  -52.0624 H         1 UNK         0.0600 
    240 H240       -0.8813  -18.3649  -54.5280 H         1 UNK         0.3000 
    241 H241       -1.6181  -17.5822  -57.1779 H         1 UNK         0.0600 
    242 H242       -4.0263  -14.9675  -56.8339 H         1 UNK         0.3800 
    243 H243       -2.7531  -15.5790  -57.8499 H         1 UNK         0.3800 
    244 H244        0.5706  -16.9654  -56.4747 H         1 UNK         0.0800 
    245 H245       -0.3062  -15.4804  -56.6091 H         1 UNK         0.0800 
    246 H246        1.5298  -17.9645  -54.6026 H         1 UNK         0.0800 
    247 H247        2.5280  -16.5668  -54.2892 H         1 UNK         0.0800 
@<TRIPOS>BOND
     1    1    2 1    
     2    1  127 1    
     3    1  128 1    
     4    1  129 1    
     5    2    3 2    
     6    2    4 am   BACKBONE|DICT|INTERRES
     7    4    5 1    
     8    4  130 1    
     9    5    6 1    
    10    5   65 1    
    11    5  131 1    
    12    6    7 1    
    13    6  132 1    
    14    6  133 1    
    15    7    8 1    
    16    8    9 1    
    17    8  134 1    
    18    8  135 1    
    19    9   10 ar   
    20    9   14 ar   
    21   10   11 ar   
    22   10  136 1    
    23   11   12 ar   
    24   11  126 1    
    25   12   13 ar   
    26   12  137 1    
    27   13   14 ar   
    28   13   15 1    
    29   14  138 1    
    30   15   16 1    
    31   15  139 1    
    32   15  140 1    
    33   16   17 1    
    34   17   18 1    
    35   17  141 1    
    36   17  142 1    
    37   18   19 1    
    38   18   67 1    
    39   18  143 1    
    40   19   20 am   BACKBONE|DICT|INTERRES
    41   19  144 1    
    42   20   21 2    
    43   20   22 1    
    44   22   23 1    
    45   22   24 1    
    46   22  145 1    
    47   23  146 1    
    48   23  147 1    
    49   23  148 1    
    50   24   25 am   BACKBONE|DICT|INTERRES
    51   24  149 1    
    52   25   26 2    
    53   25   27 1    
    54   27   28 1    
    55   27   29 1    
    56   27  150 1    
    57   28  151 1    
    58   28  152 1    
    59   28  153 1    
    60   29   30 am   BACKBONE|DICT|INTERRES
    61   29  154 1    
    62   30   31 2    
    63   30   32 1    
    64   32   33 1    
    65   32   34 1    
    66   32  155 1    
    67   33  156 1    
    68   33  157 1    
    69   33  158 1    
    70   34   35 am   BACKBONE|DICT|INTERRES
    71   34  159 1    
    72   35   36 2    
    73   35   37 1    
    74   37   38 1    
    75   37   39 1    
    76   37  160 1    
    77   38  161 1    
    78   38  162 1    
    79   38  163 1    
    80   39   40 am   BACKBONE|DICT|INTERRES
    81   39  164 1    
    82   40   41 2    
    83   40   42 1    
    84   42   43 1    
    85   42   44 1    
    86   42  165 1    
    87   43  166 1    
    88   43  167 1    
    89   43  168 1    
    90   44   45 am   BACKBONE|DICT|INTERRES
    91   44  169 1    
    92   45   46 2    
    93   45   47 1    
    94   47   48 1    
    95   47   49 1    
    96   47  170 1    
    97   48  171 1    
    98   48  172 1    
    99   48  173 1    
   100   49   50 am   BACKBONE|DICT|INTERRES
   101   49  174 1    
   102   50   51 2    
   103   50   52 1    
   104   52   53 1    
   105   52   54 1    
   106   52  175 1    
   107   53  176 1    
   108   53  177 1    
   109   53  178 1    
   110   54   55 am   BACKBONE|DICT|INTERRES
   111   54  179 1    
   112   55   56 2    
   113   55   57 1    
   114   57   58 1    
   115   57   59 1    
   116   57  180 1    
   117   58  181 1    
   118   58  182 1    
   119   58  183 1    
   120   59   60 am   BACKBONE|DICT|INTERRES
   121   59  184 1    
   122   60   61 2    
   123   60   62 1    
   124   62   63 1    
   125   62   64 1    
   126   62  185 1    
   127   63  186 1    
   128   63  187 1    
   129   63  188 1    
   130   64   65 am   BACKBONE|DICT|INTERRES
   131   64  189 1    
   132   65   66 2    
   133   67   68 2    
   134   67   69 am   BACKBONE|DICT|INTERRES
   135   69   70 1    
   136   69  190 1    
   137   70   71 1    
   138   70   72 1    
   139   70  191 1    
   140   71  192 1    
   141   71  193 1    
   142   71  194 1    
   143   72   73 2    
   144   72   74 am   BACKBONE|DICT|INTERRES
   145   74   75 1    
   146   74  195 1    
   147   75   76 1    
   148   75   77 1    
   149   75  196 1    
   150   76  197 1    
   151   76  198 1    
   152   76  199 1    
   153   77   78 2    
   154   77   79 am   BACKBONE|DICT|INTERRES
   155   79   80 1    
   156   79  200 1    
   157   80   81 1    
   158   80   82 1    
   159   80  201 1    
   160   81  202 1    
   161   81  203 1    
   162   81  204 1    
   163   82   83 2    
   164   82   84 am   BACKBONE|DICT|INTERRES
   165   84   85 1    
   166   84  205 1    
   167   85   86 1    
   168   85   87 1    
   169   85  206 1    
   170   86  207 1    
   171   86  208 1    
   172   86  209 1    
   173   87   88 2    
   174   87   89 am   BACKBONE|DICT|INTERRES
   175   89   90 1    
   176   89  210 1    
   177   90   91 1    
   178   90   92 1    
   179   90  211 1    
   180   91  212 1    
   181   91  213 1    
   182   91  214 1    
   183   92   93 2    
   184   92   94 am   BACKBONE|DICT|INTERRES
   185   94   95 1    
   186   94  215 1    
   187   95   96 1    
   188   95   97 1    
   189   95  216 1    
   190   96  217 1    
   191   96  218 1    
   192   96  219 1    
   193   97   98 2    
   194   97   99 am   BACKBONE|DICT|INTERRES
   195   99  100 1    
   196   99  220 1    
   197  100  101 1    
   198  100  102 1    
   199  100  221 1    
   200  101  222 1    
   201  101  223 1    
   202  101  224 1    
   203  102  103 2    
   204  102  104 am   BACKBONE|DICT|INTERRES
   205  104  105 1    
   206  104  225 1    
   207  105  106 1    
   208  105  107 1    
   209  105  226 1    
   210  106  227 1    
   211  106  228 1    
   212  106  229 1    
   213  107  108 2    
   214  107  109 am   BACKBONE|DICT|INTERRES
   215  109  110 1    
   216  109  230 1    
   217  110  111 1    
   218  110  112 1    
   219  110  231 1    
   220  111  232 1    
   221  111  233 1    
   222  111  234 1    
   223  112  113 2    
   224  112  114 am   BACKBONE|DICT|INTERRES
   225  114  115 1    
   226  114  235 1    
   227  115  116 1    
   228  115  117 1    
   229  115  236 1    
   230  116  237 1    
   231  116  238 1    
   232  116  239 1    
   233  117  118 2    
   234  117  119 am   BACKBONE|DICT|INTERRES
   235  119  120 1    
   236  119  240 1    
   237  120  121 1    
   238  120  124 1    
   239  120  241 1    
   240  121  122 am   BACKBONE|DICT|INTERRES
   241  121  123 2    
   242  122  242 1    
   243  122  243 1    
   244  124  125 1    
   245  124  244 1    
   246  124  245 1    
   247  125  126 1    
   248  126  246 1    
   249  126  247 1    
@<TRIPOS>SUBSTRUCTURE
     1 UNK         1 GROUP             0       ****    0 ROOT    
