@<TRIPOS>MOLECULE
3R540
247   249    1
SMALL
USER_CHARGES


@<TRIPOS>ATOM
      1 CA          4.3428  -12.5655  -52.2559 C.3       0 UNK        -0.1800 
      2 C           3.8510  -12.6246  -50.8164 C.2       0 UNK         0.5000 
      3 O           3.4326  -11.6040  -50.2688 O.2       0 UNK        -0.5000 
      4 N           3.9106  -13.8107  -50.2004 N.am      1 UNK        -0.5000 
      5 CA          3.4075  -14.0891  -48.8527 C.3       1 UNK         0.1400 
      6 C6          4.0005  -15.3993  -48.2671 C.3       23 UNK        -0.0398 
      7 S7          3.9934  -16.8511  -49.3812 S.3       23 UNK        -0.2404 
      8 C8          2.8138  -17.9941  -48.5856 C.3       23 UNK        -0.0205 
      9 C9          1.4334  -17.9315  -49.2225 C.ar      23 UNK        -0.0193 
     10 C10         1.2649  -18.3096  -50.5588 C.ar      23 UNK        -0.1150 
     11 C11         0.0050  -18.2592  -51.1601 C.ar      23 UNK        -0.0193 
     12 C12        -1.0969  -17.8458  -50.4083 C.ar      23 UNK        -0.1150 
     13 C13        -0.9478  -17.4900  -49.0654 C.ar      23 UNK        -0.0193 
     14 C14         0.3216  -17.5250  -48.4786 C.ar      23 UNK        -0.1150 
     15 C15        -2.1663  -17.0739  -48.2571 C.3       23 UNK        -0.0205 
     16 S16        -3.1207  -18.5205  -47.6989 S.3       23 UNK        -0.2404 
     17 C17        -2.0152  -19.2108  -46.4295 C.3       23 UNK        -0.0398 
     18 CA         -1.2669  -20.5019  -46.8636 C.3       11 UNK         0.1400 
     19 N           0.0242  -20.6166  -46.1743 N.am      11 UNK        -0.5000 
     20 C           0.9176  -21.6089  -46.2910 C.2       10 UNK         0.5000 
     21 O           0.7953  -22.5573  -47.0630 O.2       10 UNK        -0.5000 
     22 CA          2.1246  -21.5703  -45.3334 C.3       10 UNK         0.1400 
     23 CB          3.2395  -20.6626  -45.8727 C.3       10 UNK        -0.1800 
     24 N           1.7539  -21.1552  -43.9783 N.am      10 UNK        -0.5000 
     25 C           0.9641  -21.8686  -43.1618 C.2       9 UNK         0.5000 
     26 O           0.5055  -22.9733  -43.4504 O.2       9 UNK        -0.5000 
     27 CA          0.5740  -21.2171  -41.8220 C.3       9 UNK         0.1400 
     28 CB          1.7100  -21.3450  -40.7966 C.3       9 UNK        -0.1800 
     29 N           0.2041  -19.8104  -41.9734 N.am      9 UNK        -0.5000 
     30 C          -0.8342  -19.3727  -42.6997 C.2       8 UNK         0.5000 
     31 O          -1.6438  -20.1187  -43.2513 O.2       8 UNK        -0.5000 
     32 CA         -0.9475  -17.8488  -42.8968 C.3       8 UNK         0.1400 
     33 CB         -1.6776  -17.1951  -41.7158 C.3       8 UNK        -0.1800 
     34 N           0.3556  -17.2080  -43.0905 N.am      8 UNK        -0.5000 
     35 C           1.1839  -17.4662  -44.1121 C.2       7 UNK         0.5000 
     36 O           0.9199  -18.2449  -45.0226 O.2       7 UNK        -0.5000 
     37 CA          2.5510  -16.7717  -44.1087 C.3       7 UNK         0.1400 
     38 CB          2.4315  -15.3732  -44.7146 C.3       7 UNK        -0.1800 
     39 N           3.1088  -16.6861  -42.7633 N.am      7 UNK        -0.5000 
     40 C           3.6576  -17.7225  -42.1163 C.2       6 UNK         0.5000 
     41 O           3.8046  -18.8392  -42.6144 O.2       6 UNK        -0.5000 
     42 CA          4.0733  -17.4742  -40.6543 C.3       6 UNK         0.1400 
     43 CB          5.4814  -16.8644  -40.5873 C.3       6 UNK        -0.1800 
     44 N           3.1336  -16.6064  -39.9393 N.am      6 UNK        -0.5000 
     45 C           1.8696  -16.9455  -39.6513 C.2       5 UNK         0.5000 
     46 O           1.3725  -18.0330  -39.9441 O.2       5 UNK        -0.5000 
     47 CA          1.0018  -15.8819  -38.9527 C.3       5 UNK         0.1400 
     48 CB          1.1900  -15.9556  -37.4301 C.3       5 UNK        -0.1800 
     49 N           1.2266  -14.5021  -39.3994 N.am      5 UNK        -0.5000 
     50 C           1.1336  -14.0525  -40.6595 C.2       4 UNK         0.5000 
     51 O           0.9677  -14.7928  -41.6292 O.2       4 UNK        -0.5000 
     52 CA          1.2129  -12.5262  -40.8813 C.3       4 UNK         0.1400 
     53 CB          1.6775  -11.7417  -39.6377 C.3       4 UNK        -0.1800 
     54 N           2.1099  -12.1986  -41.9927 N.am      4 UNK        -0.5000 
     55 C           1.8218  -12.0533  -43.2944 C.2       3 UNK         0.5000 
     56 O           2.7072  -11.7861  -44.1101 O.2       3 UNK        -0.5000 
     57 CA          0.3731  -12.2031  -43.8065 C.3       3 UNK         0.1400 
     58 CB         -0.4260  -10.9016  -43.6101 C.3       3 UNK        -0.1800 
     59 N           0.4186  -12.5043  -45.2373 N.am      3 UNK        -0.5000 
     60 C          -0.3881  -13.3488  -45.8922 C.2       2 UNK         0.5000 
     61 O          -1.2990  -13.9817  -45.3593 O.2       2 UNK        -0.5000 
     62 CA         -0.1193  -13.5312  -47.3945 C.3       2 UNK         0.1400 
     63 CB         -0.7781  -12.3957  -48.2014 C.3       2 UNK        -0.1800 
     64 N           1.3179  -13.6078  -47.6673 N.am      2 UNK        -0.5000 
     65 C           1.8635  -14.0595  -48.8042 C.2       1 UNK         0.5000 
     66 O           1.2081  -14.4369  -49.7779 O.2       1 UNK        -0.5000 
     67 C          -2.1443  -21.7516  -46.6371 C.2       11 UNK         0.5000 
     68 O          -2.6473  -22.3406  -47.5973 O.2       11 UNK        -0.5000 
     69 N          -2.2694  -22.1465  -45.3614 N.am      12 UNK        -0.5000 
     70 CA         -2.9968  -23.3308  -44.9146 C.3       12 UNK         0.1400 
     71 CB         -3.1609  -23.2808  -43.3881 C.3       12 UNK        -0.1800 
     72 C          -2.3257  -24.6443  -45.3522 C.2       12 UNK         0.5000 
     73 O          -3.0229  -25.5445  -45.8191 O.2       12 UNK        -0.5000 
     74 N          -0.9937  -24.7277  -45.2176 N.am      13 UNK        -0.5000 
     75 CA         -0.1894  -25.8935  -45.5967 C.3       13 UNK         0.1400 
     76 CB          1.2500  -25.7179  -45.0909 C.3       13 UNK        -0.1800 
     77 C          -0.2013  -26.1716  -47.1108 C.2       13 UNK         0.5000 
     78 O          -0.2939  -27.3314  -47.5149 O.2       13 UNK        -0.5000 
     79 N          -0.1386  -25.1048  -47.9188 N.am      14 UNK        -0.5000 
     80 CA         -0.2680  -25.1551  -49.3760 C.3       14 UNK         0.1400 
     81 CB          0.2335  -23.8274  -49.9678 C.3       14 UNK        -0.1800 
     82 C          -1.7112  -25.4231  -49.8437 C.2       14 UNK         0.5000 
     83 O          -1.9008  -25.8396  -50.9870 O.2       14 UNK        -0.5000 
     84 N          -2.6899  -25.1528  -48.9649 N.am      15 UNK        -0.5000 
     85 CA         -4.1358  -25.1522  -49.2041 C.3       15 UNK         0.1400 
     86 CB         -4.6559  -26.5805  -49.4655 C.3       15 UNK        -0.1800 
     87 C          -4.5128  -24.1508  -50.3131 C.2       15 UNK         0.5000 
     88 O          -5.2638  -24.4874  -51.2294 O.2       15 UNK        -0.5000 
     89 N          -3.9448  -22.9393  -50.2143 N.am      16 UNK        -0.5000 
     90 CA         -3.9401  -21.8942  -51.2422 C.3       16 UNK         0.1400 
     91 CB         -3.2698  -20.6447  -50.6645 C.3       16 UNK        -0.1800 
     92 C          -5.3254  -21.5186  -51.7913 C.2       16 UNK         0.5000 
     93 O          -5.4534  -21.2677  -52.9908 O.2       16 UNK        -0.5000 
     94 N          -6.3272  -21.5192  -50.9014 N.am      17 UNK        -0.5000 
     95 CA         -7.7281  -21.2081  -51.1802 C.3       17 UNK         0.1400 
     96 CB         -8.4973  -21.1490  -49.8523 C.3       17 UNK        -0.1800 
     97 C          -8.4115  -22.1865  -52.1536 C.2       17 UNK         0.5000 
     98 O          -9.3660  -21.7894  -52.8230 O.2       17 UNK        -0.5000 
     99 N          -7.9028  -23.4249  -52.2588 N.am      18 UNK        -0.5000 
    100 CA        -8.3847  -24.4362  -53.2067 C.3       18 UNK         0.1400 
    101 CB        -7.7858  -25.8043  -52.8464 C.3       18 UNK        -0.1800 
    102 C         -8.0783  -24.0807  -54.6760 C.2       18 UNK         0.5000 
    103 O         -8.7402  -24.6004  -55.5750 O.2       18 UNK        -0.5000 
    104 N         -7.1058  -23.1854  -54.8869 N.am      19 UNK        -0.5000 
    105 CA        -6.7447  -22.5984  -56.1729 C.3       19 UNK         0.1400 
    106 CB        -5.3514  -23.1112  -56.5735 C.3       19 UNK        -0.1800 
    107 C         -6.8182  -21.0613  -56.0794 C.2       19 UNK         0.5000 
    108 O         -6.0015  -20.3675  -56.6895 O.2       19 UNK        -0.5000 
    109 N         -7.7770  -20.5584  -55.2846 N.am      20 UNK        -0.5000 
    110 CA        -8.0693  -19.1600  -54.9412 C.3       20 UNK         0.1400 
    111 CB        -8.4536  -18.3405  -56.1881 C.3       20 UNK        -0.1800 
    112 C         -6.9605  -18.4632  -54.1279 C.2       20 UNK         0.5000 
    113 O         -7.2350  -17.9469  -53.0443 O.2       20 UNK        -0.5000 
    114 N         -5.7365  -18.4739  -54.6582 N.am      21 UNK        -0.5000 
    115 CA        -4.5210  -17.9442  -54.0561 C.3       21 UNK         0.1400 
    116 CB        -4.5019  -16.4042  -54.1399 C.3       21 UNK        -0.1800 
    117 C         -3.3156  -18.6051  -54.7433 C.2       21 UNK         0.5000 
    118 O         -2.5046  -17.9168  -55.3650 O.2       21 UNK        -0.5000 
    119 N         -3.2394  -19.9383  -54.6367 N.am      22 UNK        -0.5000 
    120 CA        -2.1695  -20.7903  -55.1979 C.3       22 UNK         0.1400 
    121 C         -2.1746  -20.9108  -56.7560 C.2       22 UNK         0.5000 
    122 N         -3.2511  -20.5801  -57.4567 N.am      22 UNK        -0.7600 
    123 O         -1.1874  -21.3349  -57.3518 O.2       22 UNK        -0.5000 
    124 C124       -0.7416  -20.4501  -54.6681 C.3       23 UNK        -0.0398 
    125 S125       -0.5914  -20.3769  -52.8507 S.3       23 UNK        -0.2404 
    126 C126       -0.1620  -18.6223  -52.6265 C.3       23 UNK        -0.0205 
    127 H127        5.1657  -11.8561  -52.3431 H         1 UNK         0.0600 
    128 H128        3.5376  -12.2385  -52.9139 H         1 UNK         0.0600 
    129 H129        4.6931  -13.5374  -52.6047 H         1 UNK         0.0600 
    130 H130        4.2284  -14.6233  -50.7098 H         1 UNK         0.3000 
    131 H131        3.7565  -13.2745  -48.2138 H         1 UNK         0.0600 
    132 H132        3.5289  -15.6554  -47.3212 H         1 UNK         0.0800 
    133 H133        5.0455  -15.2165  -48.0135 H         1 UNK         0.0800 
    134 H134        3.1940  -19.0110  -48.6912 H         1 UNK         0.0800 
    135 H135        2.7601  -17.8036  -47.5133 H         1 UNK         0.0800 
    136 H136        2.1214  -18.6297  -51.1353 H         1 UNK         0.1150 
    137 H137       -2.0749  -17.8074  -50.8661 H         1 UNK         0.1150 
    138 H138        0.4425  -17.2430  -47.4427 H         1 UNK         0.1150 
    139 H139       -2.8097  -16.4412  -48.8703 H         1 UNK         0.0800 
    140 H140       -1.8779  -16.4696  -47.3958 H         1 UNK         0.0800 
    141 H141       -2.6043  -19.3674  -45.5254 H         1 UNK         0.0800 
    142 H142       -1.3032  -18.4320  -46.1664 H         1 UNK         0.0800 
    143 H143       -1.0401  -20.4393  -47.9300 H         1 UNK         0.0600 
    144 H144        0.2683  -19.8417  -45.5615 H         1 UNK         0.3000 
    145 H145        2.5263  -22.5832  -45.2702 H         1 UNK         0.0600 
    146 H146        3.5490  -20.9768  -46.8702 H         1 UNK         0.0600 
    147 H147        4.1203  -20.6982  -45.2313 H         1 UNK         0.0600 
    148 H148        2.9207  -19.6242  -45.9406 H         1 UNK         0.0600 
    149 H149        2.0884  -20.2527  -43.6685 H         1 UNK         0.3000 
    150 H150       -0.2961  -21.7509  -41.4343 H         1 UNK         0.0600 
    151 H151        1.9922  -22.3889  -40.6544 H         1 UNK         0.0600 
    152 H152        1.4082  -20.9537  -39.8249 H         1 UNK         0.0600 
    153 H153        2.6018  -20.8026  -41.1115 H         1 UNK         0.0600 
    154 H154        0.7829  -19.1298  -41.4908 H         1 UNK         0.3000 
    155 H155       -1.5378  -17.6696  -43.7972 H         1 UNK         0.0600 
    156 H156       -1.1730  -17.3950  -40.7715 H         1 UNK         0.0600 
    157 H157       -2.6945  -17.5794  -41.6290 H         1 UNK         0.0600 
    158 H158       -1.7460  -16.1141  -41.8408 H         1 UNK         0.0600 
    159 H159        0.6256  -16.4982  -42.4157 H         1 UNK         0.3000 
    160 H160        3.2277  -17.3556  -44.7364 H         1 UNK         0.0600 
    161 H161        1.7990  -14.7381  -44.1008 H         1 UNK         0.0600 
    162 H162        1.9716  -15.4244  -45.7000 H         1 UNK         0.0600 
    163 H163        3.4044  -14.8922  -44.8164 H         1 UNK         0.0600 
    164 H164        2.9524  -15.8239  -42.2601 H         1 UNK         0.3000 
    165 H165        4.0952  -18.4416  -40.1477 H         1 UNK         0.0600 
    166 H166        5.8157  -16.7569  -39.5553 H         1 UNK         0.0600 
    167 H167        6.2061  -17.4999  -41.0980 H         1 UNK         0.0600 
    168 H168        5.5184  -15.8808  -41.0572 H         1 UNK         0.0600 
    169 H169        3.4636  -15.6921  -39.6674 H         1 UNK         0.3000 
    170 H170       -0.0401  -16.1205  -39.1706 H         1 UNK         0.0600 
    171 H171        0.4946  -15.2940  -36.9133 H         1 UNK         0.0600 
    172 H172        2.2023  -15.6762  -37.1355 H         1 UNK         0.0600 
    173 H173        1.0078  -16.9662  -37.0616 H         1 UNK         0.0600 
    174 H174        1.3789  -13.8231  -38.6678 H         1 UNK         0.3000 
    175 H175        0.1982  -12.1982  -41.1028 H         1 UNK         0.0600 
    176 H176        0.9876  -11.8681  -38.8023 H         1 UNK         0.0600 
    177 H177        2.6702  -12.0507  -39.3074 H         1 UNK         0.0600 
    178 H178        1.7200  -10.6725  -39.8478 H         1 UNK         0.0600 
    179 H179        3.0800  -12.1088  -41.7307 H         1 UNK         0.3000 
    180 H180       -0.1137  -13.0225  -43.2762 H         1 UNK         0.0600 
    181 H181       -1.4548  -11.0195  -43.9507 H         1 UNK         0.0600 
    182 H182        0.0157  -10.0747  -44.1677 H         1 UNK         0.0600 
    183 H183       -0.4648  -10.6004  -42.5637 H         1 UNK         0.0600 
    184 H184        1.1611  -12.0256  -45.7287 H         1 UNK         0.3000 
    185 H185       -0.5725  -14.4779  -47.6935 H         1 UNK         0.0600 
    186 H186       -0.7121  -12.5759  -49.2743 H         1 UNK         0.0600 
    187 H187       -1.8374  -12.3063  -47.9568 H         1 UNK         0.0600 
    188 H188       -0.3099  -11.4327  -47.9951 H         1 UNK         0.0600 
    189 H189        1.9239  -13.3404  -46.9051 H         1 UNK         0.3000 
    190 H190       -1.8397  -21.5811  -44.6355 H         1 UNK         0.3000 
    191 H191       -3.9919  -23.3003  -45.3634 H         1 UNK         0.0600 
    192 H192       -3.7041  -22.3871  -43.0802 H         1 UNK         0.0600 
    193 H193       -3.7209  -24.1440  -43.0264 H         1 UNK         0.0600 
    194 H194       -2.1971  -23.2758  -42.8781 H         1 UNK         0.0600 
    195 H195       -0.4958  -23.9597  -44.7756 H         1 UNK         0.3000 
    196 H196       -0.6172  -26.7658  -45.0983 H         1 UNK         0.0600 
    197 H197        1.8605  -26.5869  -45.3393 H         1 UNK         0.0600 
    198 H198        1.2764  -25.6014  -44.0074 H         1 UNK         0.0600 
    199 H199        1.7268  -24.8440  -45.5346 H         1 UNK         0.0600 
    200 H200        0.0089  -24.1835  -47.5109 H         1 UNK         0.3000 
    201 H201        0.3623  -25.9622  -49.7547 H         1 UNK         0.0600 
    202 H202        0.1819  -23.8372  -51.0573 H         1 UNK         0.0600 
    203 H203        1.2715  -23.6392  -49.6931 H         1 UNK         0.0600 
    204 H204       -0.3630  -22.9823  -49.6199 H         1 UNK         0.0600 
    205 H205       -2.4080  -24.8091  -48.0567 H         1 UNK         0.3000 
    206 H206       -4.6014  -24.7905  -48.2862 H         1 UNK         0.0600 
    207 H207       -4.3736  -27.2547  -48.6567 H         1 UNK         0.0600 
    208 H208       -5.7443  -26.5915  -49.5336 H         1 UNK         0.0600 
    209 H209       -4.2673  -26.9921  -50.3973 H         1 UNK         0.0600 
    210 H210       -3.3788  -22.7534  -49.3906 H         1 UNK         0.3000 
    211 H211       -3.3377  -22.2588  -52.0764 H         1 UNK         0.0600 
    212 H212       -3.8391  -20.2515  -49.8238 H         1 UNK         0.0600 
    213 H213       -3.2037  -19.8553  -51.4133 H         1 UNK         0.0600 
    214 H214       -2.2582  -20.8549  -50.3163 H         1 UNK         0.0600 
    215 H215       -6.1028  -21.7591  -49.9470 H         1 UNK         0.3000 
    216 H216       -7.7614  -20.2184  -51.6380 H         1 UNK         0.0600 
    217 H217       -8.4753  -22.1073  -49.3318 H         1 UNK         0.0600 
    218 H218       -9.5438  -20.8887  -50.0176 H         1 UNK         0.0600 
    219 H219       -8.0784  -20.3941  -49.1866 H         1 UNK         0.0600 
    220 H220       -7.0800  -23.6728  -51.7181 H         1 UNK         0.3000 
    221 H221       -9.4697  -24.5035  -53.1037 H         1 UNK         0.0600 
    222 H222       -6.7067  -25.8247  -53.0015 H         1 UNK         0.0600 
    223 H223       -7.9812  -26.0624  -51.8055 H         1 UNK         0.0600 
    224 H224       -8.2178  -26.5923  -53.4644 H         1 UNK         0.0600 
    225 H225       -6.6264  -22.7946  -54.0835 H         1 UNK         0.3000 
    226 H226       -7.4557  -22.8960  -56.9459 H         1 UNK         0.0600 
    227 H227       -5.3309  -24.2002  -56.6150 H         1 UNK         0.0600 
    228 H228       -5.0673  -22.7473  -57.5612 H         1 UNK         0.0600 
    229 H229       -4.5884  -22.7902  -55.8640 H         1 UNK         0.0600 
    230 H230       -8.3598  -21.2287  -54.7990 H         1 UNK         0.3000 
    231 H231       -8.9489  -19.1981  -54.2964 H         1 UNK         0.0600 
    232 H232       -7.6272  -18.2514  -56.8935 H         1 UNK         0.0600 
    233 H233       -8.7526  -17.3292  -55.9099 H         1 UNK         0.0600 
    234 H234       -9.2939  -18.7948  -56.7131 H         1 UNK         0.0600 
    235 H235       -5.6203  -18.9805  -55.5328 H         1 UNK         0.3000 
    236 H236       -4.4919  -18.2359  -53.0042 H         1 UNK         0.0600 
    237 H237       -4.5689  -16.0585  -55.1720 H         1 UNK         0.0600 
    238 H238       -5.3309  -15.9644  -53.5856 H         1 UNK         0.0600 
    239 H239       -3.5816  -16.0019  -53.7146 H         1 UNK         0.0600 
    240 H240       -3.9802  -20.4235  -54.1413 H         1 UNK         0.3000 
    241 H241       -2.4021  -21.7958  -54.8466 H         1 UNK         0.0600 
    242 H242       -3.2217  -20.6678  -58.4594 H         1 UNK         0.3800 
    243 H243       -4.1234  -20.3164  -57.0112 H         1 UNK         0.3800 
    244 H244       -0.3910  -19.5130  -55.1027 H         1 UNK         0.0800 
    245 H245       -0.0317  -21.2079  -55.0033 H         1 UNK         0.0800 
    246 H246        0.7588  -18.4042  -53.1697 H         1 UNK         0.0800 
    247 H247       -0.9350  -17.9955  -53.0715 H         1 UNK         0.0800 
@<TRIPOS>BOND
     1    1    2 1    
     2    1  127 1    
     3    1  128 1    
     4    1  129 1    
     5    2    3 2    
     6    2    4 am   BACKBONE|DICT|INTERRES
     7    4    5 1    
     8    4  130 1    
     9    5    6 1    
    10    5   65 1    
    11    5  131 1    
    12    6    7 1    
    13    6  132 1    
    14    6  133 1    
    15    7    8 1    
    16    8    9 1    
    17    8  134 1    
    18    8  135 1    
    19    9   10 ar   
    20    9   14 ar   
    21   10   11 ar   
    22   10  136 1    
    23   11   12 ar   
    24   11  126 1    
    25   12   13 ar   
    26   12  137 1    
    27   13   14 ar   
    28   13   15 1    
    29   14  138 1    
    30   15   16 1    
    31   15  139 1    
    32   15  140 1    
    33   16   17 1    
    34   17   18 1    
    35   17  141 1    
    36   17  142 1    
    37   18   19 1    
    38   18   67 1    
    39   18  143 1    
    40   19   20 am   BACKBONE|DICT|INTERRES
    41   19  144 1    
    42   20   21 2    
    43   20   22 1    
    44   22   23 1    
    45   22   24 1    
    46   22  145 1    
    47   23  146 1    
    48   23  147 1    
    49   23  148 1    
    50   24   25 am   BACKBONE|DICT|INTERRES
    51   24  149 1    
    52   25   26 2    
    53   25   27 1    
    54   27   28 1    
    55   27   29 1    
    56   27  150 1    
    57   28  151 1    
    58   28  152 1    
    59   28  153 1    
    60   29   30 am   BACKBONE|DICT|INTERRES
    61   29  154 1    
    62   30   31 2    
    63   30   32 1    
    64   32   33 1    
    65   32   34 1    
    66   32  155 1    
    67   33  156 1    
    68   33  157 1    
    69   33  158 1    
    70   34   35 am   BACKBONE|DICT|INTERRES
    71   34  159 1    
    72   35   36 2    
    73   35   37 1    
    74   37   38 1    
    75   37   39 1    
    76   37  160 1    
    77   38  161 1    
    78   38  162 1    
    79   38  163 1    
    80   39   40 am   BACKBONE|DICT|INTERRES
    81   39  164 1    
    82   40   41 2    
    83   40   42 1    
    84   42   43 1    
    85   42   44 1    
    86   42  165 1    
    87   43  166 1    
    88   43  167 1    
    89   43  168 1    
    90   44   45 am   BACKBONE|DICT|INTERRES
    91   44  169 1    
    92   45   46 2    
    93   45   47 1    
    94   47   48 1    
    95   47   49 1    
    96   47  170 1    
    97   48  171 1    
    98   48  172 1    
    99   48  173 1    
   100   49   50 am   BACKBONE|DICT|INTERRES
   101   49  174 1    
   102   50   51 2    
   103   50   52 1    
   104   52   53 1    
   105   52   54 1    
   106   52  175 1    
   107   53  176 1    
   108   53  177 1    
   109   53  178 1    
   110   54   55 am   BACKBONE|DICT|INTERRES
   111   54  179 1    
   112   55   56 2    
   113   55   57 1    
   114   57   58 1    
   115   57   59 1    
   116   57  180 1    
   117   58  181 1    
   118   58  182 1    
   119   58  183 1    
   120   59   60 am   BACKBONE|DICT|INTERRES
   121   59  184 1    
   122   60   61 2    
   123   60   62 1    
   124   62   63 1    
   125   62   64 1    
   126   62  185 1    
   127   63  186 1    
   128   63  187 1    
   129   63  188 1    
   130   64   65 am   BACKBONE|DICT|INTERRES
   131   64  189 1    
   132   65   66 2    
   133   67   68 2    
   134   67   69 am   BACKBONE|DICT|INTERRES
   135   69   70 1    
   136   69  190 1    
   137   70   71 1    
   138   70   72 1    
   139   70  191 1    
   140   71  192 1    
   141   71  193 1    
   142   71  194 1    
   143   72   73 2    
   144   72   74 am   BACKBONE|DICT|INTERRES
   145   74   75 1    
   146   74  195 1    
   147   75   76 1    
   148   75   77 1    
   149   75  196 1    
   150   76  197 1    
   151   76  198 1    
   152   76  199 1    
   153   77   78 2    
   154   77   79 am   BACKBONE|DICT|INTERRES
   155   79   80 1    
   156   79  200 1    
   157   80   81 1    
   158   80   82 1    
   159   80  201 1    
   160   81  202 1    
   161   81  203 1    
   162   81  204 1    
   163   82   83 2    
   164   82   84 am   BACKBONE|DICT|INTERRES
   165   84   85 1    
   166   84  205 1    
   167   85   86 1    
   168   85   87 1    
   169   85  206 1    
   170   86  207 1    
   171   86  208 1    
   172   86  209 1    
   173   87   88 2    
   174   87   89 am   BACKBONE|DICT|INTERRES
   175   89   90 1    
   176   89  210 1    
   177   90   91 1    
   178   90   92 1    
   179   90  211 1    
   180   91  212 1    
   181   91  213 1    
   182   91  214 1    
   183   92   93 2    
   184   92   94 am   BACKBONE|DICT|INTERRES
   185   94   95 1    
   186   94  215 1    
   187   95   96 1    
   188   95   97 1    
   189   95  216 1    
   190   96  217 1    
   191   96  218 1    
   192   96  219 1    
   193   97   98 2    
   194   97   99 am   BACKBONE|DICT|INTERRES
   195   99  100 1    
   196   99  220 1    
   197  100  101 1    
   198  100  102 1    
   199  100  221 1    
   200  101  222 1    
   201  101  223 1    
   202  101  224 1    
   203  102  103 2    
   204  102  104 am   BACKBONE|DICT|INTERRES
   205  104  105 1    
   206  104  225 1    
   207  105  106 1    
   208  105  107 1    
   209  105  226 1    
   210  106  227 1    
   211  106  228 1    
   212  106  229 1    
   213  107  108 2    
   214  107  109 am   BACKBONE|DICT|INTERRES
   215  109  110 1    
   216  109  230 1    
   217  110  111 1    
   218  110  112 1    
   219  110  231 1    
   220  111  232 1    
   221  111  233 1    
   222  111  234 1    
   223  112  113 2    
   224  112  114 am   BACKBONE|DICT|INTERRES
   225  114  115 1    
   226  114  235 1    
   227  115  116 1    
   228  115  117 1    
   229  115  236 1    
   230  116  237 1    
   231  116  238 1    
   232  116  239 1    
   233  117  118 2    
   234  117  119 am   BACKBONE|DICT|INTERRES
   235  119  120 1    
   236  119  240 1    
   237  120  121 1    
   238  120  124 1    
   239  120  241 1    
   240  121  122 am   BACKBONE|DICT|INTERRES
   241  121  123 2    
   242  122  242 1    
   243  122  243 1    
   244  124  125 1    
   245  124  244 1    
   246  124  245 1    
   247  125  126 1    
   248  126  246 1    
   249  126  247 1    
@<TRIPOS>SUBSTRUCTURE
     1 UNK         1 GROUP             0       ****    0 ROOT    
