@<TRIPOS>MOLECULE
3R540
247   249    1
SMALL
USER_CHARGES


@<TRIPOS>ATOM
      1 CA          4.5956  -13.1284  -50.4973 C.3       0 UNK        -0.1800 
      2 C           3.8638  -13.7402  -49.3118 C.2       0 UNK         0.5000 
      3 O           3.7723  -13.1128  -48.2564 O.2       0 UNK        -0.5000 
      4 N           3.3268  -14.9562  -49.4838 N.am      1 UNK        -0.5000 
      5 CA          2.5927  -15.7127  -48.4589 C.3       1 UNK         0.1400 
      6 C6          2.3562  -17.1898  -48.8642 C.3       23 UNK        -0.0398 
      7 S7          1.5821  -17.4101  -50.5070 S.3       23 UNK        -0.2404 
      8 C8          0.1043  -18.3991  -50.1230 C.3       23 UNK        -0.0205 
      9 C9         -1.0597  -17.5459  -49.6484 C.ar      23 UNK        -0.0193 
     10 C10        -1.9086  -16.9444  -50.5801 C.ar      23 UNK        -0.1150 
     11 C11        -2.9683  -16.1384  -50.1579 C.ar      23 UNK        -0.0193 
     12 C12        -3.1795  -15.9465  -48.7891 C.ar      23 UNK        -0.1150 
     13 C13        -2.3408  -16.5422  -47.8408 C.ar      23 UNK        -0.0193 
     14 C14        -1.2864  -17.3526  -48.2841 C.ar      23 UNK        -0.1150 
     15 C15        -2.5553  -16.1998  -46.3653 C.3       23 UNK        -0.0205 
     16 S16        -1.7063  -17.2833  -45.1669 S.3       23 UNK        -0.2404 
     17 C17        -2.9367  -18.5959  -44.8737 C.3       23 UNK        -0.0398 
     18 CA         -2.7513  -19.8637  -45.7449 C.3       11 UNK         0.1400 
     19 N          -1.3659  -20.3557  -45.7762 N.am      11 UNK        -0.5000 
     20 C          -0.9301  -21.3616  -46.5500 C.2       10 UNK         0.5000 
     21 O          -1.6419  -21.9646  -47.3480 O.2       10 UNK        -0.5000 
     22 CA          0.5249  -21.8160  -46.3604 C.3       10 UNK         0.1400 
     23 CB          1.4862  -20.9476  -47.1859 C.3       10 UNK        -0.1800 
     24 N           0.9013  -21.7893  -44.9477 N.am      10 UNK        -0.5000 
     25 C           0.5323  -22.7265  -44.0606 C.2       9 UNK         0.5000 
     26 O          -0.0829  -23.7472  -44.3685 O.2       9 UNK        -0.5000 
     27 CA          0.8765  -22.4760  -42.5775 C.3       9 UNK         0.1400 
     28 CB          2.2331  -23.1048  -42.2270 C.3       9 UNK        -0.1800 
     29 N           0.9006  -21.0574  -42.2184 N.am      9 UNK        -0.5000 
     30 C          -0.1606  -20.2397  -42.2571 C.2       8 UNK         0.5000 
     31 O          -1.3006  -20.6202  -42.5209 O.2       8 UNK        -0.5000 
     32 CA          0.1017  -18.7370  -42.0274 C.3       8 UNK         0.1400 
     33 CB         -0.2155  -18.3514  -40.5772 C.3       8 UNK        -0.1800 
     34 N           1.4597  -18.2968  -42.3792 N.am      8 UNK        -0.5000 
     35 C           2.0073  -18.4212  -43.6005 C.2       7 UNK         0.5000 
     36 O           1.4155  -18.9476  -44.5426 O.2       7 UNK        -0.5000 
     37 CA          3.4442  -17.9107  -43.8240 C.3       7 UNK         0.1400 
     38 CB          3.5124  -16.9937  -45.0547 C.3       7 UNK        -0.1800 
     39 N           3.9858  -17.1989  -42.6673 N.am      7 UNK        -0.5000 
     40 C           4.7093  -17.7578  -41.6870 C.2       6 UNK         0.5000 
     41 O           5.0143  -18.9504  -41.6607 O.2       6 UNK        -0.5000 
     42 CA          5.1456  -16.8389  -40.5255 C.3       6 UNK         0.1400 
     43 CB          6.5695  -16.3132  -40.7615 C.3       6 UNK        -0.1800 
     44 N           4.2461  -15.7015  -40.3152 N.am      6 UNK        -0.5000 
     45 C           2.9665  -15.8058  -39.9338 C.2       5 UNK         0.5000 
     46 O           2.4331  -16.8776  -39.6496 O.2       5 UNK        -0.5000 
     47 CA          2.1140  -14.5215  -39.9309 C.3       5 UNK         0.1400 
     48 CB          2.9395  -13.2180  -39.8443 C.3       5 UNK        -0.1800 
     49 N           1.2092  -14.4888  -41.0863 N.am      5 UNK        -0.5000 
     50 C           1.5534  -14.5264  -42.3830 C.2       4 UNK         0.5000 
     51 O           2.7209  -14.5818  -42.7758 O.2       4 UNK        -0.5000 
     52 CA          0.4194  -14.5306  -43.4302 C.3       4 UNK         0.1400 
     53 CB         -0.9999  -14.3570  -42.8459 C.3       4 UNK        -0.1800 
     54 N           0.6694  -13.5584  -44.4966 N.am      4 UNK        -0.5000 
     55 C           0.8175  -12.2291  -44.3684 C.2       3 UNK         0.5000 
     56 O           0.6943  -11.6257  -43.3014 O.2       3 UNK        -0.5000 
     57 CA          1.1685  -11.4228  -45.6387 C.3       3 UNK         0.1400 
     58 CB          2.6561  -11.0382  -45.6303 C.3       3 UNK        -0.1800 
     59 N           0.8765  -12.1312  -46.8851 N.am      3 UNK        -0.5000 
     60 C          -0.3543  -12.4021  -47.3431 C.2       2 UNK         0.5000 
     61 O          -1.3822  -11.9655  -46.8246 O.2       2 UNK        -0.5000 
     62 CA         -0.4671  -13.3404  -48.5635 C.3       2 UNK         0.1400 
     63 CB         -0.8250  -12.5517  -49.8317 C.3       2 UNK        -0.1800 
     64 N           0.7249  -14.1498  -48.8313 N.am      2 UNK        -0.5000 
     65 C           1.2918  -15.0279  -47.9900 C.2       1 UNK         0.5000 
     66 O           0.8659  -15.2619  -46.8595 O.2       1 UNK        -0.5000 
     67 C          -3.7333  -20.9593  -45.2722 C.2       11 UNK         0.5000 
     68 O          -4.8245  -21.0909  -45.8255 O.2       11 UNK        -0.5000 
     69 N          -3.3097  -21.7537  -44.2773 N.am      12 UNK        -0.5000 
     70 CA         -4.0368  -22.9072  -43.7403 C.3       12 UNK         0.1400 
     71 CB         -3.3194  -23.4043  -42.4763 C.3       12 UNK        -0.1800 
     72 C          -4.2103  -24.0592  -44.7522 C.2       12 UNK         0.5000 
     73 O          -5.1490  -24.8441  -44.6182 O.2       12 UNK        -0.5000 
     74 N          -3.3312  -24.1199  -45.7605 N.am      13 UNK        -0.5000 
     75 CA         -3.3907  -25.0435  -46.8947 C.3       13 UNK         0.1400 
     76 CB         -1.9577  -25.4978  -47.2254 C.3       13 UNK        -0.1800 
     77 C          -4.0766  -24.3999  -48.1203 C.2       13 UNK         0.5000 
     78 O          -3.8907  -24.8791  -49.2385 O.2       13 UNK        -0.5000 
     79 N          -4.8263  -23.3096  -47.8985 N.am      14 UNK        -0.5000 
     80 CA         -5.4094  -22.3719  -48.8625 C.3       14 UNK         0.1400 
     81 CB         -6.2499  -23.0641  -49.9559 C.3       14 UNK        -0.1800 
     82 C          -4.3384  -21.4413  -49.4509 C.2       14 UNK         0.5000 
     83 O          -4.4423  -20.2260  -49.3013 O.2       14 UNK        -0.5000 
     84 N          -3.3106  -22.0230  -50.0712 N.am      15 UNK        -0.5000 
     85 CA         -2.1411  -21.3317  -50.5911 C.3       15 UNK         0.1400 
     86 CB         -2.4757  -20.7144  -51.9625 C.3       15 UNK        -0.1800 
     87 C          -0.9706  -22.3219  -50.6751 C.2       15 UNK         0.5000 
     88 O          -1.1785  -23.5318  -50.5614 O.2       15 UNK        -0.5000 
     89 N           0.2412  -21.7960  -50.9085 N.am      16 UNK        -0.5000 
     90 CA          1.4565  -22.5849  -51.1429 C.3       16 UNK         0.1400 
     91 CB          2.6707  -21.6439  -51.1813 C.3       16 UNK        -0.1800 
     92 C           1.3660  -23.4215  -52.4355 C.2       16 UNK         0.5000 
     93 O           1.8217  -24.5650  -52.4631 O.2       16 UNK        -0.5000 
     94 N           0.7172  -22.8455  -53.4543 N.am      17 UNK        -0.5000 
     95 CA          0.1837  -23.5388  -54.6181 C.3       17 UNK         0.1400 
     96 CB          0.5867  -22.7754  -55.8920 C.3       17 UNK        -0.1800 
     97 C          -1.3369  -23.5736  -54.4133 C.2       17 UNK         0.5000 
     98 O          -2.0332  -22.6500  -54.8368 O.2       17 UNK        -0.5000 
     99 N          -1.8130  -24.5973  -53.6904 N.am      18 UNK        -0.5000 
    100 CA        -3.1785  -24.7280  -53.1603 C.3       18 UNK         0.1400 
    101 CB        -3.2960  -26.0606  -52.4076 C.3       18 UNK        -0.1800 
    102 C         -4.3103  -24.5947  -54.1981 C.2       18 UNK         0.5000 
    103 O         -5.4098  -24.1690  -53.8424 O.2       18 UNK        -0.5000 
    104 N         -4.0043  -24.8997  -55.4672 N.am      19 UNK        -0.5000 
    105 CA        -4.8675  -24.7094  -56.6355 C.3       19 UNK         0.1400 
    106 CB        -4.1486  -25.2676  -57.8733 C.3       19 UNK        -0.1800 
    107 C         -5.3038  -23.2477  -56.8798 C.2       19 UNK         0.5000 
    108 O         -6.3061  -23.0325  -57.5625 O.2       19 UNK        -0.5000 
    109 N         -4.5769  -22.2733  -56.3085 N.am      20 UNK        -0.5000 
    110 CA        -4.9496  -20.8562  -56.2913 C.3       20 UNK         0.1400 
    111 CB        -3.7680  -20.0285  -55.7630 C.3       20 UNK        -0.1800 
    112 C         -6.2193  -20.5679  -55.4620 C.2       20 UNK         0.5000 
    113 O         -6.8950  -19.5750  -55.7339 O.2       20 UNK        -0.5000 
    114 N         -6.5240  -21.4428  -54.4880 N.am      21 UNK        -0.5000 
    115 CA        -7.7304  -21.4626  -53.6532 C.3       21 UNK         0.1400 
    116 CB        -8.9540  -21.8656  -54.5023 C.3       21 UNK        -0.1800 
    117 C         -7.9589  -20.1674  -52.8426 C.2       21 UNK         0.5000 
    118 O         -9.0977  -19.7128  -52.7114 O.2       21 UNK        -0.5000 
    119 N         -6.8681  -19.5927  -52.3193 N.am      22 UNK        -0.5000 
    120 CA        -6.8861  -18.4136  -51.4390 C.3       22 UNK         0.1400 
    121 C         -7.4502  -18.7108  -50.0122 C.2       22 UNK         0.5000 
    122 N         -7.6167  -17.6926  -49.1795 N.am      22 UNK        -0.7600 
    123 O         -7.7536  -19.8452  -49.6485 O.2       22 UNK        -0.5000 
    124 C124       -5.4981  -17.7157  -51.4210 C.3       23 UNK        -0.0398 
    125 S125       -5.6009  -15.9266  -51.0765 S.3       23 UNK        -0.2404 
    126 C126       -3.8500  -15.4374  -51.1842 C.3       23 UNK        -0.0205 
    127 H127        4.5886  -13.7903  -51.3637 H         1 UNK         0.0600 
    128 H128        5.6332  -12.9251  -50.2325 H         1 UNK         0.0600 
    129 H129        4.1249  -12.1879  -50.7834 H         1 UNK         0.0600 
    130 H130        3.4150  -15.4185  -50.3783 H         1 UNK         0.3000 
    131 H131        3.2416  -15.7270  -47.5818 H         1 UNK         0.0600 
    132 H132        3.3159  -17.7074  -48.8907 H         1 UNK         0.0800 
    133 H133        1.7752  -17.7075  -48.0995 H         1 UNK         0.0800 
    134 H134       -0.1893  -18.9208  -51.0329 H         1 UNK         0.0800 
    135 H135        0.3446  -19.1658  -49.3865 H         1 UNK         0.0800 
    136 H136       -1.7292  -17.0889  -51.6362 H         1 UNK         0.1150 
    137 H137       -3.9850  -15.3032  -48.4636 H         1 UNK         0.1150 
    138 H138       -0.6102  -17.8052  -47.5745 H         1 UNK         0.1150 
    139 H139       -2.1798  -15.1877  -46.2080 H         1 UNK         0.0800 
    140 H140       -3.6216  -16.1663  -46.1390 H         1 UNK         0.0800 
    141 H141       -3.9385  -18.1873  -45.0151 H         1 UNK         0.0800 
    142 H142       -2.8713  -18.8491  -43.8143 H         1 UNK         0.0800 
    143 H143       -3.0196  -19.6050  -46.7719 H         1 UNK         0.0600 
    144 H144       -0.7086  -19.8900  -45.1644 H         1 UNK         0.3000 
    145 H145        0.6089  -22.8423  -46.7254 H         1 UNK         0.0600 
    146 H146        2.5248  -21.2276  -47.0097 H         1 UNK         0.0600 
    147 H147        1.3796  -19.8875  -46.9576 H         1 UNK         0.0600 
    148 H148        1.2931  -21.0736  -48.2507 H         1 UNK         0.0600 
    149 H149        1.3415  -20.9368  -44.6193 H         1 UNK         0.3000 
    150 H150        0.1069  -22.9617  -41.9740 H         1 UNK         0.0600 
    151 H151        2.2419  -24.1701  -42.4615 H         1 UNK         0.0600 
    152 H152        2.4512  -23.0056  -41.1635 H         1 UNK         0.0600 
    153 H153        3.0482  -22.6392  -42.7826 H         1 UNK         0.0600 
    154 H154        1.8005  -20.6605  -41.9915 H         1 UNK         0.3000 
    155 H155       -0.5897  -18.1919  -42.6696 H         1 UNK         0.0600 
    156 H156       -1.2248  -18.6601  -40.3014 H         1 UNK         0.0600 
    157 H157       -0.1596  -17.2722  -40.4355 H         1 UNK         0.0600 
    158 H158        0.4750  -18.8218  -39.8763 H         1 UNK         0.0600 
    159 H159        2.0043  -17.8772  -41.6363 H         1 UNK         0.3000 
    160 H160        4.0615  -18.7866  -44.0334 H         1 UNK         0.0600 
    161 H161        2.8451  -16.1367  -44.9611 H         1 UNK         0.0600 
    162 H162        3.2223  -17.5368  -45.9543 H         1 UNK         0.0600 
    163 H163        4.5229  -16.6179  -45.2150 H         1 UNK         0.0600 
    164 H164        3.7485  -16.2119  -42.6043 H         1 UNK         0.3000 
    165 H165        5.1486  -17.4400  -39.6138 H         1 UNK         0.0600 
    166 H166        6.9187  -15.7244  -39.9132 H         1 UNK         0.0600 
    167 H167        7.2727  -17.1363  -40.8959 H         1 UNK         0.0600 
    168 H168        6.6239  -15.6859  -41.6523 H         1 UNK         0.0600 
    169 H169        4.5971  -14.7905  -40.5728 H         1 UNK         0.3000 
    170 H170        1.4855  -14.5728  -39.0407 H         1 UNK         0.0600 
    171 H171        3.5571  -13.0520  -40.7273 H         1 UNK         0.0600 
    172 H172        2.2842  -12.3533  -39.7394 H         1 UNK         0.0600 
    173 H173        3.5982  -13.2284  -38.9749 H         1 UNK         0.0600 
    174 H174        0.2247  -14.4599  -40.8626 H         1 UNK         0.3000 
    175 H175        0.4591  -15.5110  -43.9067 H         1 UNK         0.0600 
    176 H176       -1.1115  -13.4168  -42.3048 H         1 UNK         0.0600 
    177 H177       -1.7479  -14.3706  -43.6389 H         1 UNK         0.0600 
    178 H178       -1.2486  -15.1714  -42.1644 H         1 UNK         0.0600 
    179 H179        0.8003  -13.9712  -45.4159 H         1 UNK         0.3000 
    180 H180        0.5768  -10.5053  -45.6203 H         1 UNK         0.0600 
    181 H181        2.9105  -10.4216  -46.4926 H         1 UNK         0.0600 
    182 H182        3.2974  -11.9206  -45.6481 H         1 UNK         0.0600 
    183 H183        2.9082  -10.4670  -44.7360 H         1 UNK         0.0600 
    184 H184        1.6704  -12.5258  -47.3740 H         1 UNK         0.3000 
    185 H185       -1.2847  -14.0264  -48.3512 H         1 UNK         0.0600 
    186 H186       -1.0164  -13.2219  -50.6702 H         1 UNK         0.0600 
    187 H187       -1.7274  -11.9575  -49.6820 H         1 UNK         0.0600 
    188 H188       -0.0245  -11.8690  -50.1193 H         1 UNK         0.0600 
    189 H189        1.1589  -14.0222  -49.7333 H         1 UNK         0.3000 
    190 H190       -2.4325  -21.5226  -43.8192 H         1 UNK         0.3000 
    191 H191       -5.0350  -22.5682  -43.4561 H         1 UNK         0.0600 
    192 H192       -3.2482  -22.6162  -41.7264 H         1 UNK         0.0600 
    193 H193       -2.3088  -23.7482  -42.6978 H         1 UNK         0.0600 
    194 H194       -3.8578  -24.2373  -42.0224 H         1 UNK         0.0600 
    195 H195       -2.6094  -23.4127  -45.8130 H         1 UNK         0.3000 
    196 H196       -3.9717  -25.9275  -46.6254 H         1 UNK         0.0600 
    197 H197       -1.4649  -25.9213  -46.3500 H         1 UNK         0.0600 
    198 H198       -1.3466  -24.6693  -47.5855 H         1 UNK         0.0600 
    199 H199       -1.9571  -26.2646  -48.0010 H         1 UNK         0.0600 
    200 H200       -4.8583  -22.9697  -46.9454 H         1 UNK         0.3000 
    201 H201       -6.0897  -21.7460  -48.2827 H         1 UNK         0.0600 
    202 H202       -6.8018  -22.3237  -50.5347 H         1 UNK         0.0600 
    203 H203       -6.9800  -23.7461  -49.5207 H         1 UNK         0.0600 
    204 H204       -5.6385  -23.6280  -50.6608 H         1 UNK         0.0600 
    205 H205       -3.2385  -23.0372  -50.0629 H         1 UNK         0.3000 
    206 H206       -1.8567  -20.5445  -49.8903 H         1 UNK         0.0600 
    207 H207       -2.9147  -21.4534  -52.6319 H         1 UNK         0.0600 
    208 H208       -3.1895  -19.8972  -51.8601 H         1 UNK         0.0600 
    209 H209       -1.5931  -20.3082  -52.4562 H         1 UNK         0.0600 
    210 H210        0.3389  -20.7973  -50.9977 H         1 UNK         0.3000 
    211 H211        1.5803  -23.2745  -50.3051 H         1 UNK         0.0600 
    212 H212        2.5913  -20.9131  -51.9872 H         1 UNK         0.0600 
    213 H213        3.5929  -22.2052  -51.3375 H         1 UNK         0.0600 
    214 H214        2.7800  -21.0975  -50.2445 H         1 UNK         0.0600 
    215 H215        0.3640  -21.9103  -53.3155 H         1 UNK         0.3000 
    216 H216        0.5603  -24.5614  -54.6879 H         1 UNK         0.0600 
    217 H217        0.1557  -23.2429  -56.7781 H         1 UNK         0.0600 
    218 H218        1.6693  -22.7716  -56.0188 H         1 UNK         0.0600 
    219 H219        0.2512  -21.7376  -55.8712 H         1 UNK         0.0600 
    220 H220       -1.1533  -25.2862  -53.3582 H         1 UNK         0.3000 
    221 H221       -3.3190  -23.9226  -52.4373 H         1 UNK         0.0600 
    222 H222       -3.1200  -26.9127  -53.0651 H         1 UNK         0.0600 
    223 H223       -2.5801  -26.1114  -51.5866 H         1 UNK         0.0600 
    224 H224       -4.2895  -26.1774  -51.9719 H         1 UNK         0.0600 
    225 H225       -3.0677  -25.2256  -55.6539 H         1 UNK         0.3000 
    226 H226       -5.7752  -25.2934  -56.4713 H         1 UNK         0.0600 
    227 H227       -3.9148  -26.3255  -57.7516 H         1 UNK         0.0600 
    228 H228       -4.7723  -25.1753  -58.7636 H         1 UNK         0.0600 
    229 H229       -3.2162  -24.7364  -58.0690 H         1 UNK         0.0600 
    230 H230       -3.7408  -22.5232  -55.7873 H         1 UNK         0.3000 
    231 H231       -5.1496  -20.5484  -57.3197 H         1 UNK         0.0600 
    232 H232       -3.9931  -18.9617  -55.7922 H         1 UNK         0.0600 
    233 H233       -2.8725  -20.1895  -56.3635 H         1 UNK         0.0600 
    234 H234       -3.5283  -20.2847  -54.7311 H         1 UNK         0.0600 
    235 H235       -5.9119  -22.2422  -54.3620 H         1 UNK         0.3000 
    236 H236       -7.5728  -22.2527  -52.9179 H         1 UNK         0.0600 
    237 H237       -9.2035  -21.1014  -55.2391 H         1 UNK         0.0600 
    238 H238       -8.7715  -22.7984  -55.0363 H         1 UNK         0.0600 
    239 H239       -9.8339  -22.0185  -53.8763 H         1 UNK         0.0600 
    240 H240       -5.9751  -20.0394  -52.4581 H         1 UNK         0.3000 
    241 H241       -7.5941  -17.7186  -51.8949 H         1 UNK         0.0600 
    242 H242       -7.3453  -16.7580  -49.4466 H         1 UNK         0.3800 
    243 H243       -7.9827  -17.8655  -48.2568 H         1 UNK         0.3800 
    244 H244       -5.0114  -17.8214  -52.3918 H         1 UNK         0.0800 
    245 H245       -4.8310  -18.1831  -50.6982 H         1 UNK         0.0800 
    246 H246       -3.4930  -15.6259  -52.1978 H         1 UNK         0.0800 
    247 H247       -3.7764  -14.3599  -51.0309 H         1 UNK         0.0800 
@<TRIPOS>BOND
     1    1    2 1    
     2    1  127 1    
     3    1  128 1    
     4    1  129 1    
     5    2    3 2    
     6    2    4 am   BACKBONE|DICT|INTERRES
     7    4    5 1    
     8    4  130 1    
     9    5    6 1    
    10    5   65 1    
    11    5  131 1    
    12    6    7 1    
    13    6  132 1    
    14    6  133 1    
    15    7    8 1    
    16    8    9 1    
    17    8  134 1    
    18    8  135 1    
    19    9   10 ar   
    20    9   14 ar   
    21   10   11 ar   
    22   10  136 1    
    23   11   12 ar   
    24   11  126 1    
    25   12   13 ar   
    26   12  137 1    
    27   13   14 ar   
    28   13   15 1    
    29   14  138 1    
    30   15   16 1    
    31   15  139 1    
    32   15  140 1    
    33   16   17 1    
    34   17   18 1    
    35   17  141 1    
    36   17  142 1    
    37   18   19 1    
    38   18   67 1    
    39   18  143 1    
    40   19   20 am   BACKBONE|DICT|INTERRES
    41   19  144 1    
    42   20   21 2    
    43   20   22 1    
    44   22   23 1    
    45   22   24 1    
    46   22  145 1    
    47   23  146 1    
    48   23  147 1    
    49   23  148 1    
    50   24   25 am   BACKBONE|DICT|INTERRES
    51   24  149 1    
    52   25   26 2    
    53   25   27 1    
    54   27   28 1    
    55   27   29 1    
    56   27  150 1    
    57   28  151 1    
    58   28  152 1    
    59   28  153 1    
    60   29   30 am   BACKBONE|DICT|INTERRES
    61   29  154 1    
    62   30   31 2    
    63   30   32 1    
    64   32   33 1    
    65   32   34 1    
    66   32  155 1    
    67   33  156 1    
    68   33  157 1    
    69   33  158 1    
    70   34   35 am   BACKBONE|DICT|INTERRES
    71   34  159 1    
    72   35   36 2    
    73   35   37 1    
    74   37   38 1    
    75   37   39 1    
    76   37  160 1    
    77   38  161 1    
    78   38  162 1    
    79   38  163 1    
    80   39   40 am   BACKBONE|DICT|INTERRES
    81   39  164 1    
    82   40   41 2    
    83   40   42 1    
    84   42   43 1    
    85   42   44 1    
    86   42  165 1    
    87   43  166 1    
    88   43  167 1    
    89   43  168 1    
    90   44   45 am   BACKBONE|DICT|INTERRES
    91   44  169 1    
    92   45   46 2    
    93   45   47 1    
    94   47   48 1    
    95   47   49 1    
    96   47  170 1    
    97   48  171 1    
    98   48  172 1    
    99   48  173 1    
   100   49   50 am   BACKBONE|DICT|INTERRES
   101   49  174 1    
   102   50   51 2    
   103   50   52 1    
   104   52   53 1    
   105   52   54 1    
   106   52  175 1    
   107   53  176 1    
   108   53  177 1    
   109   53  178 1    
   110   54   55 am   BACKBONE|DICT|INTERRES
   111   54  179 1    
   112   55   56 2    
   113   55   57 1    
   114   57   58 1    
   115   57   59 1    
   116   57  180 1    
   117   58  181 1    
   118   58  182 1    
   119   58  183 1    
   120   59   60 am   BACKBONE|DICT|INTERRES
   121   59  184 1    
   122   60   61 2    
   123   60   62 1    
   124   62   63 1    
   125   62   64 1    
   126   62  185 1    
   127   63  186 1    
   128   63  187 1    
   129   63  188 1    
   130   64   65 am   BACKBONE|DICT|INTERRES
   131   64  189 1    
   132   65   66 2    
   133   67   68 2    
   134   67   69 am   BACKBONE|DICT|INTERRES
   135   69   70 1    
   136   69  190 1    
   137   70   71 1    
   138   70   72 1    
   139   70  191 1    
   140   71  192 1    
   141   71  193 1    
   142   71  194 1    
   143   72   73 2    
   144   72   74 am   BACKBONE|DICT|INTERRES
   145   74   75 1    
   146   74  195 1    
   147   75   76 1    
   148   75   77 1    
   149   75  196 1    
   150   76  197 1    
   151   76  198 1    
   152   76  199 1    
   153   77   78 2    
   154   77   79 am   BACKBONE|DICT|INTERRES
   155   79   80 1    
   156   79  200 1    
   157   80   81 1    
   158   80   82 1    
   159   80  201 1    
   160   81  202 1    
   161   81  203 1    
   162   81  204 1    
   163   82   83 2    
   164   82   84 am   BACKBONE|DICT|INTERRES
   165   84   85 1    
   166   84  205 1    
   167   85   86 1    
   168   85   87 1    
   169   85  206 1    
   170   86  207 1    
   171   86  208 1    
   172   86  209 1    
   173   87   88 2    
   174   87   89 am   BACKBONE|DICT|INTERRES
   175   89   90 1    
   176   89  210 1    
   177   90   91 1    
   178   90   92 1    
   179   90  211 1    
   180   91  212 1    
   181   91  213 1    
   182   91  214 1    
   183   92   93 2    
   184   92   94 am   BACKBONE|DICT|INTERRES
   185   94   95 1    
   186   94  215 1    
   187   95   96 1    
   188   95   97 1    
   189   95  216 1    
   190   96  217 1    
   191   96  218 1    
   192   96  219 1    
   193   97   98 2    
   194   97   99 am   BACKBONE|DICT|INTERRES
   195   99  100 1    
   196   99  220 1    
   197  100  101 1    
   198  100  102 1    
   199  100  221 1    
   200  101  222 1    
   201  101  223 1    
   202  101  224 1    
   203  102  103 2    
   204  102  104 am   BACKBONE|DICT|INTERRES
   205  104  105 1    
   206  104  225 1    
   207  105  106 1    
   208  105  107 1    
   209  105  226 1    
   210  106  227 1    
   211  106  228 1    
   212  106  229 1    
   213  107  108 2    
   214  107  109 am   BACKBONE|DICT|INTERRES
   215  109  110 1    
   216  109  230 1    
   217  110  111 1    
   218  110  112 1    
   219  110  231 1    
   220  111  232 1    
   221  111  233 1    
   222  111  234 1    
   223  112  113 2    
   224  112  114 am   BACKBONE|DICT|INTERRES
   225  114  115 1    
   226  114  235 1    
   227  115  116 1    
   228  115  117 1    
   229  115  236 1    
   230  116  237 1    
   231  116  238 1    
   232  116  239 1    
   233  117  118 2    
   234  117  119 am   BACKBONE|DICT|INTERRES
   235  119  120 1    
   236  119  240 1    
   237  120  121 1    
   238  120  124 1    
   239  120  241 1    
   240  121  122 am   BACKBONE|DICT|INTERRES
   241  121  123 2    
   242  122  242 1    
   243  122  243 1    
   244  124  125 1    
   245  124  244 1    
   246  124  245 1    
   247  125  126 1    
   248  126  246 1    
   249  126  247 1    
@<TRIPOS>SUBSTRUCTURE
     1 UNK         1 GROUP             0       ****    0 ROOT    
