@<TRIPOS>MOLECULE
3R540
247   249    1
SMALL
USER_CHARGES


@<TRIPOS>ATOM
      1 CA          5.2331  -13.7655  -47.0558 C.3       0 UNK        -0.1800 
      2 C           4.1579  -12.9971  -46.3040 C.2       0 UNK         0.5000 
      3 O           4.3997  -12.5369  -45.1881 O.2       0 UNK        -0.5000 
      4 N           2.9736  -12.8436  -46.9119 N.am      1 UNK        -0.5000 
      5 CA          1.7754  -12.2181  -46.3290 C.3       1 UNK         0.1400 
      6 C6          0.5504  -12.3174  -47.2681 C.3       23 UNK        -0.0398 
      7 S7          0.0725  -14.0405  -47.6188 S.3       23 UNK        -0.2404 
      8 C8          0.5649  -14.2086  -49.3594 C.3       23 UNK        -0.0205 
      9 C9          0.0865  -15.5258  -49.9491 C.ar      23 UNK        -0.0193 
     10 C10        -1.2158  -15.6337  -50.4428 C.ar      23 UNK        -0.1150 
     11 C11        -1.6576  -16.8199  -51.0339 C.ar      23 UNK        -0.0193 
     12 C12        -0.7860  -17.9093  -51.1259 C.ar      23 UNK        -0.1150 
     13 C13         0.5228  -17.8122  -50.6413 C.ar      23 UNK        -0.0193 
     14 C14         0.9500  -16.6214  -50.0440 C.ar      23 UNK        -0.1150 
     15 C15         1.4953  -18.9708  -50.8144 C.3       23 UNK        -0.0205 
     16 S16         1.6568  -19.9767  -49.3082 S.3       23 UNK        -0.2404 
     17 C17         0.0322  -20.7988  -49.2619 C.3       23 UNK        -0.0398 
     18 CA          0.0155  -22.0094  -48.2983 C.3       11 UNK         0.1400 
     19 N           0.1109  -21.6182  -46.8874 N.am      11 UNK        -0.5000 
     20 C           0.2206  -22.4700  -45.8568 C.2       10 UNK         0.5000 
     21 O           0.3152  -23.6898  -45.9850 O.2       10 UNK        -0.5000 
     22 CA          0.1466  -21.8705  -44.4401 C.3       10 UNK         0.1400 
     23 CB          1.4831  -21.2352  -44.0298 C.3       10 UNK        -0.1800 
     24 N          -0.9366  -20.8955  -44.3095 N.am      10 UNK        -0.5000 
     25 C          -2.2375  -21.1950  -44.4365 C.2       9 UNK         0.5000 
     26 O          -2.6622  -22.3374  -44.6054 O.2       9 UNK        -0.5000 
     27 CA         -3.2288  -20.0195  -44.4200 C.3       9 UNK         0.1400 
     28 CB         -3.6312  -19.6559  -42.9828 C.3       9 UNK        -0.1800 
     29 N          -2.6956  -18.8398  -45.0994 N.am      9 UNK        -0.5000 
     30 C          -2.4944  -18.7567  -46.4221 C.2       8 UNK         0.5000 
     31 O          -2.7612  -19.6620  -47.2125 O.2       8 UNK        -0.5000 
     32 CA         -1.8437  -17.4578  -46.9327 C.3       8 UNK         0.1400 
     33 CB         -2.8830  -16.3275  -46.9869 C.3       8 UNK        -0.1800 
     34 N          -0.7084  -17.0338  -46.1094 N.am      8 UNK        -0.5000 
     35 C           0.4044  -17.7567  -45.9192 C.2       7 UNK         0.5000 
     36 O           0.6014  -18.8495  -46.4427 O.2       7 UNK        -0.5000 
     37 CA          1.4391  -17.2157  -44.9133 C.3       7 UNK         0.1400 
     38 CB          2.4525  -16.2918  -45.6031 C.3       7 UNK        -0.1800 
     39 N           0.8446  -16.5256  -43.7660 N.am      7 UNK        -0.5000 
     40 C          -0.0486  -17.0587  -42.9192 C.2       6 UNK         0.5000 
     41 O          -0.4618  -18.2148  -43.0168 O.2       6 UNK        -0.5000 
     42 CA         -0.5793  -16.1678  -41.7776 C.3       6 UNK         0.1400 
     43 CB         -0.2274  -16.7757  -40.4108 C.3       6 UNK        -0.1800 
     44 N          -0.0857  -14.7898  -41.8119 N.am      6 UNK        -0.5000 
     45 C          -0.4679  -13.8241  -42.6546 C.2       5 UNK         0.5000 
     46 O          -1.2888  -13.9978  -43.5548 O.2       5 UNK        -0.5000 
     47 CA          0.2061  -12.4448  -42.4897 C.3       5 UNK         0.1400 
     48 CB         -0.4243  -11.6511  -41.3302 C.3       5 UNK        -0.1800 
     49 N           1.6744  -12.4898  -42.3757 N.am      5 UNK        -0.5000 
     50 C           2.4310  -13.0318  -41.4084 C.2       4 UNK         0.5000 
     51 O           1.9771  -13.5638  -40.3947 O.2       4 UNK        -0.5000 
     52 CA          3.9518  -13.0278  -41.6269 C.3       4 UNK         0.1400 
     53 CB          4.3890  -14.3561  -42.2641 C.3       4 UNK        -0.1800 
     54 N           4.4126  -11.9263  -42.4722 N.am      4 UNK        -0.5000 
     55 C           4.7021  -10.7006  -42.0173 C.2       3 UNK         0.5000 
     56 O           4.5086  -10.3415  -40.8552 O.2       3 UNK        -0.5000 
     57 CA          5.3339   -9.7177  -43.0145 C.3       3 UNK         0.1400 
     58 CB          6.7950  -10.1023  -43.3006 C.3       3 UNK        -0.1800 
     59 N           4.5960   -9.6731  -44.2766 N.am      3 UNK        -0.5000 
     60 C           4.0366   -8.5687  -44.7920 C.2       2 UNK         0.5000 
     61 O           4.0594   -7.4684  -44.2384 O.2       2 UNK        -0.5000 
     62 CA          3.3437   -8.6919  -46.1658 C.3       2 UNK         0.1400 
     63 CB          4.2582   -8.1512  -47.2760 C.3       2 UNK        -0.1800 
     64 N           2.9464  -10.0572  -46.5100 N.am      2 UNK        -0.5000 
     65 C           1.9824  -10.7516  -45.8918 C.2       1 UNK         0.5000 
     66 O           1.2883  -10.2906  -44.9867 O.2       1 UNK        -0.5000 
     67 C          -1.2224  -22.8863  -48.5638 C.2       11 UNK         0.5000 
     68 O          -1.0908  -23.9268  -49.2082 O.2       11 UNK        -0.5000 
     69 N          -2.3845  -22.4780  -48.0326 N.am      12 UNK        -0.5000 
     70 CA         -3.6421  -23.2210  -48.1235 C.3       12 UNK         0.1400 
     71 CB         -4.7737  -22.4039  -47.4829 C.3       12 UNK        -0.1800 
     72 C          -3.5549  -24.6186  -47.4858 C.2       12 UNK         0.5000 
     73 O          -3.9704  -25.5956  -48.1089 O.2       12 UNK        -0.5000 
     74 N          -2.9836  -24.6915  -46.2757 N.am      13 UNK        -0.5000 
     75 CA         -2.7583  -25.9319  -45.5346 C.3       13 UNK         0.1400 
     76 CB         -2.3005  -25.5988  -44.1065 C.3       13 UNK        -0.1800 
     77 C          -1.7525  -26.8723  -46.2227 C.2       13 UNK         0.5000 
     78 O          -1.9830  -28.0816  -46.2534 O.2       13 UNK        -0.5000 
     79 N          -0.6664  -26.3054  -46.7666 N.am      14 UNK        -0.5000 
     80 CA          0.3715  -27.0348  -47.4947 C.3       14 UNK         0.1400 
     81 CB          1.5884  -26.1229  -47.7141 C.3       14 UNK        -0.1800 
     82 C          -0.1293  -27.6027  -48.8336 C.2       14 UNK         0.5000 
     83 O           0.1740  -28.7530  -49.1538 O.2       14 UNK        -0.5000 
     84 N          -0.8840  -26.7927  -49.5882 N.am      15 UNK        -0.5000 
     85 CA         -1.4636  -27.1783  -50.8733 C.3       15 UNK         0.1400 
     86 CB         -1.9190  -25.9199  -51.6267 C.3       15 UNK        -0.1800 
     87 C          -2.6394  -28.1575  -50.7298 C.2       15 UNK         0.5000 
     88 O          -2.7697  -29.0642  -51.5529 O.2       15 UNK        -0.5000 
     89 N          -3.4856  -27.9288  -49.7125 N.am      16 UNK        -0.5000 
     90 CA         -4.7780  -28.5830  -49.4729 C.3       16 UNK         0.1400 
     91 CB         -4.5881  -30.0708  -49.1121 C.3       16 UNK        -0.1800 
     92 C          -5.7715  -28.3562  -50.6357 C.2       16 UNK         0.5000 
     93 O          -6.5888  -29.2274  -50.9394 O.2       16 UNK        -0.5000 
     94 N          -5.6630  -27.1869  -51.2764 N.am      17 UNK        -0.5000 
     95 CA         -6.3747  -26.7736  -52.4782 C.3       17 UNK         0.1400 
     96 CB         -5.8012  -27.5108  -53.7044 C.3       17 UNK        -0.1800 
     97 C          -6.2172  -25.2542  -52.6341 C.2       17 UNK         0.5000 
     98 O          -5.3902  -24.6451  -51.9466 O.2       17 UNK        -0.5000 
     99 N          -6.9875  -24.6707  -53.5604 N.am      18 UNK        -0.5000 
    100 CA        -7.0442  -23.2378  -53.8697 C.3       18 UNK         0.1400 
    101 CB        -8.3794  -22.9400  -54.5756 C.3       18 UNK        -0.1800 
    102 C         -5.8263  -22.7104  -54.6669 C.2       18 UNK         0.5000 
    103 O         -5.9943  -21.9184  -55.5972 O.2       18 UNK        -0.5000 
    104 N         -4.6153  -23.1377  -54.2854 N.am      19 UNK        -0.5000 
    105 CA        -3.3337  -22.6582  -54.8035 C.3       19 UNK         0.1400 
    106 CB        -2.1949  -23.4380  -54.1328 C.3       19 UNK        -0.1800 
    107 C         -3.1743  -21.1477  -54.5594 C.2       19 UNK         0.5000 
    108 O         -3.2695  -20.7075  -53.4094 O.2       19 UNK        -0.5000 
    109 N         -3.0145  -20.3862  -55.6511 N.am      20 UNK        -0.5000 
    110 CA        -2.9833  -18.9175  -55.7049 C.3       20 UNK         0.1400 
    111 CB        -1.6957  -18.3817  -55.0441 C.3       20 UNK        -0.1800 
    112 C         -4.2678  -18.2492  -55.1567 C.2       20 UNK         0.5000 
    113 O         -4.2170  -17.1053  -54.7060 O.2       20 UNK        -0.5000 
    114 N         -5.3881  -18.9886  -55.1954 N.am      21 UNK        -0.5000 
    115 CA        -6.7053  -18.6825  -54.6258 C.3       21 UNK         0.1400 
    116 CB        -7.2684  -17.3474  -55.1567 C.3       21 UNK        -0.1800 
    117 C         -6.7728  -18.7835  -53.0850 C.2       21 UNK         0.5000 
    118 O         -7.8215  -18.4718  -52.5184 O.2       21 UNK        -0.5000 
    119 N         -5.6970  -19.2483  -52.4357 N.am      22 UNK        -0.5000 
    120 CA        -5.6510  -19.5549  -50.9973 C.3       22 UNK         0.1400 
    121 C         -5.7788  -21.0807  -50.7783 C.2       22 UNK         0.5000 
    122 N         -4.9027  -21.8818  -51.3698 N.am      22 UNK        -0.7600 
    123 O         -6.6911  -21.5409  -50.0989 O.2       22 UNK        -0.5000 
    124 C124       -4.3779  -19.0029  -50.3079 C.3       23 UNK        -0.0398 
    125 S125       -4.3211  -17.1817  -50.3467 S.3       23 UNK        -0.2404 
    126 C126       -3.0586  -16.8922  -51.6195 C.3       23 UNK        -0.0205 
    127 H127        6.1075  -13.1332  -47.2089 H         1 UNK         0.0600 
    128 H128        4.8820  -14.1067  -48.0299 H         1 UNK         0.0600 
    129 H129        5.5381  -14.6384  -46.4788 H         1 UNK         0.0600 
    130 H130        2.8458  -13.2402  -47.8307 H         1 UNK         0.3000 
    131 H131        1.5436  -12.7783  -45.4210 H         1 UNK         0.0600 
    132 H132       -0.3184  -11.8379  -46.8124 H         1 UNK         0.0800 
    133 H133        0.7343  -11.7823  -48.2013 H         1 UNK         0.0800 
    134 H134        0.1479  -13.3826  -49.9377 H         1 UNK         0.0800 
    135 H135        1.6493  -14.1284  -49.4432 H         1 UNK         0.0800 
    136 H136       -1.8847  -14.7869  -50.3783 H         1 UNK         0.1150 
    137 H137       -1.1182  -18.8240  -51.5965 H         1 UNK         0.1150 
    138 H138        1.9621  -16.5424  -49.6727 H         1 UNK         0.1150 
    139 H139        1.1934  -19.6053  -51.6493 H         1 UNK         0.0800 
    140 H140        2.4788  -18.5785  -51.0771 H         1 UNK         0.0800 
    141 H141       -0.2078  -21.1153  -50.2790 H         1 UNK         0.0800 
    142 H142       -0.7257  -20.0665  -48.9791 H         1 UNK         0.0800 
    143 H143        0.8886  -22.6276  -48.5180 H         1 UNK         0.0600 
    144 H144        0.1068  -20.6176  -46.6992 H         1 UNK         0.3000 
    145 H145       -0.0624  -22.6862  -43.7448 H         1 UNK         0.0600 
    146 H146        1.4232  -20.7924  -43.0354 H         1 UNK         0.0600 
    147 H147        2.2750  -21.9847  -44.0071 H         1 UNK         0.0600 
    148 H148        1.7942  -20.4577  -44.7259 H         1 UNK         0.0600 
    149 H149       -0.6764  -19.9314  -44.1312 H         1 UNK         0.3000 
    150 H150       -4.1289  -20.3356  -44.9512 H         1 UNK         0.0600 
    151 H151       -4.0790  -20.5127  -42.4779 H         1 UNK         0.0600 
    152 H152       -4.3663  -18.8511  -42.9704 H         1 UNK         0.0600 
    153 H153       -2.7750  -19.3382  -42.3876 H         1 UNK         0.0600 
    154 H154       -2.3782  -18.0831  -44.5113 H         1 UNK         0.3000 
    155 H155       -1.4802  -17.6433  -47.9459 H         1 UNK         0.0600 
    156 H156       -3.1582  -15.9815  -45.9900 H         1 UNK         0.0600 
    157 H157       -2.5072  -15.4731  -47.5483 H         1 UNK         0.0600 
    158 H158       -3.7975  -16.6567  -47.4806 H         1 UNK         0.0600 
    159 H159       -0.7893  -16.1403  -45.6459 H         1 UNK         0.3000 
    160 H160        1.9860  -18.0756  -44.5230 H         1 UNK         0.0600 
    161 H161        2.0000  -15.3435  -45.8863 H         1 UNK         0.0600 
    162 H162        2.8513  -16.7500  -46.5094 H         1 UNK         0.0600 
    163 H163        3.2985  -16.0779  -44.9508 H         1 UNK         0.0600 
    164 H164        1.1254  -15.5700  -43.6119 H         1 UNK         0.3000 
    165 H165       -1.6668  -16.1438  -41.8711 H         1 UNK         0.0600 
    166 H166       -0.6570  -16.1911  -39.5971 H         1 UNK         0.0600 
    167 H167        0.8518  -16.8204  -40.2583 H         1 UNK         0.0600 
    168 H168       -0.6156  -17.7910  -40.3185 H         1 UNK         0.0600 
    169 H169        0.6153  -14.5392  -41.1175 H         1 UNK         0.3000 
    170 H170       -0.0068  -11.8932  -43.4052 H         1 UNK         0.0600 
    171 H171       -1.4989  -11.5369  -41.4778 H         1 UNK         0.0600 
    172 H172       -0.2798  -12.1429  -40.3680 H         1 UNK         0.0600 
    173 H173        0.0023  -10.6503  -41.2628 H         1 UNK         0.0600 
    174 H174        2.1718  -12.0649  -43.1450 H         1 UNK         0.3000 
    175 H175        4.4276  -12.9524  -40.6467 H         1 UNK         0.0600 
    176 H176        3.9459  -14.4929  -43.2506 H         1 UNK         0.0600 
    177 H177        5.4725  -14.4018  -42.3755 H         1 UNK         0.0600 
    178 H178        4.0893  -15.2054  -41.6485 H         1 UNK         0.0600 
    179 H179        4.5720  -12.1501  -43.4528 H         1 UNK         0.3000 
    180 H180        5.3382   -8.7372  -42.5340 H         1 UNK         0.0600 
    181 H181        6.8688  -11.0680  -43.8026 H         1 UNK         0.0600 
    182 H182        7.3718  -10.1655  -42.3770 H         1 UNK         0.0600 
    183 H183        7.2781   -9.3592  -43.9352 H         1 UNK         0.0600 
    184 H184        4.5087  -10.5479  -44.7817 H         1 UNK         0.3000 
    185 H185        2.4434   -8.0745  -46.1337 H         1 UNK         0.0600 
    186 H186        4.5515   -7.1201  -47.0741 H         1 UNK         0.0600 
    187 H187        5.1717   -8.7403  -47.3667 H         1 UNK         0.0600 
    188 H188        3.7541   -8.1600  -48.2426 H         1 UNK         0.0600 
    189 H189        3.4777  -10.5159  -47.2357 H         1 UNK         0.3000 
    190 H190       -2.4178  -21.5865  -47.5471 H         1 UNK         0.3000 
    191 H191       -3.8702  -23.3520  -49.1827 H         1 UNK         0.0600 
    192 H192       -4.6356  -22.2877  -46.4087 H         1 UNK         0.0600 
    193 H193       -5.7374  -22.8900  -47.6389 H         1 UNK         0.0600 
    194 H194       -4.8388  -21.4074  -47.9181 H         1 UNK         0.0600 
    195 H195       -2.7014  -23.8304  -45.8145 H         1 UNK         0.3000 
    196 H196       -3.7127  -26.4585  -45.4703 H         1 UNK         0.0600 
    197 H197       -2.1359  -26.5071  -43.5257 H         1 UNK         0.0600 
    198 H198       -3.0504  -25.0074  -43.5808 H         1 UNK         0.0600 
    199 H199       -1.3684  -25.0325  -44.1051 H         1 UNK         0.0600 
    200 H200       -0.5202  -25.3065  -46.6477 H         1 UNK         0.3000 
    201 H201        0.6888  -27.8760  -46.8748 H         1 UNK         0.0600 
    202 H202        2.0099  -25.7943  -46.7640 H         1 UNK         0.0600 
    203 H203        1.3268  -25.2338  -48.2889 H         1 UNK         0.0600 
    204 H204        2.3773  -26.6457  -48.2562 H         1 UNK         0.0600 
    205 H205       -1.0503  -25.8374  -49.2807 H         1 UNK         0.3000 
    206 H206       -0.6899  -27.6677  -51.4688 H         1 UNK         0.0600 
    207 H207       -1.0778  -25.2557  -51.8252 H         1 UNK         0.0600 
    208 H208       -2.3655  -26.1808  -52.5868 H         1 UNK         0.0600 
    209 H209       -2.6633  -25.3565  -51.0620 H         1 UNK         0.0600 
    210 H210       -3.3078  -27.1275  -49.1131 H         1 UNK         0.3000 
    211 H211       -5.2116  -28.0874  -48.6033 H         1 UNK         0.0600 
    212 H212       -4.2253  -30.6524  -49.9597 H         1 UNK         0.0600 
    213 H213       -5.5293  -30.5170  -48.7894 H         1 UNK         0.0600 
    214 H214       -3.8765  -30.1883  -48.2945 H         1 UNK         0.0600 
    215 H215       -5.0135  -26.4910  -50.9300 H         1 UNK         0.3000 
    216 H216       -7.4359  -27.0032  -52.3642 H         1 UNK         0.0600 
    217 H217       -4.7378  -27.3037  -53.8328 H         1 UNK         0.0600 
    218 H218       -6.3083  -27.2120  -54.6222 H         1 UNK         0.0600 
    219 H219       -5.9196  -28.5904  -53.6119 H         1 UNK         0.0600 
    220 H220       -7.6037  -25.2561  -54.1055 H         1 UNK         0.3000 
    221 H221       -7.0571  -22.6929  -52.9252 H         1 UNK         0.0600 
    222 H222       -9.2262  -23.2727  -53.9752 H         1 UNK         0.0600 
    223 H223       -8.4395  -23.4344  -55.5459 H         1 UNK         0.0600 
    224 H224       -8.5075  -21.8696  -54.7420 H         1 UNK         0.0600 
    225 H225       -4.5790  -23.7564  -53.4830 H         1 UNK         0.3000 
    226 H226       -3.3063  -22.8581  -55.8764 H         1 UNK         0.0600 
    227 H227       -2.2671  -24.5028  -54.3529 H         1 UNK         0.0600 
    228 H228       -1.2227  -23.0977  -54.4913 H         1 UNK         0.0600 
    229 H229       -2.2074  -23.3137  -53.0490 H         1 UNK         0.0600 
    230 H230       -2.9798  -20.8472  -56.5500 H         1 UNK         0.3000 
    231 H231       -2.9427  -18.6510  -56.7619 H         1 UNK         0.0600 
    232 H232       -1.6560  -18.6163  -53.9815 H         1 UNK         0.0600 
    233 H233       -1.6184  -17.2984  -55.1439 H         1 UNK         0.0600 
    234 H234       -0.8092  -18.8110  -55.5105 H         1 UNK         0.0600 
    235 H235       -5.3158  -19.9262  -55.5767 H         1 UNK         0.3000 
    236 H236       -7.3619  -19.4715  -54.9946 H         1 UNK         0.0600 
    237 H237       -8.3217  -17.2389  -54.8957 H         1 UNK         0.0600 
    238 H238       -6.7443  -16.4879  -54.7384 H         1 UNK         0.0600 
    239 H239       -7.1976  -17.2914  -56.2429 H         1 UNK         0.0600 
    240 H240       -4.8825  -19.5266  -52.9697 H         1 UNK         0.3000 
    241 H241       -6.5054  -19.0954  -50.4963 H         1 UNK         0.0600 
    242 H242       -5.0185  -22.8863  -51.2881 H         1 UNK         0.3800 
    243 H243       -4.1808  -21.5043  -51.9764 H         1 UNK         0.3800 
    244 H244       -3.4735  -19.4197  -50.7538 H         1 UNK         0.0800 
    245 H245       -4.3621  -19.3019  -49.2595 H         1 UNK         0.0800 
    246 H246       -3.2857  -15.9578  -52.1346 H         1 UNK         0.0800 
    247 H247       -3.1180  -17.6738  -52.3757 H         1 UNK         0.0800 
@<TRIPOS>BOND
     1    1    2 1    
     2    1  127 1    
     3    1  128 1    
     4    1  129 1    
     5    2    3 2    
     6    2    4 am   BACKBONE|DICT|INTERRES
     7    4    5 1    
     8    4  130 1    
     9    5    6 1    
    10    5   65 1    
    11    5  131 1    
    12    6    7 1    
    13    6  132 1    
    14    6  133 1    
    15    7    8 1    
    16    8    9 1    
    17    8  134 1    
    18    8  135 1    
    19    9   10 ar   
    20    9   14 ar   
    21   10   11 ar   
    22   10  136 1    
    23   11   12 ar   
    24   11  126 1    
    25   12   13 ar   
    26   12  137 1    
    27   13   14 ar   
    28   13   15 1    
    29   14  138 1    
    30   15   16 1    
    31   15  139 1    
    32   15  140 1    
    33   16   17 1    
    34   17   18 1    
    35   17  141 1    
    36   17  142 1    
    37   18   19 1    
    38   18   67 1    
    39   18  143 1    
    40   19   20 am   BACKBONE|DICT|INTERRES
    41   19  144 1    
    42   20   21 2    
    43   20   22 1    
    44   22   23 1    
    45   22   24 1    
    46   22  145 1    
    47   23  146 1    
    48   23  147 1    
    49   23  148 1    
    50   24   25 am   BACKBONE|DICT|INTERRES
    51   24  149 1    
    52   25   26 2    
    53   25   27 1    
    54   27   28 1    
    55   27   29 1    
    56   27  150 1    
    57   28  151 1    
    58   28  152 1    
    59   28  153 1    
    60   29   30 am   BACKBONE|DICT|INTERRES
    61   29  154 1    
    62   30   31 2    
    63   30   32 1    
    64   32   33 1    
    65   32   34 1    
    66   32  155 1    
    67   33  156 1    
    68   33  157 1    
    69   33  158 1    
    70   34   35 am   BACKBONE|DICT|INTERRES
    71   34  159 1    
    72   35   36 2    
    73   35   37 1    
    74   37   38 1    
    75   37   39 1    
    76   37  160 1    
    77   38  161 1    
    78   38  162 1    
    79   38  163 1    
    80   39   40 am   BACKBONE|DICT|INTERRES
    81   39  164 1    
    82   40   41 2    
    83   40   42 1    
    84   42   43 1    
    85   42   44 1    
    86   42  165 1    
    87   43  166 1    
    88   43  167 1    
    89   43  168 1    
    90   44   45 am   BACKBONE|DICT|INTERRES
    91   44  169 1    
    92   45   46 2    
    93   45   47 1    
    94   47   48 1    
    95   47   49 1    
    96   47  170 1    
    97   48  171 1    
    98   48  172 1    
    99   48  173 1    
   100   49   50 am   BACKBONE|DICT|INTERRES
   101   49  174 1    
   102   50   51 2    
   103   50   52 1    
   104   52   53 1    
   105   52   54 1    
   106   52  175 1    
   107   53  176 1    
   108   53  177 1    
   109   53  178 1    
   110   54   55 am   BACKBONE|DICT|INTERRES
   111   54  179 1    
   112   55   56 2    
   113   55   57 1    
   114   57   58 1    
   115   57   59 1    
   116   57  180 1    
   117   58  181 1    
   118   58  182 1    
   119   58  183 1    
   120   59   60 am   BACKBONE|DICT|INTERRES
   121   59  184 1    
   122   60   61 2    
   123   60   62 1    
   124   62   63 1    
   125   62   64 1    
   126   62  185 1    
   127   63  186 1    
   128   63  187 1    
   129   63  188 1    
   130   64   65 am   BACKBONE|DICT|INTERRES
   131   64  189 1    
   132   65   66 2    
   133   67   68 2    
   134   67   69 am   BACKBONE|DICT|INTERRES
   135   69   70 1    
   136   69  190 1    
   137   70   71 1    
   138   70   72 1    
   139   70  191 1    
   140   71  192 1    
   141   71  193 1    
   142   71  194 1    
   143   72   73 2    
   144   72   74 am   BACKBONE|DICT|INTERRES
   145   74   75 1    
   146   74  195 1    
   147   75   76 1    
   148   75   77 1    
   149   75  196 1    
   150   76  197 1    
   151   76  198 1    
   152   76  199 1    
   153   77   78 2    
   154   77   79 am   BACKBONE|DICT|INTERRES
   155   79   80 1    
   156   79  200 1    
   157   80   81 1    
   158   80   82 1    
   159   80  201 1    
   160   81  202 1    
   161   81  203 1    
   162   81  204 1    
   163   82   83 2    
   164   82   84 am   BACKBONE|DICT|INTERRES
   165   84   85 1    
   166   84  205 1    
   167   85   86 1    
   168   85   87 1    
   169   85  206 1    
   170   86  207 1    
   171   86  208 1    
   172   86  209 1    
   173   87   88 2    
   174   87   89 am   BACKBONE|DICT|INTERRES
   175   89   90 1    
   176   89  210 1    
   177   90   91 1    
   178   90   92 1    
   179   90  211 1    
   180   91  212 1    
   181   91  213 1    
   182   91  214 1    
   183   92   93 2    
   184   92   94 am   BACKBONE|DICT|INTERRES
   185   94   95 1    
   186   94  215 1    
   187   95   96 1    
   188   95   97 1    
   189   95  216 1    
   190   96  217 1    
   191   96  218 1    
   192   96  219 1    
   193   97   98 2    
   194   97   99 am   BACKBONE|DICT|INTERRES
   195   99  100 1    
   196   99  220 1    
   197  100  101 1    
   198  100  102 1    
   199  100  221 1    
   200  101  222 1    
   201  101  223 1    
   202  101  224 1    
   203  102  103 2    
   204  102  104 am   BACKBONE|DICT|INTERRES
   205  104  105 1    
   206  104  225 1    
   207  105  106 1    
   208  105  107 1    
   209  105  226 1    
   210  106  227 1    
   211  106  228 1    
   212  106  229 1    
   213  107  108 2    
   214  107  109 am   BACKBONE|DICT|INTERRES
   215  109  110 1    
   216  109  230 1    
   217  110  111 1    
   218  110  112 1    
   219  110  231 1    
   220  111  232 1    
   221  111  233 1    
   222  111  234 1    
   223  112  113 2    
   224  112  114 am   BACKBONE|DICT|INTERRES
   225  114  115 1    
   226  114  235 1    
   227  115  116 1    
   228  115  117 1    
   229  115  236 1    
   230  116  237 1    
   231  116  238 1    
   232  116  239 1    
   233  117  118 2    
   234  117  119 am   BACKBONE|DICT|INTERRES
   235  119  120 1    
   236  119  240 1    
   237  120  121 1    
   238  120  124 1    
   239  120  241 1    
   240  121  122 am   BACKBONE|DICT|INTERRES
   241  121  123 2    
   242  122  242 1    
   243  122  243 1    
   244  124  125 1    
   245  124  244 1    
   246  124  245 1    
   247  125  126 1    
   248  126  246 1    
   249  126  247 1    
@<TRIPOS>SUBSTRUCTURE
     1 UNK         1 GROUP             0       ****    0 ROOT    
