@<TRIPOS>MOLECULE
3R540
247   249    1
SMALL
USER_CHARGES


@<TRIPOS>ATOM
      1 CA          0.9726  -10.2594  -40.9927 C.3       0 UNK        -0.1800 
      2 C           0.6826  -10.9624  -42.3113 C.2       0 UNK         0.5000 
      3 O           1.6118  -11.4390  -42.9623 O.2       0 UNK        -0.5000 
      4 N          -0.6004  -11.0332  -42.6950 N.am      1 UNK        -0.5000 
      5 CA         -1.1102  -11.6266  -43.9388 C.3       1 UNK         0.1400 
      6 C6         -0.7180  -13.1278  -44.0787 C.3       23 UNK        -0.0398 
      7 S7         -1.8045  -14.0945  -45.1872 S.3       23 UNK        -0.2404 
      8 C8         -0.5756  -14.6957  -46.3935 C.3       23 UNK        -0.0205 
      9 C9         -1.1802  -15.3955  -47.6051 C.ar      23 UNK        -0.0193 
     10 C10        -0.6388  -15.1512  -48.8694 C.ar      23 UNK        -0.1150 
     11 C11        -1.1563  -15.7725  -50.0084 C.ar      23 UNK        -0.0193 
     12 C12        -2.2517  -16.6345  -49.8736 C.ar      23 UNK        -0.1150 
     13 C13        -2.7870  -16.9152  -48.6132 C.ar      23 UNK        -0.0193 
     14 C14        -2.2427  -16.2980  -47.4822 C.ar      23 UNK        -0.1150 
     15 C15        -3.9567  -17.8820  -48.4750 C.3       23 UNK        -0.0205 
     16 S16        -3.4989  -19.5992  -48.8803 S.3       23 UNK        -0.2404 
     17 C17        -2.1579  -19.8923  -47.6839 C.3       23 UNK        -0.0398 
     18 CA         -1.7296  -21.3761  -47.6014 C.3       11 UNK         0.1400 
     19 N          -0.3511  -21.5072  -47.1302 N.am      11 UNK        -0.5000 
     20 C           0.3704  -22.6339  -47.1589 C.2       10 UNK         0.5000 
     21 O          -0.0493  -23.7022  -47.6026 O.2       10 UNK        -0.5000 
     22 CA          1.7781  -22.5709  -46.5366 C.3       10 UNK         0.1400 
     23 CB          2.7880  -21.9568  -47.5169 C.3       10 UNK        -0.1800 
     24 N           1.8012  -21.8328  -45.2715 N.am      10 UNK        -0.5000 
     25 C           1.1505  -22.2182  -44.1638 C.2       9 UNK         0.5000 
     26 O           0.5063  -23.2632  -44.0809 O.2       9 UNK        -0.5000 
     27 CA          1.1809  -21.2571  -42.9620 C.3       9 UNK         0.1400 
     28 CB          2.5009  -21.3860  -42.1876 C.3       9 UNK        -0.1800 
     29 N           0.9739  -19.8631  -43.3501 N.am      9 UNK        -0.5000 
     30 C          -0.1378  -19.3845  -43.9266 C.2       8 UNK         0.5000 
     31 O          -1.1413  -20.0588  -44.1528 O.2       8 UNK        -0.5000 
     32 CA         -0.0953  -17.9169  -44.3829 C.3       8 UNK         0.1400 
     33 CB         -0.3133  -16.9674  -43.1953 C.3       8 UNK        -0.1800 
     34 N           1.1603  -17.5935  -45.0629 N.am      8 UNK        -0.5000 
     35 C           1.5593  -18.1548  -46.2140 C.2       7 UNK         0.5000 
     36 O           0.8977  -18.9847  -46.8299 O.2       7 UNK        -0.5000 
     37 CA          2.9515  -17.7688  -46.7367 C.3       7 UNK         0.1400 
     38 CB          2.8851  -16.4846  -47.5767 C.3       7 UNK        -0.1800 
     39 N           3.9089  -17.6093  -45.6427 N.am      7 UNK        -0.5000 
     40 C           4.3732  -18.6264  -44.9011 C.2       6 UNK         0.5000 
     41 O           4.0965  -19.8079  -45.1107 O.2       6 UNK        -0.5000 
     42 CA          5.2490  -18.2515  -43.6910 C.3       6 UNK         0.1400 
     43 CB          6.7048  -18.0229  -44.1238 C.3       6 UNK        -0.1800 
     44 N           4.7559  -17.0603  -42.9965 N.am      6 UNK        -0.5000 
     45 C           3.5890  -16.9946  -42.3386 C.2       5 UNK         0.5000 
     46 O           2.8424  -17.9602  -42.1851 O.2       5 UNK        -0.5000 
     47 CA          3.1606  -15.6110  -41.8086 C.3       5 UNK         0.1400 
     48 CB          3.6175  -15.4243  -40.3548 C.3       5 UNK        -0.1800 
     49 N           3.6658  -14.5012  -42.6219 N.am      5 UNK        -0.5000 
     50 C           3.3216  -14.2754  -43.8959 C.2       4 UNK         0.5000 
     51 O           2.5046  -14.9618  -44.5174 O.2       4 UNK        -0.5000 
     52 CA          4.0745  -13.1472  -44.6118 C.3       4 UNK         0.1400 
     53 CB          5.5226  -13.5850  -44.9142 C.3       4 UNK        -0.1800 
     54 N           3.3816  -12.8223  -45.8548 N.am      4 UNK        -0.5000 
     55 C           3.5868  -11.7220  -46.5885 C.2       3 UNK         0.5000 
     56 O           4.3737  -10.8264  -46.2796 O.2       3 UNK        -0.5000 
     57 CA          2.7578  -11.5859  -47.8709 C.3       3 UNK         0.1400 
     58 CB          2.9406  -12.7808  -48.8252 C.3       3 UNK        -0.1800 
     59 N           1.3507  -11.4262  -47.5239 N.am      3 UNK        -0.5000 
     60 C           0.4736  -10.6756  -48.2009 C.2       2 UNK         0.5000 
     61 O           0.7616  -10.0491  -49.2218 O.2       2 UNK        -0.5000 
     62 CA         -0.9747  -10.6171  -47.6703 C.3       2 UNK         0.1400 
     63 CB         -1.9374  -11.2841  -48.6669 C.3       2 UNK        -0.1800 
     64 N          -1.1617  -11.2512  -46.3633 N.am      2 UNK        -0.5000 
     65 C          -0.7672  -10.7633  -45.1817 C.2       1 UNK         0.5000 
     66 O          -0.1927   -9.6782  -45.0636 O.2       1 UNK        -0.5000 
     67 C          -2.7031  -22.2209  -46.7533 C.2       11 UNK         0.5000 
     68 O          -3.5642  -22.8985  -47.3127 O.2       11 UNK        -0.5000 
     69 N          -2.5182  -22.2174  -45.4251 N.am      12 UNK        -0.5000 
     70 CA         -3.2662  -23.0472  -44.4799 C.3       12 UNK         0.1400 
     71 CB         -2.9486  -22.6079  -43.0428 C.3       12 UNK        -0.1800 
     72 C          -3.0005  -24.5532  -44.6628 C.2       12 UNK         0.5000 
     73 O          -3.9394  -25.3438  -44.5686 O.2       12 UNK        -0.5000 
     74 N          -1.7418  -24.9209  -44.9444 N.am      13 UNK        -0.5000 
     75 CA         -1.3261  -26.2910  -45.2505 C.3       13 UNK         0.1400 
     76 CB          0.2068  -26.3880  -45.2250 C.3       13 UNK        -0.1800 
     77 C          -1.8880  -26.7940  -46.5933 C.2       13 UNK         0.5000 
     78 O          -2.3150  -27.9465  -46.6751 O.2       13 UNK        -0.5000 
     79 N          -1.9037  -25.9194  -47.6103 N.am      14 UNK        -0.5000 
     80 CA         -2.5345  -26.1654  -48.9094 C.3       14 UNK         0.1400 
     81 CB         -2.1251  -25.0603  -49.8959 C.3       14 UNK        -0.1800 
     82 C          -4.0691  -26.2629  -48.8089 C.2       14 UNK         0.5000 
     83 O          -4.6763  -27.0542  -49.5314 O.2       14 UNK        -0.5000 
     84 N          -4.6563  -25.4600  -47.9099 N.am      15 UNK        -0.5000 
     85 CA         -6.0644  -25.3507  -47.5120 C.3       15 UNK         0.1400 
     86 CB         -6.6043  -26.6879  -46.9721 C.3       15 UNK        -0.1800 
     87 C          -6.9858  -24.7683  -48.5984 C.2       15 UNK         0.5000 
     88 O          -7.7974  -23.8898  -48.3019 O.2       15 UNK        -0.5000 
     89 N          -6.8361  -25.2417  -49.8387 N.am      16 UNK        -0.5000 
     90 CA         -7.5388  -24.7779  -51.0299 C.3       16 UNK         0.1400 
     91 CB         -7.5177  -25.9089  -52.0739 C.3       16 UNK        -0.1800 
     92 C          -6.9139  -23.4707  -51.5550 C.2       16 UNK         0.5000 
     93 O          -6.3010  -23.4642  -52.6225 O.2       16 UNK        -0.5000 
     94 N          -7.0542  -22.3877  -50.7802 N.am      17 UNK        -0.5000 
     95 CA         -6.5555  -21.0461  -51.0931 C.3       17 UNK         0.1400 
     96 CB         -6.9727  -20.0854  -49.9700 C.3       17 UNK        -0.1800 
     97 C          -7.0598  -20.5327  -52.4561 C.2       17 UNK         0.5000 
     98 O          -8.2236  -20.7542  -52.8001 O.2       17 UNK        -0.5000 
     99 N          -6.1630  -19.8915  -53.2142 N.am      18 UNK        -0.5000 
    100 CA        -6.3073  -19.4000  -54.5898 C.3       18 UNK         0.1400 
    101 CB        -7.5035  -18.4430  -54.7542 C.3       18 UNK        -0.1800 
    102 C         -6.3215  -20.5215  -55.6470 C.2       18 UNK         0.5000 
    103 O         -5.6508  -20.3804  -56.6696 O.2       18 UNK        -0.5000 
    104 N         -7.0279  -21.6285  -55.3806 N.am      19 UNK        -0.5000 
    105 CA        -7.0643  -22.8257  -56.2262 C.3       19 UNK         0.1400 
    106 CB        -8.1752  -23.7658  -55.7368 C.3       19 UNK        -0.1800 
    107 C         -5.7027  -23.5461  -56.2763 C.2       19 UNK         0.5000 
    108 O         -5.2279  -23.8836  -57.3608 O.2       19 UNK        -0.5000 
    109 N         -5.0743  -23.7010  -55.1050 N.am      20 UNK        -0.5000 
    110 CA        -3.6965  -24.1565  -54.9146 C.3       20 UNK         0.1400 
    111 CB        -3.6661  -25.1891  -53.7732 C.3       20 UNK        -0.1800 
    112 C         -2.7633  -22.9571  -54.6403 C.2       20 UNK         0.5000 
    113 O         -1.7669  -23.0976  -53.9264 O.2       20 UNK        -0.5000 
    114 N         -3.1136  -21.7910  -55.2063 N.am      21 UNK        -0.5000 
    115 CA        -2.4426  -20.4973  -55.0805 C.3       21 UNK         0.1400 
    116 CB        -1.1177  -20.5069  -55.8769 C.3       21 UNK        -0.1800 
    117 C         -2.3032  -20.0720  -53.6036 C.2       21 UNK         0.5000 
    118 O         -3.3170  -19.9608  -52.9103 O.2       21 UNK        -0.5000 
    119 N         -1.0628  -19.8551  -53.1623 N.am      22 UNK        -0.5000 
    120 CA        -0.6821  -19.4853  -51.7924 C.3       22 UNK         0.1400 
    121 C         -0.0210  -20.6726  -51.0312 C.2       22 UNK         0.5000 
    122 N         -0.1881  -21.9187  -51.4643 N.am      22 UNK        -0.7600 
    123 O          0.6633  -20.4683  -50.0350 O.2       22 UNK        -0.5000 
    124 C124        0.2014  -18.2066  -51.7860 C.3       23 UNK        -0.0398 
    125 S125       -0.6253  -16.7946  -52.6078 S.3       23 UNK        -0.2404 
    126 C126       -0.5120  -15.4668  -51.3599 C.3       23 UNK        -0.0205 
    127 H127        0.0611   -9.8999  -40.5146 H         1 UNK         0.0600 
    128 H128        1.6286   -9.4053  -41.1606 H         1 UNK         0.0600 
    129 H129        1.4705  -10.9433  -40.3054 H         1 UNK         0.0600 
    130 H130       -1.3019  -10.5913  -42.1174 H         1 UNK         0.3000 
    131 H131       -2.1959  -11.5793  -43.8408 H         1 UNK         0.0600 
    132 H132        0.3236  -13.2309  -44.3849 H         1 UNK         0.0800 
    133 H133       -0.7785  -13.6070  -43.1007 H         1 UNK         0.0800 
    134 H134        0.0302  -13.8527  -46.7237 H         1 UNK         0.0800 
    135 H135        0.1078  -15.3769  -45.8952 H         1 UNK         0.0800 
    136 H136        0.1946  -14.4703  -48.9707 H         1 UNK         0.1150 
    137 H137       -2.6828  -17.1081  -50.7439 H         1 UNK         0.1150 
    138 H138       -2.6536  -16.5121  -46.5060 H         1 UNK         0.1150 
    139 H139       -4.3671  -17.8527  -47.4646 H         1 UNK         0.0800 
    140 H140       -4.7606  -17.5651  -49.1405 H         1 UNK         0.0800 
    141 H141       -2.4297  -19.4970  -46.7034 H         1 UNK         0.0800 
    142 H142       -1.3187  -19.2894  -48.0316 H         1 UNK         0.0800 
    143 H143       -1.7426  -21.7868  -48.6133 H         1 UNK         0.0600 
    144 H144        0.1018  -20.6493  -46.8228 H         1 UNK         0.3000 
    145 H145        2.0933  -23.5952  -46.3278 H         1 UNK         0.0600 
    146 H146        3.7956  -21.9594  -47.1010 H         1 UNK         0.0600 
    147 H147        2.5314  -20.9279  -47.7686 H         1 UNK         0.0600 
    148 H148        2.8164  -22.5213  -48.4497 H         1 UNK         0.0600 
    149 H149        2.3398  -20.9740  -45.2519 H         1 UNK         0.3000 
    150 H150        0.3659  -21.5382  -42.2920 H         1 UNK         0.0600 
    151 H151        2.6661  -22.4150  -41.8660 H         1 UNK         0.0600 
    152 H152        2.4950  -20.7619  -41.2937 H         1 UNK         0.0600 
    153 H153        3.3563  -21.0894  -42.7949 H         1 UNK         0.0600 
    154 H154        1.7335  -19.2177  -43.1527 H         1 UNK         0.3000 
    155 H155       -0.9047  -17.7591  -45.0985 H         1 UNK         0.0600 
    156 H156       -1.3431  -17.0258  -42.8416 H         1 UNK         0.0600 
    157 H157       -0.1197  -15.9324  -43.4703 H         1 UNK         0.0600 
    158 H158        0.3313  -17.2108  -42.3517 H         1 UNK         0.0600 
    159 H159        1.7465  -16.8827  -44.6411 H         1 UNK         0.3000 
    160 H160        3.3034  -18.5755  -47.3832 H         1 UNK         0.0600 
    161 H161        2.4948  -15.6456  -47.0036 H         1 UNK         0.0600 
    162 H162        2.2293  -16.6205  -48.4379 H         1 UNK         0.0600 
    163 H163        3.8683  -16.2064  -47.9561 H         1 UNK         0.0600 
    164 H164        4.1397  -16.6646  -45.3753 H         1 UNK         0.3000 
    165 H165        5.2264  -19.0889  -42.9902 H         1 UNK         0.0600 
    166 H166        7.3458  -17.8300  -43.2635 H         1 UNK         0.0600 
    167 H167        7.1022  -18.9018  -44.6333 H         1 UNK         0.0600 
    168 H168        6.7960  -17.1776  -44.8072 H         1 UNK         0.0600 
    169 H169        5.3189  -16.2259  -43.0623 H         1 UNK         0.3000 
    170 H170        2.0700  -15.5709  -41.8308 H         1 UNK         0.0600 
    171 H171        4.7049  -15.4298  -40.2696 H         1 UNK         0.0600 
    172 H172        3.2341  -16.2242  -39.7198 H         1 UNK         0.0600 
    173 H173        3.2523  -14.4825  -39.9447 H         1 UNK         0.0600 
    174 H174        4.3388  -13.8910  -42.1809 H         1 UNK         0.3000 
    175 H175        4.0779  -12.2692  -43.9626 H         1 UNK         0.0600 
    176 H176        5.5493  -14.4510  -45.5770 H         1 UNK         0.0600 
    177 H177        6.0911  -12.7862  -45.3901 H         1 UNK         0.0600 
    178 H178        6.0573  -13.8514  -44.0019 H         1 UNK         0.0600 
    179 H179        2.7057  -13.5186  -46.1376 H         1 UNK         0.3000 
    180 H180        3.1135  -10.6874  -48.3805 H         1 UNK         0.0600 
    181 H181        2.4623  -12.5891  -49.7859 H         1 UNK         0.0600 
    182 H182        2.5096  -13.6954  -48.4207 H         1 UNK         0.0600 
    183 H183        3.9969  -12.9695  -49.0202 H         1 UNK         0.0600 
    184 H184        1.0553  -11.8309  -46.6488 H         1 UNK         0.3000 
    185 H185       -1.2458   -9.5630  -47.5836 H         1 UNK         0.0600 
    186 H186       -2.9728  -11.1906  -48.3387 H         1 UNK         0.0600 
    187 H187       -1.8688  -10.8204  -49.6518 H         1 UNK         0.0600 
    188 H188       -1.7189  -12.3457  -48.7885 H         1 UNK         0.0600 
    189 H189       -1.6456  -12.1404  -46.3684 H         1 UNK         0.3000 
    190 H190       -1.8232  -21.5908  -45.0265 H         1 UNK         0.3000 
    191 H191       -4.3299  -22.8759  -44.6580 H         1 UNK         0.0600 
    192 H192       -3.2121  -21.5622  -42.8834 H         1 UNK         0.0600 
    193 H193       -1.8900  -22.7247  -42.8105 H         1 UNK         0.0600 
    194 H194       -3.5115  -23.1994  -42.3197 H         1 UNK         0.0600 
    195 H195       -1.0110  -24.2160  -44.9317 H         1 UNK         0.3000 
    196 H196       -1.7159  -26.9415  -44.4648 H         1 UNK         0.0600 
    197 H197        0.6029  -26.1053  -44.2496 H         1 UNK         0.0600 
    198 H198        0.6658  -25.7406  -45.9720 H         1 UNK         0.0600 
    199 H199        0.5367  -27.4077  -45.4271 H         1 UNK         0.0600 
    200 H200       -1.4533  -25.0168  -47.4849 H         1 UNK         0.3000 
    201 H201       -2.1633  -27.1186  -49.2912 H         1 UNK         0.0600 
    202 H202       -1.0420  -25.0136  -50.0089 H         1 UNK         0.0600 
    203 H203       -2.4687  -24.0780  -49.5701 H         1 UNK         0.0600 
    204 H204       -2.5466  -25.2442  -50.8842 H         1 UNK         0.0600 
    205 H205       -4.0590  -24.7632  -47.4738 H         1 UNK         0.3000 
    206 H206       -6.0722  -24.6397  -46.6843 H         1 UNK         0.0600 
    207 H207       -6.6454  -27.4557  -47.7450 H         1 UNK         0.0600 
    208 H208       -5.9806  -27.0619  -46.1597 H         1 UNK         0.0600 
    209 H209       -7.6143  -26.5678  -46.5788 H         1 UNK         0.0600 
    210 H210       -6.1225  -25.9525  -49.9766 H         1 UNK         0.3000 
    211 H211       -8.5809  -24.5727  -50.7764 H         1 UNK         0.0600 
    212 H212       -6.5008  -26.1564  -52.3817 H         1 UNK         0.0600 
    213 H213       -8.0754  -25.6284  -52.9670 H         1 UNK         0.0600 
    214 H214       -7.9765  -26.8159  -51.6802 H         1 UNK         0.0600 
    215 H215       -7.5423  -22.5001  -49.8998 H         1 UNK         0.3000 
    216 H216       -5.4648  -21.1008  -51.1187 H         1 UNK         0.0600 
    217 H217       -6.5928  -19.0802  -50.1562 H         1 UNK         0.0600 
    218 H218       -6.5772  -20.4085  -49.0067 H         1 UNK         0.0600 
    219 H219       -8.0578  -20.0166  -49.8825 H         1 UNK         0.0600 
    220 H220       -5.2083  -19.8331  -52.8639 H         1 UNK         0.3000 
    221 H221       -5.4053  -18.8144  -54.7739 H         1 UNK         0.0600 
    222 H222       -8.4599  -18.9578  -54.6624 H         1 UNK         0.0600 
    223 H223       -7.4765  -17.6459  -54.0113 H         1 UNK         0.0600 
    224 H224       -7.4862  -17.9720  -55.7377 H         1 UNK         0.0600 
    225 H225       -7.5447  -21.6593  -54.5084 H         1 UNK         0.3000 
    226 H226       -7.3110  -22.5128  -57.2429 H         1 UNK         0.0600 
    227 H227       -9.1527  -23.2881  -55.8053 H         1 UNK         0.0600 
    228 H228       -8.2134  -24.6748  -56.3384 H         1 UNK         0.0600 
    229 H229       -8.0212  -24.0621  -54.7002 H         1 UNK         0.0600 
    230 H230       -5.5613  -23.4322  -54.2498 H         1 UNK         0.3000 
    231 H231       -3.3330  -24.6450  -55.8204 H         1 UNK         0.0600 
    232 H232       -2.6691  -25.6143  -53.6527 H         1 UNK         0.0600 
    233 H233       -4.3492  -26.0152  -53.9710 H         1 UNK         0.0600 
    234 H234       -3.9503  -24.7416  -52.8206 H         1 UNK         0.0600 
    235 H235       -3.9599  -21.7821  -55.7586 H         1 UNK         0.3000 
    236 H236       -3.0977  -19.7601  -55.5458 H         1 UNK         0.0600 
    237 H237       -0.4043  -21.2328  -55.4847 H         1 UNK         0.0600 
    238 H238       -1.2977  -20.7587  -56.9221 H         1 UNK         0.0600 
    239 H239       -0.6416  -19.5255  -55.8658 H         1 UNK         0.0600 
    240 H240       -0.2958  -20.0055  -53.8008 H         1 UNK         0.3000 
    241 H241       -1.5805  -19.2564  -51.2183 H         1 UNK         0.0600 
    242 H242        0.2510  -22.6715  -50.9608 H         1 UNK         0.3800 
    243 H243       -0.7456  -22.1238  -52.2851 H         1 UNK         0.3800 
    244 H244        0.4580  -17.9280  -50.7625 H         1 UNK         0.0800 
    245 H245        1.1477  -18.3944  -52.2952 H         1 UNK         0.0800 
    246 H246       -0.9803  -14.5700  -51.7670 H         1 UNK         0.0800 
    247 H247        0.5437  -15.2273  -51.2222 H         1 UNK         0.0800 
@<TRIPOS>BOND
     1    1    2 1    
     2    1  127 1    
     3    1  128 1    
     4    1  129 1    
     5    2    3 2    
     6    2    4 am   BACKBONE|DICT|INTERRES
     7    4    5 1    
     8    4  130 1    
     9    5    6 1    
    10    5   65 1    
    11    5  131 1    
    12    6    7 1    
    13    6  132 1    
    14    6  133 1    
    15    7    8 1    
    16    8    9 1    
    17    8  134 1    
    18    8  135 1    
    19    9   10 ar   
    20    9   14 ar   
    21   10   11 ar   
    22   10  136 1    
    23   11   12 ar   
    24   11  126 1    
    25   12   13 ar   
    26   12  137 1    
    27   13   14 ar   
    28   13   15 1    
    29   14  138 1    
    30   15   16 1    
    31   15  139 1    
    32   15  140 1    
    33   16   17 1    
    34   17   18 1    
    35   17  141 1    
    36   17  142 1    
    37   18   19 1    
    38   18   67 1    
    39   18  143 1    
    40   19   20 am   BACKBONE|DICT|INTERRES
    41   19  144 1    
    42   20   21 2    
    43   20   22 1    
    44   22   23 1    
    45   22   24 1    
    46   22  145 1    
    47   23  146 1    
    48   23  147 1    
    49   23  148 1    
    50   24   25 am   BACKBONE|DICT|INTERRES
    51   24  149 1    
    52   25   26 2    
    53   25   27 1    
    54   27   28 1    
    55   27   29 1    
    56   27  150 1    
    57   28  151 1    
    58   28  152 1    
    59   28  153 1    
    60   29   30 am   BACKBONE|DICT|INTERRES
    61   29  154 1    
    62   30   31 2    
    63   30   32 1    
    64   32   33 1    
    65   32   34 1    
    66   32  155 1    
    67   33  156 1    
    68   33  157 1    
    69   33  158 1    
    70   34   35 am   BACKBONE|DICT|INTERRES
    71   34  159 1    
    72   35   36 2    
    73   35   37 1    
    74   37   38 1    
    75   37   39 1    
    76   37  160 1    
    77   38  161 1    
    78   38  162 1    
    79   38  163 1    
    80   39   40 am   BACKBONE|DICT|INTERRES
    81   39  164 1    
    82   40   41 2    
    83   40   42 1    
    84   42   43 1    
    85   42   44 1    
    86   42  165 1    
    87   43  166 1    
    88   43  167 1    
    89   43  168 1    
    90   44   45 am   BACKBONE|DICT|INTERRES
    91   44  169 1    
    92   45   46 2    
    93   45   47 1    
    94   47   48 1    
    95   47   49 1    
    96   47  170 1    
    97   48  171 1    
    98   48  172 1    
    99   48  173 1    
   100   49   50 am   BACKBONE|DICT|INTERRES
   101   49  174 1    
   102   50   51 2    
   103   50   52 1    
   104   52   53 1    
   105   52   54 1    
   106   52  175 1    
   107   53  176 1    
   108   53  177 1    
   109   53  178 1    
   110   54   55 am   BACKBONE|DICT|INTERRES
   111   54  179 1    
   112   55   56 2    
   113   55   57 1    
   114   57   58 1    
   115   57   59 1    
   116   57  180 1    
   117   58  181 1    
   118   58  182 1    
   119   58  183 1    
   120   59   60 am   BACKBONE|DICT|INTERRES
   121   59  184 1    
   122   60   61 2    
   123   60   62 1    
   124   62   63 1    
   125   62   64 1    
   126   62  185 1    
   127   63  186 1    
   128   63  187 1    
   129   63  188 1    
   130   64   65 am   BACKBONE|DICT|INTERRES
   131   64  189 1    
   132   65   66 2    
   133   67   68 2    
   134   67   69 am   BACKBONE|DICT|INTERRES
   135   69   70 1    
   136   69  190 1    
   137   70   71 1    
   138   70   72 1    
   139   70  191 1    
   140   71  192 1    
   141   71  193 1    
   142   71  194 1    
   143   72   73 2    
   144   72   74 am   BACKBONE|DICT|INTERRES
   145   74   75 1    
   146   74  195 1    
   147   75   76 1    
   148   75   77 1    
   149   75  196 1    
   150   76  197 1    
   151   76  198 1    
   152   76  199 1    
   153   77   78 2    
   154   77   79 am   BACKBONE|DICT|INTERRES
   155   79   80 1    
   156   79  200 1    
   157   80   81 1    
   158   80   82 1    
   159   80  201 1    
   160   81  202 1    
   161   81  203 1    
   162   81  204 1    
   163   82   83 2    
   164   82   84 am   BACKBONE|DICT|INTERRES
   165   84   85 1    
   166   84  205 1    
   167   85   86 1    
   168   85   87 1    
   169   85  206 1    
   170   86  207 1    
   171   86  208 1    
   172   86  209 1    
   173   87   88 2    
   174   87   89 am   BACKBONE|DICT|INTERRES
   175   89   90 1    
   176   89  210 1    
   177   90   91 1    
   178   90   92 1    
   179   90  211 1    
   180   91  212 1    
   181   91  213 1    
   182   91  214 1    
   183   92   93 2    
   184   92   94 am   BACKBONE|DICT|INTERRES
   185   94   95 1    
   186   94  215 1    
   187   95   96 1    
   188   95   97 1    
   189   95  216 1    
   190   96  217 1    
   191   96  218 1    
   192   96  219 1    
   193   97   98 2    
   194   97   99 am   BACKBONE|DICT|INTERRES
   195   99  100 1    
   196   99  220 1    
   197  100  101 1    
   198  100  102 1    
   199  100  221 1    
   200  101  222 1    
   201  101  223 1    
   202  101  224 1    
   203  102  103 2    
   204  102  104 am   BACKBONE|DICT|INTERRES
   205  104  105 1    
   206  104  225 1    
   207  105  106 1    
   208  105  107 1    
   209  105  226 1    
   210  106  227 1    
   211  106  228 1    
   212  106  229 1    
   213  107  108 2    
   214  107  109 am   BACKBONE|DICT|INTERRES
   215  109  110 1    
   216  109  230 1    
   217  110  111 1    
   218  110  112 1    
   219  110  231 1    
   220  111  232 1    
   221  111  233 1    
   222  111  234 1    
   223  112  113 2    
   224  112  114 am   BACKBONE|DICT|INTERRES
   225  114  115 1    
   226  114  235 1    
   227  115  116 1    
   228  115  117 1    
   229  115  236 1    
   230  116  237 1    
   231  116  238 1    
   232  116  239 1    
   233  117  118 2    
   234  117  119 am   BACKBONE|DICT|INTERRES
   235  119  120 1    
   236  119  240 1    
   237  120  121 1    
   238  120  124 1    
   239  120  241 1    
   240  121  122 am   BACKBONE|DICT|INTERRES
   241  121  123 2    
   242  122  242 1    
   243  122  243 1    
   244  124  125 1    
   245  124  244 1    
   246  124  245 1    
   247  125  126 1    
   248  126  246 1    
   249  126  247 1    
@<TRIPOS>SUBSTRUCTURE
     1 UNK         1 GROUP             0       ****    0 ROOT    
