@<TRIPOS>MOLECULE
3R540
247   249    1
SMALL
USER_CHARGES


@<TRIPOS>ATOM
      1 CA         -1.7579  -13.8496  -50.0343 C.3       0 UNK        -0.1800 
      2 C          -0.9095  -13.9934  -48.7797 C.2       0 UNK         0.5000 
      3 O          -1.0710  -13.2171  -47.8379 O.2       0 UNK        -0.5000 
      4 N          -0.0050  -14.9813  -48.7578 N.am      1 UNK        -0.5000 
      5 CA          0.9644  -15.2088  -47.6773 C.3       1 UNK         0.1400 
      6 C6          2.1149  -16.1557  -48.0933 C.3       23 UNK        -0.0398 
      7 S7          3.0312  -15.5687  -49.5602 S.3       23 UNK        -0.2404 
      8 C8          4.2100  -16.9420  -49.8368 C.3       23 UNK        -0.0205 
      9 C9          3.5515  -18.3151  -49.9546 C.ar      23 UNK        -0.0193 
     10 C10         2.3312  -18.4715  -50.6154 C.ar      23 UNK        -0.1150 
     11 C11         1.6756  -19.7019  -50.6187 C.ar      23 UNK        -0.0193 
     12 C12         2.2875  -20.8133  -50.0341 C.ar      23 UNK        -0.1150 
     13 C13         3.5350  -20.6887  -49.4059 C.ar      23 UNK        -0.0193 
     14 C14         4.1525  -19.4328  -49.3674 C.ar      23 UNK        -0.1150 
     15 C15         4.2577  -21.8764  -48.7671 C.3       23 UNK        -0.0205 
     16 S16         3.1956  -23.2685  -48.2499 S.3       23 UNK        -0.2404 
     17 C17         2.2900  -22.5323  -46.8492 C.3       23 UNK        -0.0398 
     18 CA          1.0329  -23.3573  -46.4804 C.3       11 UNK         0.1400 
     19 N           0.6561  -23.1933  -45.0748 N.am      11 UNK        -0.5000 
     20 C          -0.1763  -24.0093  -44.4119 C.2       10 UNK         0.5000 
     21 O          -0.6784  -25.0189  -44.9041 O.2       10 UNK        -0.5000 
     22 CA         -0.5413  -23.6040  -42.9713 C.3       10 UNK         0.1400 
     23 CB          0.5183  -24.1093  -41.9813 C.3       10 UNK        -0.1800 
     24 N          -0.6954  -22.1560  -42.8211 N.am      10 UNK        -0.5000 
     25 C          -1.6749  -21.4401  -43.3911 C.2       9 UNK         0.5000 
     26 O          -2.5900  -21.9391  -44.0441 O.2       9 UNK        -0.5000 
     27 CA         -1.5859  -19.9083  -43.2613 C.3       9 UNK         0.1400 
     28 CB         -2.3365  -19.4160  -42.0165 C.3       9 UNK        -0.1800 
     29 N          -0.2113  -19.4039  -43.2280 N.am      9 UNK        -0.5000 
     30 C           0.6797  -19.5239  -44.2213 C.2       8 UNK         0.5000 
     31 O           0.4423  -20.1337  -45.2651 O.2       8 UNK        -0.5000 
     32 CA          2.0543  -18.8589  -44.0056 C.3       8 UNK         0.1400 
     33 CB          2.8616  -18.7524  -45.3117 C.3       8 UNK        -0.1800 
     34 N           1.9215  -17.5241  -43.4206 N.am      8 UNK        -0.5000 
     35 C           1.8310  -17.2442  -42.1151 C.2       7 UNK         0.5000 
     36 O           1.8016  -18.1166  -41.2454 O.2       7 UNK        -0.5000 
     37 CA          1.7150  -15.7543  -41.7251 C.3       7 UNK         0.1400 
     38 CB          2.1307  -15.4829  -40.2647 C.3       7 UNK        -0.1800 
     39 N           2.4155  -14.8421  -42.6352 N.am      7 UNK        -0.5000 
     40 C           3.7258  -14.8125  -42.9236 C.2       6 UNK         0.5000 
     41 O           4.5496  -15.5998  -42.4563 O.2       6 UNK        -0.5000 
     42 CA          4.2130  -13.6987  -43.8670 C.3       6 UNK         0.1400 
     43 CB          4.1106  -14.1226  -45.3403 C.3       6 UNK        -0.1800 
     44 N           3.4739  -12.4509  -43.6628 N.am      6 UNK        -0.5000 
     45 C           4.0374  -11.2483  -43.4806 C.2       5 UNK         0.5000 
     46 O           5.2516  -11.0461  -43.5326 O.2       5 UNK        -0.5000 
     47 CA          3.0959  -10.0615  -43.1801 C.3       5 UNK         0.1400 
     48 CB          2.7924   -9.2800  -44.4677 C.3       5 UNK        -0.1800 
     49 N           1.8302  -10.4572  -42.5607 N.am      5 UNK        -0.5000 
     50 C           1.7019  -11.0267  -41.3547 C.2       4 UNK         0.5000 
     51 O           2.6394  -11.1726  -40.5697 O.2       4 UNK        -0.5000 
     52 CA          0.3023  -11.5452  -40.9589 C.3       4 UNK         0.1400 
     53 CB         -0.3165  -10.6413  -39.8810 C.3       4 UNK        -0.1800 
     54 N          -0.6682  -11.7009  -42.0521 N.am      4 UNK        -0.5000 
     55 C          -0.5195  -12.4505  -43.1524 C.2       3 UNK         0.5000 
     56 O           0.5401  -12.9926  -43.4764 O.2       3 UNK        -0.5000 
     57 CA         -1.7544  -12.5756  -44.0628 C.3       3 UNK         0.1400 
     58 CB         -1.7811  -11.4243  -45.0787 C.3       3 UNK        -0.1800 
     59 N          -1.7702  -13.8482  -44.7836 N.am      3 UNK        -0.5000 
     60 C          -1.8859  -15.0557  -44.2080 C.2       2 UNK         0.5000 
     61 O          -2.1015  -15.2213  -43.0065 O.2       2 UNK        -0.5000 
     62 CA         -1.7316  -16.2926  -45.1174 C.3       2 UNK         0.1400 
     63 CB         -3.1139  -16.8511  -45.4818 C.3       2 UNK        -0.1800 
     64 N          -0.9696  -16.0257  -46.3409 N.am      2 UNK        -0.5000 
     65 C           0.3285  -15.6833  -46.3520 C.2       1 UNK         0.5000 
     66 O           1.0313  -15.7074  -45.3428 O.2       1 UNK        -0.5000 
     67 C          -0.1575  -23.0437  -47.4078 C.2       11 UNK         0.5000 
     68 O          -0.4028  -23.7892  -48.3554 O.2       11 UNK        -0.5000 
     69 N          -0.9139  -21.9868  -47.0787 N.am      12 UNK        -0.5000 
     70 CA         -2.1487  -21.6059  -47.7630 C.3       12 UNK         0.1400 
     71 CB         -2.6627  -20.2746  -47.1980 C.3       12 UNK        -0.1800 
     72 C          -3.2335  -22.6921  -47.6767 C.2       12 UNK         0.5000 
     73 O          -3.8584  -23.0009  -48.6904 O.2       12 UNK        -0.5000 
     74 N          -3.4044  -23.2811  -46.4850 N.am      13 UNK        -0.5000 
     75 CA         -4.3126  -24.3999  -46.2327 C.3       13 UNK         0.1400 
     76 CB         -4.4091  -24.6486  -44.7200 C.3       13 UNK        -0.1800 
     77 C          -3.9034  -25.6888  -46.9698 C.2       13 UNK         0.5000 
     78 O          -4.7790  -26.4170  -47.4375 O.2       13 UNK        -0.5000 
     79 N          -2.5909  -25.9439  -47.0699 N.am      14 UNK        -0.5000 
     80 CA         -2.0254  -27.0721  -47.8097 C.3       14 UNK         0.1400 
     81 CB         -0.5493  -27.2579  -47.4256 C.3       14 UNK        -0.1800 
     82 C          -2.1816  -26.9154  -49.3335 C.2       14 UNK         0.5000 
     83 O          -2.5279  -27.8868  -50.0070 O.2       14 UNK        -0.5000 
     84 N          -1.9297  -25.7026  -49.8464 N.am      15 UNK        -0.5000 
     85 CA         -2.0794  -25.3502  -51.2584 C.3       15 UNK         0.1400 
     86 CB         -1.4094  -23.9931  -51.5240 C.3       15 UNK        -0.1800 
     87 C          -3.5522  -25.3297  -51.7026 C.2       15 UNK         0.5000 
     88 O          -3.8846  -25.9098  -52.7369 O.2       15 UNK        -0.5000 
     89 N          -4.4051  -24.6785  -50.8992 N.am      16 UNK        -0.5000 
     90 CA         -5.8501  -24.5350  -51.0744 C.3       16 UNK         0.1400 
     91 CB         -6.5524  -25.8757  -50.7624 C.3       16 UNK        -0.1800 
     92 C          -6.2188  -23.9298  -52.4474 C.2       16 UNK         0.5000 
     93 O          -5.5851  -22.9623  -52.8787 O.2       16 UNK        -0.5000 
     94 N          -7.2216  -24.5115  -53.1179 N.am      17 UNK        -0.5000 
     95 CA         -7.7683  -24.0798  -54.4062 C.3       17 UNK         0.1400 
     96 CB         -9.0351  -24.8981  -54.7003 C.3       17 UNK        -0.1800 
     97 C          -6.7871  -24.1583  -55.5938 C.2       17 UNK         0.5000 
     98 O          -7.0632  -23.5518  -56.6292 O.2       17 UNK        -0.5000 
     99 N          -5.6632  -24.8761  -55.4401 N.am      18 UNK        -0.5000 
    100 CA        -4.5844  -24.9150  -56.4311 C.3       18 UNK         0.1400 
    101 CB        -3.6222  -26.0690  -56.1128 C.3       18 UNK        -0.1800 
    102 C         -3.8215  -23.5785  -56.5197 C.2       18 UNK         0.5000 
    103 O         -3.3205  -23.2440  -57.5941 O.2       18 UNK        -0.5000 
    104 N         -3.7681  -22.8356  -55.4048 N.am      19 UNK        -0.5000 
    105 CA        -3.2444  -21.4725  -55.3470 C.3       19 UNK         0.1400 
    106 CB        -2.3804  -21.3016  -54.0891 C.3       19 UNK        -0.1800 
    107 C         -4.3940  -20.4533  -55.3656 C.2       19 UNK         0.5000 
    108 O         -4.3227  -19.4794  -56.1157 O.2       19 UNK        -0.5000 
    109 N         -5.4282  -20.6988  -54.5445 N.am      20 UNK        -0.5000 
    110 CA        -6.6745  -19.9425  -54.3520 C.3       20 UNK         0.1400 
    111 CB        -7.5079  -19.8973  -55.6461 C.3       20 UNK        -0.1800 
    112 C         -6.4927  -18.5312  -53.7572 C.2       20 UNK         0.5000 
    113 O         -7.1650  -18.1888  -52.7844 O.2       20 UNK        -0.5000 
    114 N         -5.5760  -17.7459  -54.3313 N.am      21 UNK        -0.5000 
    115 CA        -5.2438  -16.3743  -53.9404 C.3       21 UNK         0.1400 
    116 CB        -4.5688  -15.6833  -55.1364 C.3       21 UNK        -0.1800 
    117 C         -4.3520  -16.2826  -52.6844 C.2       21 UNK         0.5000 
    118 O         -4.0868  -15.1744  -52.2181 O.2       21 UNK        -0.5000 
    119 N         -3.8904  -17.4315  -52.1722 N.am      22 UNK        -0.5000 
    120 CA        -3.0244  -17.5517  -50.9889 C.3       22 UNK         0.1400 
    121 C         -3.6698  -17.0909  -49.6460 C.2       22 UNK         0.5000 
    122 N         -4.9913  -17.0885  -49.5182 N.am      22 UNK        -0.7600 
    123 O         -2.9619  -16.7109  -48.7179 O.2       22 UNK        -0.5000 
    124 C124       -2.4473  -18.9865  -50.8787 C.3       23 UNK        -0.0398 
    125 S125       -0.8691  -19.0260  -49.9745 S.3       23 UNK        -0.2404 
    126 C126        0.2666  -19.7837  -51.1740 C.3       23 UNK        -0.0205 
    127 H127       -1.4624  -14.5588  -50.8074 H         1 UNK         0.0600 
    128 H128       -2.8084  -14.0205  -49.7989 H         1 UNK         0.0600 
    129 H129       -1.6588  -12.8439  -50.4420 H         1 UNK         0.0600 
    130 H130        0.0731  -15.6029  -49.5494 H         1 UNK         0.3000 
    131 H131        1.4139  -14.2388  -47.4550 H         1 UNK         0.0600 
    132 H132        2.8393  -16.2592  -47.2838 H         1 UNK         0.0800 
    133 H133        1.7171  -17.1536  -48.2825 H         1 UNK         0.0800 
    134 H134        4.9331  -16.9393  -49.0197 H         1 UNK         0.0800 
    135 H135        4.7727  -16.7446  -50.7499 H         1 UNK         0.0800 
    136 H136        1.8476  -17.6171  -51.0669 H         1 UNK         0.1150 
    137 H137        1.7748  -21.7641  -50.0527 H         1 UNK         0.1150 
    138 H138        5.1051  -19.3231  -48.8679 H         1 UNK         0.1150 
    139 H139        4.8273  -21.5413  -47.8987 H         1 UNK         0.0800 
    140 H140        4.9866  -22.2532  -49.4855 H         1 UNK         0.0800 
    141 H141        2.0350  -21.4937  -47.0689 H         1 UNK         0.0800 
    142 H142        2.9813  -22.5018  -46.0060 H         1 UNK         0.0800 
    143 H143        1.2744  -24.4147  -46.6118 H         1 UNK         0.0600 
    144 H144        0.9637  -22.3446  -44.6236 H         1 UNK         0.3000 
    145 H145       -1.4941  -24.0766  -42.7231 H         1 UNK         0.0600 
    146 H146        0.6408  -25.1904  -42.0600 H         1 UNK         0.0600 
    147 H147        0.2326  -23.8900  -40.9523 H         1 UNK         0.0600 
    148 H148        1.4926  -23.6543  -42.1640 H         1 UNK         0.0600 
    149 H149        0.0146  -21.6693  -42.2942 H         1 UNK         0.3000 
    150 H150       -2.0714  -19.4794  -44.1395 H         1 UNK         0.0600 
    151 H151       -1.8746  -19.7790  -41.0976 H         1 UNK         0.0600 
    152 H152       -3.3717  -19.7599  -42.0233 H         1 UNK         0.0600 
    153 H153       -2.3576  -18.3265  -41.9755 H         1 UNK         0.0600 
    154 H154        0.0829  -18.9235  -42.3872 H         1 UNK         0.3000 
    155 H155        2.6178  -19.4939  -43.3192 H         1 UNK         0.0600 
    156 H156        2.2920  -18.2473  -46.0907 H         1 UNK         0.0600 
    157 H157        3.1261  -19.7397  -45.6907 H         1 UNK         0.0600 
    158 H158        3.7912  -18.2029  -45.1626 H         1 UNK         0.0600 
    159 H159        1.8157  -16.7562  -44.0820 H         1 UNK         0.3000 
    160 H160        0.6565  -15.5057  -41.8159 H         1 UNK         0.0600 
    161 H161        3.1639  -15.7771  -40.0783 H         1 UNK         0.0600 
    162 H162        1.5014  -16.0377  -39.5680 H         1 UNK         0.0600 
    163 H163        2.0345  -14.4260  -40.0164 H         1 UNK         0.0600 
    164 H164        1.7981  -14.1871  -43.1114 H         1 UNK         0.3000 
    165 H165        5.2700  -13.5507  -43.6362 H         1 UNK         0.0600 
    166 H166        4.5396  -15.1126  -45.5007 H         1 UNK         0.0600 
    167 H167        3.0754  -14.1496  -45.6741 H         1 UNK         0.0600 
    168 H168        4.6463  -13.4257  -45.9848 H         1 UNK         0.0600 
    169 H169        2.4642  -12.5258  -43.5941 H         1 UNK         0.3000 
    170 H170        3.6156   -9.3961  -42.4877 H         1 UNK         0.0600 
    171 H171        2.1926   -8.3936  -44.2600 H         1 UNK         0.0600 
    172 H172        2.2508   -9.8917  -45.1906 H         1 UNK         0.0600 
    173 H173        3.7127   -8.9430  -44.9467 H         1 UNK         0.0600 
    174 H174        1.0043  -10.3851  -43.1359 H         1 UNK         0.3000 
    175 H175        0.4505  -12.5356  -40.5247 H         1 UNK         0.0600 
    176 H176        0.3550  -10.5284  -39.0285 H         1 UNK         0.0600 
    177 H177       -0.5265   -9.6433  -40.2675 H         1 UNK         0.0600 
    178 H178       -1.2492  -11.0591  -39.5015 H         1 UNK         0.0600 
    179 H179       -1.5647  -11.2626  -41.8962 H         1 UNK         0.3000 
    180 H180       -2.6545  -12.5253  -43.4469 H         1 UNK         0.0600 
    181 H181       -0.8880  -11.4220  -45.7054 H         1 UNK         0.0600 
    182 H182       -1.8326  -10.4574  -44.5768 H         1 UNK         0.0600 
    183 H183       -2.6487  -11.4963  -45.7350 H         1 UNK         0.0600 
    184 H184       -1.5591  -13.8029  -45.7737 H         1 UNK         0.3000 
    185 H185       -1.1944  -17.0519  -44.5474 H         1 UNK         0.0600 
    186 H186       -3.6787  -17.1153  -44.5868 H         1 UNK         0.0600 
    187 H187       -3.7038  -16.1253  -46.0429 H         1 UNK         0.0600 
    188 H188       -3.0300  -17.7500  -46.0887 H         1 UNK         0.0600 
    189 H189       -1.4907  -16.0236  -47.2114 H         1 UNK         0.3000 
    190 H190       -0.6079  -21.3899  -46.3160 H         1 UNK         0.3000 
    191 H191       -1.9067  -21.4676  -48.8177 H         1 UNK         0.0600 
    192 H192       -1.8803  -19.5155  -47.2041 H         1 UNK         0.0600 
    193 H193       -3.4919  -19.8932  -47.7948 H         1 UNK         0.0600 
    194 H194       -3.0192  -20.3775  -46.1741 H         1 UNK         0.0600 
    195 H195       -2.8972  -22.9185  -45.6828 H         1 UNK         0.3000 
    196 H196       -5.3025  -24.1133  -46.5938 H         1 UNK         0.0600 
    197 H197       -5.0956  -25.4673  -44.5009 H         1 UNK         0.0600 
    198 H198       -4.7790  -23.7656  -44.1984 H         1 UNK         0.0600 
    199 H199       -3.4401  -24.9079  -44.2926 H         1 UNK         0.0600 
    200 H200       -1.9346  -25.3284  -46.6042 H         1 UNK         0.3000 
    201 H201       -2.5635  -27.9746  -47.5119 H         1 UNK         0.0600 
    202 H202       -0.1152  -28.1115  -47.9475 H         1 UNK         0.0600 
    203 H203       -0.4407  -27.4410  -46.3565 H         1 UNK         0.0600 
    204 H204        0.0484  -26.3818  -47.6770 H         1 UNK         0.0600 
    205 H205       -1.5825  -24.9723  -49.2294 H         1 UNK         0.3000 
    206 H206       -1.5605  -26.1051  -51.8527 H         1 UNK         0.0600 
    207 H207       -0.3532  -24.0145  -51.2545 H         1 UNK         0.0600 
    208 H208       -1.4699  -23.7365  -52.5811 H         1 UNK         0.0600 
    209 H209       -1.8811  -23.1885  -50.9582 H         1 UNK         0.0600 
    210 H210       -4.0292  -24.1858  -50.0918 H         1 UNK         0.3000 
    211 H211       -6.1741  -23.8086  -50.3281 H         1 UNK         0.0600 
    212 H212       -7.6370  -25.7638  -50.7384 H         1 UNK         0.0600 
    213 H213       -6.2536  -26.2498  -49.7832 H         1 UNK         0.0600 
    214 H214       -6.3070  -26.6463  -51.4945 H         1 UNK         0.0600 
    215 H215       -7.6638  -25.3165  -52.6984 H         1 UNK         0.3000 
    216 H216       -8.0570  -23.0317  -54.3044 H         1 UNK         0.0600 
    217 H217       -9.7785  -24.7732  -53.9127 H         1 UNK         0.0600 
    218 H218       -8.8136  -25.9624  -54.7892 H         1 UNK         0.0600 
    219 H219       -9.5001  -24.5806  -55.6347 H         1 UNK         0.0600 
    220 H220       -5.4921  -25.3423  -54.5588 H         1 UNK         0.3000 
    221 H221       -5.0298  -25.1103  -57.4090 H         1 UNK         0.0600 
    222 H222       -3.0635  -25.8887  -55.1948 H         1 UNK         0.0600 
    223 H223       -4.1548  -27.0140  -56.0053 H         1 UNK         0.0600 
    224 H224       -2.8933  -26.1953  -56.9142 H         1 UNK         0.0600 
    225 H225       -4.2382  -23.1776  -54.5757 H         1 UNK         0.3000 
    226 H226       -2.6090  -21.2706  -56.2120 H         1 UNK         0.0600 
    227 H227       -1.5134  -21.9605  -54.1225 H         1 UNK         0.0600 
    228 H228       -2.0018  -20.2816  -54.0182 H         1 UNK         0.0600 
    229 H229       -2.9366  -21.5200  -53.1764 H         1 UNK         0.0600 
    230 H230       -5.3616  -21.5188  -53.9441 H         1 UNK         0.3000 
    231 H231       -7.2471  -20.5142  -53.6198 H         1 UNK         0.0600 
    232 H232       -7.0050  -19.3421  -56.4382 H         1 UNK         0.0600 
    233 H233       -8.4707  -19.4154  -55.4720 H         1 UNK         0.0600 
    234 H234       -7.7104  -20.9010  -56.0190 H         1 UNK         0.0600 
    235 H235       -5.0562  -18.1400  -55.1130 H         1 UNK         0.3000 
    236 H236       -6.1712  -15.8428  -53.7173 H         1 UNK         0.0600 
    237 H237       -4.3387  -14.6409  -54.9118 H         1 UNK         0.0600 
    238 H238       -3.6343  -16.1758  -55.4084 H         1 UNK         0.0600 
    239 H239       -5.2178  -15.6888  -56.0123 H         1 UNK         0.0600 
    240 H240       -4.1746  -18.2897  -52.6183 H         1 UNK         0.3000 
    241 H241       -2.1894  -16.8727  -51.1700 H         1 UNK         0.0600 
    242 H242       -5.5858  -17.3760  -50.2794 H         1 UNK         0.3800 
    243 H243       -5.3995  -16.7774  -48.6518 H         1 UNK         0.3800 
    244 H244       -3.1559  -19.6654  -50.4008 H         1 UNK         0.0800 
    245 H245       -2.2706  -19.3946  -51.8723 H         1 UNK         0.0800 
    246 H246       -0.0257  -20.8190  -51.3575 H         1 UNK         0.0800 
    247 H247        0.2117  -19.2580  -52.1285 H         1 UNK         0.0800 
@<TRIPOS>BOND
     1    1    2 1    
     2    1  127 1    
     3    1  128 1    
     4    1  129 1    
     5    2    3 2    
     6    2    4 am   BACKBONE|DICT|INTERRES
     7    4    5 1    
     8    4  130 1    
     9    5    6 1    
    10    5   65 1    
    11    5  131 1    
    12    6    7 1    
    13    6  132 1    
    14    6  133 1    
    15    7    8 1    
    16    8    9 1    
    17    8  134 1    
    18    8  135 1    
    19    9   10 ar   
    20    9   14 ar   
    21   10   11 ar   
    22   10  136 1    
    23   11   12 ar   
    24   11  126 1    
    25   12   13 ar   
    26   12  137 1    
    27   13   14 ar   
    28   13   15 1    
    29   14  138 1    
    30   15   16 1    
    31   15  139 1    
    32   15  140 1    
    33   16   17 1    
    34   17   18 1    
    35   17  141 1    
    36   17  142 1    
    37   18   19 1    
    38   18   67 1    
    39   18  143 1    
    40   19   20 am   BACKBONE|DICT|INTERRES
    41   19  144 1    
    42   20   21 2    
    43   20   22 1    
    44   22   23 1    
    45   22   24 1    
    46   22  145 1    
    47   23  146 1    
    48   23  147 1    
    49   23  148 1    
    50   24   25 am   BACKBONE|DICT|INTERRES
    51   24  149 1    
    52   25   26 2    
    53   25   27 1    
    54   27   28 1    
    55   27   29 1    
    56   27  150 1    
    57   28  151 1    
    58   28  152 1    
    59   28  153 1    
    60   29   30 am   BACKBONE|DICT|INTERRES
    61   29  154 1    
    62   30   31 2    
    63   30   32 1    
    64   32   33 1    
    65   32   34 1    
    66   32  155 1    
    67   33  156 1    
    68   33  157 1    
    69   33  158 1    
    70   34   35 am   BACKBONE|DICT|INTERRES
    71   34  159 1    
    72   35   36 2    
    73   35   37 1    
    74   37   38 1    
    75   37   39 1    
    76   37  160 1    
    77   38  161 1    
    78   38  162 1    
    79   38  163 1    
    80   39   40 am   BACKBONE|DICT|INTERRES
    81   39  164 1    
    82   40   41 2    
    83   40   42 1    
    84   42   43 1    
    85   42   44 1    
    86   42  165 1    
    87   43  166 1    
    88   43  167 1    
    89   43  168 1    
    90   44   45 am   BACKBONE|DICT|INTERRES
    91   44  169 1    
    92   45   46 2    
    93   45   47 1    
    94   47   48 1    
    95   47   49 1    
    96   47  170 1    
    97   48  171 1    
    98   48  172 1    
    99   48  173 1    
   100   49   50 am   BACKBONE|DICT|INTERRES
   101   49  174 1    
   102   50   51 2    
   103   50   52 1    
   104   52   53 1    
   105   52   54 1    
   106   52  175 1    
   107   53  176 1    
   108   53  177 1    
   109   53  178 1    
   110   54   55 am   BACKBONE|DICT|INTERRES
   111   54  179 1    
   112   55   56 2    
   113   55   57 1    
   114   57   58 1    
   115   57   59 1    
   116   57  180 1    
   117   58  181 1    
   118   58  182 1    
   119   58  183 1    
   120   59   60 am   BACKBONE|DICT|INTERRES
   121   59  184 1    
   122   60   61 2    
   123   60   62 1    
   124   62   63 1    
   125   62   64 1    
   126   62  185 1    
   127   63  186 1    
   128   63  187 1    
   129   63  188 1    
   130   64   65 am   BACKBONE|DICT|INTERRES
   131   64  189 1    
   132   65   66 2    
   133   67   68 2    
   134   67   69 am   BACKBONE|DICT|INTERRES
   135   69   70 1    
   136   69  190 1    
   137   70   71 1    
   138   70   72 1    
   139   70  191 1    
   140   71  192 1    
   141   71  193 1    
   142   71  194 1    
   143   72   73 2    
   144   72   74 am   BACKBONE|DICT|INTERRES
   145   74   75 1    
   146   74  195 1    
   147   75   76 1    
   148   75   77 1    
   149   75  196 1    
   150   76  197 1    
   151   76  198 1    
   152   76  199 1    
   153   77   78 2    
   154   77   79 am   BACKBONE|DICT|INTERRES
   155   79   80 1    
   156   79  200 1    
   157   80   81 1    
   158   80   82 1    
   159   80  201 1    
   160   81  202 1    
   161   81  203 1    
   162   81  204 1    
   163   82   83 2    
   164   82   84 am   BACKBONE|DICT|INTERRES
   165   84   85 1    
   166   84  205 1    
   167   85   86 1    
   168   85   87 1    
   169   85  206 1    
   170   86  207 1    
   171   86  208 1    
   172   86  209 1    
   173   87   88 2    
   174   87   89 am   BACKBONE|DICT|INTERRES
   175   89   90 1    
   176   89  210 1    
   177   90   91 1    
   178   90   92 1    
   179   90  211 1    
   180   91  212 1    
   181   91  213 1    
   182   91  214 1    
   183   92   93 2    
   184   92   94 am   BACKBONE|DICT|INTERRES
   185   94   95 1    
   186   94  215 1    
   187   95   96 1    
   188   95   97 1    
   189   95  216 1    
   190   96  217 1    
   191   96  218 1    
   192   96  219 1    
   193   97   98 2    
   194   97   99 am   BACKBONE|DICT|INTERRES
   195   99  100 1    
   196   99  220 1    
   197  100  101 1    
   198  100  102 1    
   199  100  221 1    
   200  101  222 1    
   201  101  223 1    
   202  101  224 1    
   203  102  103 2    
   204  102  104 am   BACKBONE|DICT|INTERRES
   205  104  105 1    
   206  104  225 1    
   207  105  106 1    
   208  105  107 1    
   209  105  226 1    
   210  106  227 1    
   211  106  228 1    
   212  106  229 1    
   213  107  108 2    
   214  107  109 am   BACKBONE|DICT|INTERRES
   215  109  110 1    
   216  109  230 1    
   217  110  111 1    
   218  110  112 1    
   219  110  231 1    
   220  111  232 1    
   221  111  233 1    
   222  111  234 1    
   223  112  113 2    
   224  112  114 am   BACKBONE|DICT|INTERRES
   225  114  115 1    
   226  114  235 1    
   227  115  116 1    
   228  115  117 1    
   229  115  236 1    
   230  116  237 1    
   231  116  238 1    
   232  116  239 1    
   233  117  118 2    
   234  117  119 am   BACKBONE|DICT|INTERRES
   235  119  120 1    
   236  119  240 1    
   237  120  121 1    
   238  120  124 1    
   239  120  241 1    
   240  121  122 am   BACKBONE|DICT|INTERRES
   241  121  123 2    
   242  122  242 1    
   243  122  243 1    
   244  124  125 1    
   245  124  244 1    
   246  124  245 1    
   247  125  126 1    
   248  126  246 1    
   249  126  247 1    
@<TRIPOS>SUBSTRUCTURE
     1 UNK         1 GROUP             0       ****    0 ROOT    
