@<TRIPOS>MOLECULE
3R540
247   249    1
SMALL
USER_CHARGES


@<TRIPOS>ATOM
      1 CA         -0.0054  -16.5850  -50.0223 C.3       0 UNK        -0.1800 
      2 C          -0.3060  -16.3674  -48.5460 C.2       0 UNK         0.5000 
      3 O           0.5915  -16.4728  -47.7121 O.2       0 UNK        -0.5000 
      4 N          -1.5648  -16.0528  -48.2203 N.am      1 UNK        -0.5000 
      5 CA         -2.0732  -15.8254  -46.8633 C.3       1 UNK         0.1400 
      6 C6         -3.5505  -16.2886  -46.7164 C.3       23 UNK        -0.0398 
      7 S7         -4.7345  -15.5257  -47.8849 S.3       23 UNK        -0.2404 
      8 C8         -4.7460  -16.7143  -49.2631 C.3       23 UNK        -0.0205 
      9 C9         -5.7922  -17.8102  -49.1100 C.ar      23 UNK        -0.0193 
     10 C10        -7.0391  -17.6742  -49.7276 C.ar      23 UNK        -0.1150 
     11 C11        -7.9671  -18.7189  -49.6938 C.ar      23 UNK        -0.0193 
     12 C12        -7.6556  -19.8947  -49.0068 C.ar      23 UNK        -0.1150 
     13 C13        -6.4121  -20.0466  -48.3920 C.ar      23 UNK        -0.0193 
     14 C14        -5.4853  -19.0006  -48.4438 C.ar      23 UNK        -0.1150 
     15 C15        -6.0511  -21.3608  -47.7213 C.3       23 UNK        -0.0205 
     16 S16        -5.1765  -22.4401  -48.8954 S.3       23 UNK        -0.2404 
     17 C17        -4.0956  -23.4211  -47.8049 C.3       23 UNK        -0.0398 
     18 CA         -2.7254  -22.7277  -47.6017 C.3       11 UNK         0.1400 
     19 N          -2.8030  -21.6343  -46.6309 N.am      11 UNK        -0.5000 
     20 C          -1.8403  -20.7363  -46.3945 C.2       10 UNK         0.5000 
     21 O          -0.7560  -20.7333  -46.9802 O.2       10 UNK        -0.5000 
     22 CA         -2.1101  -19.7023  -45.2851 C.3       10 UNK         0.1400 
     23 CB         -3.5906  -19.5898  -44.8571 C.3       10 UNK        -0.1800 
     24 N          -1.2776  -19.9345  -44.1066 N.am      10 UNK        -0.5000 
     25 C          -1.1865  -21.0543  -43.3752 C.2       9 UNK         0.5000 
     26 O          -1.7664  -22.1052  -43.6527 O.2       9 UNK        -0.5000 
     27 CA         -0.3165  -20.9800  -42.1067 C.3       9 UNK         0.1400 
     28 CB          1.1644  -21.2000  -42.4396 C.3       9 UNK        -0.1800 
     29 N          -0.4563  -19.7094  -41.3951 N.am      9 UNK        -0.5000 
     30 C          -1.5586  -19.3155  -40.7427 C.2       8 UNK         0.5000 
     31 O          -2.5775  -19.9990  -40.6380 O.2       8 UNK        -0.5000 
     32 CA         -1.5144  -17.9168  -40.1059 C.3       8 UNK         0.1400 
     33 CB         -0.7579  -17.9438  -38.7683 C.3       8 UNK        -0.1800 
     34 N          -0.8940  -16.9397  -40.9999 N.am      8 UNK        -0.5000 
     35 C          -1.5364  -16.3246  -42.0020 C.2       7 UNK         0.5000 
     36 O          -2.7287  -16.4936  -42.2578 O.2       7 UNK        -0.5000 
     37 CA         -0.7124  -15.3546  -42.8693 C.3       7 UNK         0.1400 
     38 CB         -0.7703  -13.9372  -42.2815 C.3       7 UNK        -0.1800 
     39 N           0.6836  -15.7622  -43.0461 N.am      7 UNK        -0.5000 
     40 C           1.0648  -16.8683  -43.7013 C.2       6 UNK         0.5000 
     41 O           0.2740  -17.6187  -44.2680 O.2       6 UNK        -0.5000 
     42 CA          2.5546  -17.2571  -43.6575 C.3       6 UNK         0.1400 
     43 CB          3.3382  -16.6534  -44.8291 C.3       6 UNK        -0.1800 
     44 N           3.2183  -16.9069  -42.4041 N.am      6 UNK        -0.5000 
     45 C           2.8923  -17.3585  -41.1885 C.2       5 UNK         0.5000 
     46 O           1.9635  -18.1411  -40.9851 O.2       5 UNK        -0.5000 
     47 CA          3.7045  -16.8191  -39.9938 C.3       5 UNK         0.1400 
     48 CB          5.0168  -17.6044  -39.8119 C.3       5 UNK        -0.1800 
     49 N           3.9364  -15.3663  -40.0296 N.am      5 UNK        -0.5000 
     50 C           4.6695  -14.6488  -40.8930 C.2       4 UNK         0.5000 
     51 O           5.3507  -15.1333  -41.7998 O.2       4 UNK        -0.5000 
     52 CA          4.5960  -13.1191  -40.7345 C.3       4 UNK         0.1400 
     53 CB          5.9012  -12.5743  -40.1346 C.3       4 UNK        -0.1800 
     54 N           4.3243  -12.4322  -42.0005 N.am      4 UNK        -0.5000 
     55 C           3.2631  -12.6439  -42.7922 C.2       3 UNK         0.5000 
     56 O           2.3859  -13.4745  -42.5442 O.2       3 UNK        -0.5000 
     57 CA          3.1619  -11.7343  -44.0352 C.3       3 UNK         0.1400 
     58 CB          4.3461  -11.9442  -45.0035 C.3       3 UNK        -0.1800 
     59 N           1.8660  -11.8295  -44.7248 N.am      3 UNK        -0.5000 
     60 C           1.4053  -12.8267  -45.4939 C.2       2 UNK         0.5000 
     61 O           2.0564  -13.8198  -45.8202 O.2       2 UNK        -0.5000 
     62 CA         -0.0308  -12.6662  -46.0145 C.3       2 UNK         0.1400 
     63 CB         -0.0892  -11.6839  -47.1971 C.3       2 UNK        -0.1800 
     64 N          -0.5313  -13.9679  -46.4429 N.am      2 UNK        -0.5000 
     65 C          -1.8024  -14.3767  -46.3922 C.2       1 UNK         0.5000 
     66 O          -2.7220  -13.6650  -45.9865 O.2       1 UNK        -0.5000 
     67 C          -1.6176  -23.7501  -47.2745 C.2       11 UNK         0.5000 
     68 O          -1.1333  -24.3962  -48.2023 O.2       11 UNK        -0.5000 
     69 N          -1.1961  -23.8581  -46.0046 N.am      12 UNK        -0.5000 
     70 CA         -0.0667  -24.6993  -45.6011 C.3       12 UNK         0.1400 
     71 CB         -0.1332  -24.9738  -44.0913 C.3       12 UNK        -0.1800 
     72 C           1.2959  -24.0898  -45.9867 C.2       12 UNK         0.5000 
     73 O           2.2326  -24.8431  -46.2517 O.2       12 UNK        -0.5000 
     74 N           1.3846  -22.7516  -46.0335 N.am      13 UNK        -0.5000 
     75 CA          2.5769  -22.0267  -46.4809 C.3       13 UNK         0.1400 
     76 CB          2.6176  -20.6264  -45.8480 C.3       13 UNK        -0.1800 
     77 C           2.6357  -21.9359  -48.0131 C.2       13 UNK         0.5000 
     78 O           3.7023  -22.1323  -48.5958 O.2       13 UNK        -0.5000 
     79 N           1.4822  -21.6624  -48.6370 N.am      14 UNK        -0.5000 
     80 CA          1.3260  -21.5737  -50.0902 C.3       14 UNK         0.1400 
     81 CB          0.0189  -20.8306  -50.3905 C.3       14 UNK        -0.1800 
     82 C           1.3387  -22.9434  -50.8003 C.2       14 UNK         0.5000 
     83 O           1.5044  -22.9829  -52.0192 O.2       14 UNK        -0.5000 
     84 N           1.1428  -24.0266  -50.0336 N.am      15 UNK        -0.5000 
     85 CA          1.0415  -25.4261  -50.4606 C.3       15 UNK         0.1400 
     86 CB          2.3801  -25.9221  -51.0466 C.3       15 UNK        -0.1800 
     87 C          -0.1664  -25.6746  -51.3894 C.2       15 UNK         0.5000 
     88 O          -0.0461  -26.4061  -52.3738 O.2       15 UNK        -0.5000 
     89 N          -1.3053  -25.0505  -51.0432 N.am      16 UNK        -0.5000 
     90 CA         -2.5966  -25.0747  -51.7439 C.3       16 UNK         0.1400 
     91 CB         -3.2891  -26.4356  -51.5320 C.3       16 UNK        -0.1800 
     92 C          -2.4632  -24.6881  -53.2333 C.2       16 UNK         0.5000 
     93 O          -2.7768  -25.4870  -54.1177 O.2       16 UNK        -0.5000 
     94 N          -1.9369  -23.4770  -53.4634 N.am      17 UNK        -0.5000 
     95 CA         -1.4925  -22.9597  -54.7610 C.3       17 UNK         0.1400 
     96 CB         -0.9300  -21.5427  -54.5566 C.3       17 UNK        -0.1800 
     97 C          -2.5495  -22.9467  -55.8834 C.2       17 UNK         0.5000 
     98 O          -2.1816  -23.1129  -57.0470 O.2       17 UNK        -0.5000 
     99 N          -3.8204  -22.7178  -55.5194 N.am      18 UNK        -0.5000 
    100 CA        -4.9651  -22.4740  -56.4077 C.3       18 UNK         0.1400 
    101 CB        -5.3177  -23.7348  -57.2236 C.3       18 UNK        -0.1800 
    102 C         -4.7522  -21.2142  -57.2767 C.2       18 UNK         0.5000 
    103 O         -5.0274  -21.2231  -58.4782 O.2       18 UNK        -0.5000 
    104 N         -4.2311  -20.1605  -56.6386 N.am      19 UNK        -0.5000 
    105 CA        -3.8192  -18.8996  -57.2445 C.3       19 UNK         0.1400 
    106 CB        -2.5185  -19.0899  -58.0560 C.3       19 UNK        -0.1800 
    107 C         -3.6954  -17.8542  -56.1264 C.2       19 UNK         0.5000 
    108 O         -4.6946  -17.2256  -55.7770 O.2       19 UNK        -0.5000 
    109 N         -2.4870  -17.7095  -55.5597 N.am      20 UNK        -0.5000 
    110 CA        -2.1769  -16.8107  -54.4385 C.3       20 UNK         0.1400 
    111 CB        -0.6537  -16.7639  -54.2418 C.3       20 UNK        -0.1800 
    112 C         -2.8706  -17.2131  -53.1217 C.2       20 UNK         0.5000 
    113 O         -3.1276  -16.3575  -52.2748 O.2       20 UNK        -0.5000 
    114 N         -3.1725  -18.5070  -52.9962 N.am      21 UNK        -0.5000 
    115 CA        -4.0410  -19.1005  -51.9937 C.3       21 UNK         0.1400 
    116 CB        -3.1825  -19.8716  -50.9847 C.3       21 UNK        -0.1800 
    117 C         -4.9995  -20.0384  -52.7334 C.2       21 UNK         0.5000 
    118 O         -4.6233  -20.5611  -53.7861 O.2       21 UNK        -0.5000 
    119 N         -6.2072  -20.2322  -52.1938 N.am      22 UNK        -0.5000 
    120 CA        -7.2808  -21.0027  -52.8483 C.3       22 UNK         0.1400 
    121 C         -7.0408  -22.5392  -52.9225 C.2       22 UNK         0.5000 
    122 N         -6.1376  -23.1120  -52.1369 N.am      22 UNK        -0.7600 
    123 O         -7.6807  -23.2206  -53.7179 O.2       22 UNK        -0.5000 
    124 C124       -8.6822  -20.7020  -52.2531 C.3       23 UNK        -0.0398 
    125 S125       -9.0969  -18.9204  -52.2193 S.3       23 UNK        -0.2404 
    126 C126       -9.2886  -18.5934  -50.4349 C.3       23 UNK        -0.0205 
    127 H127       -0.9182  -16.7043  -50.6057 H         1 UNK         0.0600 
    128 H128        0.5997  -17.4813  -50.1562 H         1 UNK         0.0600 
    129 H129        0.5494  -15.7362  -50.4215 H         1 UNK         0.0600 
    130 H130       -2.2396  -15.9055  -48.9569 H         1 UNK         0.3000 
    131 H131       -1.4950  -16.4523  -46.1816 H         1 UNK         0.0600 
    132 H132       -3.9045  -16.1027  -45.7008 H         1 UNK         0.0800 
    133 H133       -3.5966  -17.3683  -46.8397 H         1 UNK         0.0800 
    134 H134       -4.9357  -16.1582  -50.1826 H         1 UNK         0.0800 
    135 H135       -3.7608  -17.1624  -49.3909 H         1 UNK         0.0800 
    136 H136       -7.2743  -16.7690  -50.2702 H         1 UNK         0.1150 
    137 H137       -8.3670  -20.7079  -48.9776 H         1 UNK         0.1150 
    138 H138       -4.5079  -19.1347  -48.0056 H         1 UNK         0.1150 
    139 H139       -5.4419  -21.1647  -46.8414 H         1 UNK         0.0800 
    140 H140       -6.9471  -21.8702  -47.3634 H         1 UNK         0.0800 
    141 H141       -4.5910  -23.6206  -46.8533 H         1 UNK         0.0800 
    142 H142       -3.9758  -24.3917  -48.2908 H         1 UNK         0.0800 
    143 H143       -2.4310  -22.2823  -48.5538 H         1 UNK         0.0600 
    144 H144       -3.6297  -21.6043  -46.0541 H         1 UNK         0.3000 
    145 H145       -1.8052  -18.7399  -45.6944 H         1 UNK         0.0600 
    146 H146       -3.7219  -18.7724  -44.1474 H         1 UNK         0.0600 
    147 H147       -4.2413  -19.3796  -45.7043 H         1 UNK         0.0600 
    148 H148       -3.9535  -20.4980  -44.3745 H         1 UNK         0.0600 
    149 H149       -0.6957  -19.1397  -43.8531 H         1 UNK         0.3000 
    150 H150       -0.6384  -21.7839  -41.4414 H         1 UNK         0.0600 
    151 H151        1.3127  -22.0888  -43.0533 H         1 UNK         0.0600 
    152 H152        1.7549  -21.3265  -41.5321 H         1 UNK         0.0600 
    153 H153        1.5714  -20.3473  -42.9800 H         1 UNK         0.0600 
    154 H154        0.3584  -19.1019  -41.3802 H         1 UNK         0.3000 
    155 H155       -2.5420  -17.6087  -39.9003 H         1 UNK         0.0600 
    156 H156       -0.7622  -16.9623  -38.2940 H         1 UNK         0.0600 
    157 H157        0.2807  -18.2513  -38.8921 H         1 UNK         0.0600 
    158 H158       -1.2244  -18.6425  -38.0728 H         1 UNK         0.0600 
    159 H159        0.1002  -16.7931  -40.8951 H         1 UNK         0.3000 
    160 H160       -1.1799  -15.3337  -43.8520 H         1 UNK         0.0600 
    161 H161       -0.2735  -13.8842  -41.3119 H         1 UNK         0.0600 
    162 H162       -1.8020  -13.6116  -42.1429 H         1 UNK         0.0600 
    163 H163       -0.2914  -13.2152  -42.9408 H         1 UNK         0.0600 
    164 H164        1.3940  -15.1383  -42.6721 H         1 UNK         0.3000 
    165 H165        2.5991  -18.3424  -43.7571 H         1 UNK         0.0600 
    166 H166        3.5189  -15.5892  -44.6789 H         1 UNK         0.0600 
    167 H167        4.3069  -17.1395  -44.9432 H         1 UNK         0.0600 
    168 H168        2.7999  -16.7717  -45.7709 H         1 UNK         0.0600 
    169 H169        3.9937  -16.2520  -42.4607 H         1 UNK         0.3000 
    170 H170        3.0968  -16.9961  -39.1048 H         1 UNK         0.0600 
    171 H171        4.8149  -18.6670  -39.6719 H         1 UNK         0.0600 
    172 H172        5.6747  -17.5119  -40.6763 H         1 UNK         0.0600 
    173 H173        5.5641  -17.2593  -38.9348 H         1 UNK         0.0600 
    174 H174        3.4033  -14.8495  -39.3439 H         1 UNK         0.3000 
    175 H175        3.7788  -12.8751  -40.0527 H         1 UNK         0.0600 
    176 H176        5.8358  -11.5014  -39.9526 H         1 UNK         0.0600 
    177 H177        6.1213  -13.0521  -39.1790 H         1 UNK         0.0600 
    178 H178        6.7516  -12.7527  -40.7941 H         1 UNK         0.0600 
    179 H179        5.0080  -11.7461  -42.2838 H         1 UNK         0.3000 
    180 H180        3.2160  -10.7077  -43.6699 H         1 UNK         0.0600 
    181 H181        4.2251  -11.3527  -45.9111 H         1 UNK         0.0600 
    182 H182        5.2874  -11.6398  -44.5453 H         1 UNK         0.0600 
    183 H183        4.4557  -12.9892  -45.2947 H         1 UNK         0.0600 
    184 H184        1.2320  -11.0701  -44.5204 H         1 UNK         0.3000 
    185 H185       -0.6474  -12.2879  -45.1967 H         1 UNK         0.0600 
    186 H186       -1.1112  -11.5575  -47.5549 H         1 UNK         0.0600 
    187 H187        0.2774  -10.6979  -46.9097 H         1 UNK         0.0600 
    188 H188        0.5179  -12.0302  -48.0345 H         1 UNK         0.0600 
    189 H189        0.1892  -14.6262  -46.7292 H         1 UNK         0.3000 
    190 H190       -1.6162  -23.2812  -45.2816 H         1 UNK         0.3000 
    191 H191       -0.1541  -25.6596  -46.1144 H         1 UNK         0.0600 
    192 H192        0.6472  -25.6737  -43.7899 H         1 UNK         0.0600 
    193 H193       -1.0903  -25.4139  -43.8115 H         1 UNK         0.0600 
    194 H194        0.0023  -24.0657  -43.5055 H         1 UNK         0.0600 
    195 H195        0.5541  -22.1993  -45.8688 H         1 UNK         0.3000 
    196 H196        3.4699  -22.5622  -46.1509 H         1 UNK         0.0600 
    197 H197        3.3948  -20.0101  -46.3021 H         1 UNK         0.0600 
    198 H198        2.8518  -20.6932  -44.7879 H         1 UNK         0.0600 
    199 H199        1.6722  -20.0937  -45.9580 H         1 UNK         0.0600 
    200 H200        0.6634  -21.4461  -48.0749 H         1 UNK         0.3000 
    201 H201        2.1536  -20.9855  -50.4922 H         1 UNK         0.0600 
    202 H202       -0.0033  -19.8558  -49.9035 H         1 UNK         0.0600 
    203 H203       -0.8438  -21.3967  -50.0415 H         1 UNK         0.0600 
    204 H204       -0.1018  -20.6632  -51.4614 H         1 UNK         0.0600 
    205 H205        0.9565  -23.8680  -49.0530 H         1 UNK         0.3000 
    206 H206        0.8486  -26.0041  -49.5556 H         1 UNK         0.0600 
    207 H207        3.2040  -25.7359  -50.3576 H         1 UNK         0.0600 
    208 H208        2.3501  -26.9962  -51.2329 H         1 UNK         0.0600 
    209 H209        2.6164  -25.4337  -51.9923 H         1 UNK         0.0600 
    210 H210       -1.2860  -24.5420  -50.1649 H         1 UNK         0.3000 
    211 H211       -3.2216  -24.3117  -51.2770 H         1 UNK         0.0600 
    212 H212       -2.7151  -27.2544  -51.9671 H         1 UNK         0.0600 
    213 H213       -4.2779  -26.4470  -51.9919 H         1 UNK         0.0600 
    214 H214       -3.4220  -26.6470  -50.4709 H         1 UNK         0.0600 
    215 H215       -1.6863  -22.9170  -52.6633 H         1 UNK         0.3000 
    216 H216       -0.6769  -23.6032  -55.0969 H         1 UNK         0.0600 
    217 H217       -1.6810  -20.8686  -54.1443 H         1 UNK         0.0600 
    218 H218       -0.5866  -21.1157  -55.4999 H         1 UNK         0.0600 
    219 H219       -0.0767  -21.5508  -53.8786 H         1 UNK         0.0600 
    220 H220       -3.9977  -22.5283  -54.5410 H         1 UNK         0.3000 
    221 H221       -5.8150  -22.2558  -55.7602 H         1 UNK         0.0600 
    222 H222       -4.5400  -23.9856  -57.9452 H         1 UNK         0.0600 
    223 H223       -5.4609  -24.5961  -56.5710 H         1 UNK         0.0600 
    224 H224       -6.2447  -23.5910  -57.7796 H         1 UNK         0.0600 
    225 H225       -4.1436  -20.2265  -55.6282 H         1 UNK         0.3000 
    226 H226       -4.6052  -18.5575  -57.9209 H         1 UNK         0.0600 
    227 H227       -2.6939  -19.7097  -58.9353 H         1 UNK         0.0600 
    228 H228       -2.1326  -18.1339  -58.4124 H         1 UNK         0.0600 
    229 H229       -1.7356  -19.5723  -57.4698 H         1 UNK         0.0600 
    230 H230       -1.7187  -18.2545  -55.9228 H         1 UNK         0.3000 
    231 H231       -2.5231  -15.8088  -54.7006 H         1 UNK         0.0600 
    232 H232       -0.3852  -16.0858  -53.4304 H         1 UNK         0.0600 
    233 H233       -0.1498  -16.4082  -55.1407 H         1 UNK         0.0600 
    234 H234       -0.2491  -17.7464  -53.9947 H         1 UNK         0.0600 
    235 H235       -2.9730  -19.1172  -53.7752 H         1 UNK         0.3000 
    236 H236       -4.6255  -18.3279  -51.4982 H         1 UNK         0.0600 
    237 H237       -2.4569  -19.2163  -50.5030 H         1 UNK         0.0600 
    238 H238       -3.7946  -20.3092  -50.2002 H         1 UNK         0.0600 
    239 H239       -2.6420  -20.6851  -51.4684 H         1 UNK         0.0600 
    240 H240       -6.4517  -19.7802  -51.3235 H         1 UNK         0.3000 
    241 H241       -7.3073  -20.6669  -53.8871 H         1 UNK         0.0600 
    242 H242       -5.6546  -22.5745  -51.4342 H         1 UNK         0.3800 
    243 H243       -6.0144  -24.1096  -52.1869 H         1 UNK         0.3800 
    244 H244       -9.4519  -21.1964  -52.8484 H         1 UNK         0.0800 
    245 H245       -8.7710  -21.1261  -51.2534 H         1 UNK         0.0800 
    246 H246      -10.0340  -19.2715  -50.0164 H         1 UNK         0.0800 
    247 H247       -9.6852  -17.5859  -50.3010 H         1 UNK         0.0800 
@<TRIPOS>BOND
     1    1    2 1    
     2    1  127 1    
     3    1  128 1    
     4    1  129 1    
     5    2    3 2    
     6    2    4 am   BACKBONE|DICT|INTERRES
     7    4    5 1    
     8    4  130 1    
     9    5    6 1    
    10    5   65 1    
    11    5  131 1    
    12    6    7 1    
    13    6  132 1    
    14    6  133 1    
    15    7    8 1    
    16    8    9 1    
    17    8  134 1    
    18    8  135 1    
    19    9   10 ar   
    20    9   14 ar   
    21   10   11 ar   
    22   10  136 1    
    23   11   12 ar   
    24   11  126 1    
    25   12   13 ar   
    26   12  137 1    
    27   13   14 ar   
    28   13   15 1    
    29   14  138 1    
    30   15   16 1    
    31   15  139 1    
    32   15  140 1    
    33   16   17 1    
    34   17   18 1    
    35   17  141 1    
    36   17  142 1    
    37   18   19 1    
    38   18   67 1    
    39   18  143 1    
    40   19   20 am   BACKBONE|DICT|INTERRES
    41   19  144 1    
    42   20   21 2    
    43   20   22 1    
    44   22   23 1    
    45   22   24 1    
    46   22  145 1    
    47   23  146 1    
    48   23  147 1    
    49   23  148 1    
    50   24   25 am   BACKBONE|DICT|INTERRES
    51   24  149 1    
    52   25   26 2    
    53   25   27 1    
    54   27   28 1    
    55   27   29 1    
    56   27  150 1    
    57   28  151 1    
    58   28  152 1    
    59   28  153 1    
    60   29   30 am   BACKBONE|DICT|INTERRES
    61   29  154 1    
    62   30   31 2    
    63   30   32 1    
    64   32   33 1    
    65   32   34 1    
    66   32  155 1    
    67   33  156 1    
    68   33  157 1    
    69   33  158 1    
    70   34   35 am   BACKBONE|DICT|INTERRES
    71   34  159 1    
    72   35   36 2    
    73   35   37 1    
    74   37   38 1    
    75   37   39 1    
    76   37  160 1    
    77   38  161 1    
    78   38  162 1    
    79   38  163 1    
    80   39   40 am   BACKBONE|DICT|INTERRES
    81   39  164 1    
    82   40   41 2    
    83   40   42 1    
    84   42   43 1    
    85   42   44 1    
    86   42  165 1    
    87   43  166 1    
    88   43  167 1    
    89   43  168 1    
    90   44   45 am   BACKBONE|DICT|INTERRES
    91   44  169 1    
    92   45   46 2    
    93   45   47 1    
    94   47   48 1    
    95   47   49 1    
    96   47  170 1    
    97   48  171 1    
    98   48  172 1    
    99   48  173 1    
   100   49   50 am   BACKBONE|DICT|INTERRES
   101   49  174 1    
   102   50   51 2    
   103   50   52 1    
   104   52   53 1    
   105   52   54 1    
   106   52  175 1    
   107   53  176 1    
   108   53  177 1    
   109   53  178 1    
   110   54   55 am   BACKBONE|DICT|INTERRES
   111   54  179 1    
   112   55   56 2    
   113   55   57 1    
   114   57   58 1    
   115   57   59 1    
   116   57  180 1    
   117   58  181 1    
   118   58  182 1    
   119   58  183 1    
   120   59   60 am   BACKBONE|DICT|INTERRES
   121   59  184 1    
   122   60   61 2    
   123   60   62 1    
   124   62   63 1    
   125   62   64 1    
   126   62  185 1    
   127   63  186 1    
   128   63  187 1    
   129   63  188 1    
   130   64   65 am   BACKBONE|DICT|INTERRES
   131   64  189 1    
   132   65   66 2    
   133   67   68 2    
   134   67   69 am   BACKBONE|DICT|INTERRES
   135   69   70 1    
   136   69  190 1    
   137   70   71 1    
   138   70   72 1    
   139   70  191 1    
   140   71  192 1    
   141   71  193 1    
   142   71  194 1    
   143   72   73 2    
   144   72   74 am   BACKBONE|DICT|INTERRES
   145   74   75 1    
   146   74  195 1    
   147   75   76 1    
   148   75   77 1    
   149   75  196 1    
   150   76  197 1    
   151   76  198 1    
   152   76  199 1    
   153   77   78 2    
   154   77   79 am   BACKBONE|DICT|INTERRES
   155   79   80 1    
   156   79  200 1    
   157   80   81 1    
   158   80   82 1    
   159   80  201 1    
   160   81  202 1    
   161   81  203 1    
   162   81  204 1    
   163   82   83 2    
   164   82   84 am   BACKBONE|DICT|INTERRES
   165   84   85 1    
   166   84  205 1    
   167   85   86 1    
   168   85   87 1    
   169   85  206 1    
   170   86  207 1    
   171   86  208 1    
   172   86  209 1    
   173   87   88 2    
   174   87   89 am   BACKBONE|DICT|INTERRES
   175   89   90 1    
   176   89  210 1    
   177   90   91 1    
   178   90   92 1    
   179   90  211 1    
   180   91  212 1    
   181   91  213 1    
   182   91  214 1    
   183   92   93 2    
   184   92   94 am   BACKBONE|DICT|INTERRES
   185   94   95 1    
   186   94  215 1    
   187   95   96 1    
   188   95   97 1    
   189   95  216 1    
   190   96  217 1    
   191   96  218 1    
   192   96  219 1    
   193   97   98 2    
   194   97   99 am   BACKBONE|DICT|INTERRES
   195   99  100 1    
   196   99  220 1    
   197  100  101 1    
   198  100  102 1    
   199  100  221 1    
   200  101  222 1    
   201  101  223 1    
   202  101  224 1    
   203  102  103 2    
   204  102  104 am   BACKBONE|DICT|INTERRES
   205  104  105 1    
   206  104  225 1    
   207  105  106 1    
   208  105  107 1    
   209  105  226 1    
   210  106  227 1    
   211  106  228 1    
   212  106  229 1    
   213  107  108 2    
   214  107  109 am   BACKBONE|DICT|INTERRES
   215  109  110 1    
   216  109  230 1    
   217  110  111 1    
   218  110  112 1    
   219  110  231 1    
   220  111  232 1    
   221  111  233 1    
   222  111  234 1    
   223  112  113 2    
   224  112  114 am   BACKBONE|DICT|INTERRES
   225  114  115 1    
   226  114  235 1    
   227  115  116 1    
   228  115  117 1    
   229  115  236 1    
   230  116  237 1    
   231  116  238 1    
   232  116  239 1    
   233  117  118 2    
   234  117  119 am   BACKBONE|DICT|INTERRES
   235  119  120 1    
   236  119  240 1    
   237  120  121 1    
   238  120  124 1    
   239  120  241 1    
   240  121  122 am   BACKBONE|DICT|INTERRES
   241  121  123 2    
   242  122  242 1    
   243  122  243 1    
   244  124  125 1    
   245  124  244 1    
   246  124  245 1    
   247  125  126 1    
   248  126  246 1    
   249  126  247 1    
@<TRIPOS>SUBSTRUCTURE
     1 UNK         1 GROUP             0       ****    0 ROOT    
