@<TRIPOS>MOLECULE
3R540
247   249    1
SMALL
USER_CHARGES


@<TRIPOS>ATOM
      1 CA         -2.4065  -11.4754  -48.6858 C.3       0 UNK        -0.1800 
      2 C          -1.3573  -12.4653  -48.2007 C.2       0 UNK         0.5000 
      3 O          -1.6160  -13.2101  -47.2575 O.2       0 UNK        -0.5000 
      4 N          -0.1840  -12.4730  -48.8478 N.am      1 UNK        -0.5000 
      5 CA          0.9747  -13.3282  -48.5521 C.3       1 UNK         0.1400 
      6 C6          0.7159  -14.8469  -48.7443 C.3       23 UNK        -0.0398 
      7 S7          0.2207  -15.2270  -50.4609 S.3       23 UNK        -0.2404 
      8 C8         -1.4196  -15.9878  -50.2072 C.3       23 UNK        -0.0205 
      9 C9         -1.4217  -17.4532  -49.7642 C.ar      23 UNK        -0.0193 
     10 C10        -2.6588  -18.0913  -49.6290 C.ar      23 UNK        -0.1150 
     11 C11        -2.7395  -19.4390  -49.2687 C.ar      23 UNK        -0.0193 
     12 C12        -1.5647  -20.1513  -49.0256 C.ar      23 UNK        -0.1150 
     13 C13        -0.3184  -19.5345  -49.1539 C.ar      23 UNK        -0.0193 
     14 C14        -0.2518  -18.1875  -49.5174 C.ar      23 UNK        -0.1150 
     15 C15         0.9539  -20.3406  -48.9426 C.3       23 UNK        -0.0205 
     16 S16         1.7524  -20.0226  -47.3353 S.3       23 UNK        -0.2404 
     17 C17         0.4173  -20.3592  -46.1379 C.3       23 UNK        -0.0398 
     18 CA          0.3861  -21.8069  -45.5953 C.3       11 UNK         0.1400 
     19 N          -0.3246  -21.8581  -44.3151 N.am      11 UNK        -0.5000 
     20 C          -0.4736  -22.9340  -43.5308 C.2       10 UNK         0.5000 
     21 O          -0.0225  -24.0474  -43.7981 O.2       10 UNK        -0.5000 
     22 CA         -1.3027  -22.7305  -42.2528 C.3       10 UNK         0.1400 
     23 CB         -0.4670  -22.0456  -41.1600 C.3       10 UNK        -0.1800 
     24 N          -2.4955  -21.9308  -42.5314 N.am      10 UNK        -0.5000 
     25 C          -3.6412  -22.4333  -43.0119 C.2       9 UNK         0.5000 
     26 O          -3.8397  -23.6359  -43.1859 O.2       9 UNK        -0.5000 
     27 CA         -4.7523  -21.4265  -43.3732 C.3       9 UNK         0.1400 
     28 CB         -5.6728  -21.1860  -42.1672 C.3       9 UNK        -0.1800 
     29 N          -4.2505  -20.1378  -43.8567 N.am      9 UNK        -0.5000 
     30 C          -3.5546  -19.9697  -44.9895 C.2       8 UNK         0.5000 
     31 O          -3.2418  -20.8909  -45.7398 O.2       8 UNK        -0.5000 
     32 CA         -3.0727  -18.5422  -45.3058 C.3       8 UNK         0.1400 
     33 CB         -4.1780  -17.7344  -46.0016 C.3       8 UNK        -0.1800 
     34 N          -2.5937  -17.7985  -44.1378 N.am      8 UNK        -0.5000 
     35 C          -1.6581  -18.2030  -43.2681 C.2       7 UNK         0.5000 
     36 O          -1.1355  -19.3186  -43.2985 O.2       7 UNK        -0.5000 
     37 CA         -1.2317  -17.1736  -42.2052 C.3       7 UNK         0.1400 
     38 CB         -0.1872  -17.7336  -41.2233 C.3       7 UNK        -0.1800 
     39 N          -0.6909  -15.9706  -42.8365 N.am      7 UNK        -0.5000 
     40 C          -1.4172  -14.9536  -43.3254 C.2       6 UNK         0.5000 
     41 O          -2.6498  -14.9471  -43.3113 O.2       6 UNK        -0.5000 
     42 CA         -0.6487  -13.7716  -43.9583 C.3       6 UNK         0.1400 
     43 CB         -1.3794  -12.4221  -43.8085 C.3       6 UNK        -0.1800 
     44 N           0.7428  -13.6693  -43.5115 N.am      6 UNK        -0.5000 
     45 C           1.1909  -13.4812  -42.2598 C.2       5 UNK         0.5000 
     46 O           0.4584  -13.2250  -41.3033 O.2       5 UNK        -0.5000 
     47 CA          2.7117  -13.6334  -42.0347 C.3       5 UNK         0.1400 
     48 CB          3.0376  -14.2896  -40.6768 C.3       5 UNK        -0.1800 
     49 N           3.4080  -14.3321  -43.1242 N.am      5 UNK        -0.5000 
     50 C           3.2199  -15.5922  -43.5522 C.2       4 UNK         0.5000 
     51 O           2.3959  -16.3582  -43.0511 O.2       4 UNK        -0.5000 
     52 CA          4.0427  -16.0459  -44.7773 C.3       4 UNK         0.1400 
     53 CB          3.2408  -17.0045  -45.6768 C.3       4 UNK        -0.1800 
     54 N           4.4598  -14.8936  -45.5778 N.am      4 UNK        -0.5000 
     55 C           5.6841  -14.3488  -45.5957 C.2       3 UNK         0.5000 
     56 O           6.6519  -14.8223  -45.0002 O.2       3 UNK        -0.5000 
     57 CA          5.8502  -13.0287  -46.3808 C.3       3 UNK         0.1400 
     58 CB          6.4026  -13.3080  -47.7866 C.3       3 UNK        -0.1800 
     59 N           4.6070  -12.2604  -46.5035 N.am      3 UNK        -0.5000 
     60 C           3.9284  -11.7162  -45.4824 C.2       2 UNK         0.5000 
     61 O           4.3347  -11.7209  -44.3208 O.2       2 UNK        -0.5000 
     62 CA          2.5354  -11.1282  -45.7932 C.3       2 UNK         0.1400 
     63 CB          2.6151   -9.6017  -45.9375 C.3       2 UNK        -0.1800 
     64 N           1.8969  -11.6899  -46.9896 N.am      2 UNK        -0.5000 
     65 C           1.5939  -12.9826  -47.1813 C.2       1 UNK         0.5000 
     66 O           1.8131  -13.8605  -46.3434 O.2       1 UNK        -0.5000 
     67 C          -0.1860  -22.8032  -46.6293 C.2       11 UNK         0.5000 
     68 O           0.5845  -23.4314  -47.3548 O.2       11 UNK        -0.5000 
     69 N          -1.5147  -22.9870  -46.6343 N.am      12 UNK        -0.5000 
     70 CA         -2.2515  -23.9267  -47.4847 C.3       12 UNK         0.1400 
     71 CB         -3.7514  -23.8089  -47.1768 C.3       12 UNK        -0.1800 
     72 C          -1.8081  -25.3985  -47.3616 C.2       12 UNK         0.5000 
     73 O          -1.9954  -26.1599  -48.3097 O.2       12 UNK        -0.5000 
     74 N          -1.2205  -25.7795  -46.2178 N.am      13 UNK        -0.5000 
     75 CA         -0.6465  -27.1086  -46.0026 C.3       13 UNK         0.1400 
     76 CB         -0.4764  -27.3513  -44.4954 C.3       13 UNK        -0.1800 
     77 C           0.6950  -27.3038  -46.7375 C.2       13 UNK         0.5000 
     78 O           1.0485  -28.4423  -47.0471 O.2       13 UNK        -0.5000 
     79 N           1.4151  -26.2048  -47.0006 N.am      14 UNK        -0.5000 
     80 CA          2.6829  -26.1932  -47.7268 C.3       14 UNK         0.1400 
     81 CB          3.6115  -25.1343  -47.1103 C.3       14 UNK        -0.1800 
     82 C           2.4686  -25.9196  -49.2244 C.2       14 UNK         0.5000 
     83 O           3.1181  -26.5601  -50.0522 O.2       14 UNK        -0.5000 
     84 N           1.5682  -24.9835  -49.5489 N.am      15 UNK        -0.5000 
     85 CA          1.2660  -24.5546  -50.9092 C.3       15 UNK         0.1400 
     86 CB          2.2030  -23.3996  -51.3094 C.3       15 UNK        -0.1800 
     87 C          -0.2158  -24.1690  -51.0054 C.2       15 UNK         0.5000 
     88 O          -0.5747  -23.0211  -50.7429 O.2       15 UNK        -0.5000 
     89 N          -1.0535  -25.1445  -51.3740 N.am      16 UNK        -0.5000 
     90 CA         -2.4663  -24.9434  -51.6994 C.3       16 UNK         0.1400 
     91 CB         -3.1627  -26.3130  -51.7374 C.3       16 UNK        -0.1800 
     92 C          -2.6406  -24.2112  -53.0463 C.2       16 UNK         0.5000 
     93 O          -1.7123  -24.1775  -53.8583 O.2       16 UNK        -0.5000 
     94 N          -3.8413  -23.6578  -53.2615 N.am      17 UNK        -0.5000 
     95 CA         -4.2982  -22.9249  -54.4520 C.3       17 UNK         0.1400 
     96 CB         -4.2713  -23.8261  -55.7033 C.3       17 UNK        -0.1800 
     97 C          -3.6076  -21.5669  -54.6999 C.2       17 UNK         0.5000 
     98 O          -3.8971  -20.9233  -55.7111 O.2       17 UNK        -0.5000 
     99 N          -2.7410  -21.1263  -53.7788 N.am      18 UNK        -0.5000 
    100 CA        -2.0341  -19.8496  -53.8356 C.3       18 UNK         0.1400 
    101 CB        -1.0039  -19.7948  -52.7038 C.3       18 UNK        -0.1800 
    102 C         -3.0139  -18.6653  -53.7647 C.2       18 UNK         0.5000 
    103 O         -3.8880  -18.6393  -52.8946 O.2       18 UNK        -0.5000 
    104 N         -2.8930  -17.7485  -54.7363 N.am      19 UNK        -0.5000 
    105 CA        -3.7529  -16.5778  -54.9687 C.3       19 UNK         0.1400 
    106 CB        -3.5762  -15.5560  -53.8254 C.3       19 UNK        -0.1800 
    107 C         -5.2439  -16.9172  -55.2133 C.2       19 UNK         0.5000 
    108 O         -6.0882  -16.0247  -55.1249 O.2       19 UNK        -0.5000 
    109 N         -5.5446  -18.1997  -55.4817 N.am      20 UNK        -0.5000 
    110 CA        -6.8739  -18.8210  -55.5282 C.3       20 UNK         0.1400 
    111 CB        -7.6936  -18.2798  -56.7177 C.3       20 UNK        -0.1800 
    112 C         -7.6455  -18.7420  -54.1880 C.2       20 UNK         0.5000 
    113 O         -8.8662  -18.9076  -54.1778 O.2       20 UNK        -0.5000 
    114 N         -6.9313  -18.5012  -53.0786 N.am      21 UNK        -0.5000 
    115 CA        -7.4985  -18.3001  -51.7430 C.3       21 UNK         0.1400 
    116 CB        -6.5930  -17.3204  -50.9809 C.3       21 UNK        -0.1800 
    117 C         -7.6644  -19.6128  -50.9537 C.2       21 UNK         0.5000 
    118 O         -8.3070  -19.6126  -49.9030 O.2       21 UNK        -0.5000 
    119 N         -7.0774  -20.6992  -51.4607 N.am      22 UNK        -0.5000 
    120 CA        -7.0272  -22.0254  -50.8332 C.3       22 UNK         0.1400 
    121 C         -6.9953  -23.1612  -51.8907 C.2       22 UNK         0.5000 
    122 N         -7.7253  -23.0301  -52.9916 N.am      22 UNK        -0.7600 
    123 O         -6.2897  -24.1550  -51.7404 O.2       22 UNK        -0.5000 
    124 C124       -5.9294  -22.1312  -49.7383 C.3       23 UNK        -0.0398 
    125 S125       -4.2778  -21.5420  -50.2611 S.3       23 UNK        -0.2404 
    126 C126       -4.0898  -20.1245  -49.1321 C.3       23 UNK        -0.0205 
    127 H127       -2.0459  -10.8786  -49.5240 H         1 UNK         0.0600 
    128 H128       -2.6826  -10.7970  -47.8786 H         1 UNK         0.0600 
    129 H129       -3.3019  -12.0072  -49.0073 H         1 UNK         0.0600 
    130 H130       -0.0579  -11.8388  -49.6242 H         1 UNK         0.3000 
    131 H131        1.7368  -13.0483  -49.2812 H         1 UNK         0.0600 
    132 H132        1.6224  -15.4174  -48.5346 H         1 UNK         0.0800 
    133 H133       -0.0349  -15.2100  -48.0408 H         1 UNK         0.0800 
    134 H134       -1.9847  -15.3915  -49.4892 H         1 UNK         0.0800 
    135 H135       -1.9607  -15.9219  -51.1520 H         1 UNK         0.0800 
    136 H136       -3.5639  -17.5347  -49.8215 H         1 UNK         0.1150 
    137 H137       -1.6239  -21.1972  -48.7632 H         1 UNK         0.1150 
    138 H138        0.7218  -17.7332  -49.6201 H         1 UNK         0.1150 
    139 H139        0.7454  -21.4054  -49.0387 H         1 UNK         0.0800 
    140 H140        1.6624  -20.1058  -49.7379 H         1 UNK         0.0800 
    141 H141       -0.5524  -20.0708  -46.5366 H         1 UNK         0.0800 
    142 H142        0.5991  -19.6695  -45.3125 H         1 UNK         0.0800 
    143 H143        1.4126  -22.1150  -45.3863 H         1 UNK         0.0600 
    144 H144       -0.7122  -20.9761  -43.9885 H         1 UNK         0.3000 
    145 H145       -1.6012  -23.7133  -41.8813 H         1 UNK         0.0600 
    146 H146       -1.0429  -21.9241  -40.2426 H         1 UNK         0.0600 
    147 H147        0.4137  -22.6404  -40.9150 H         1 UNK         0.0600 
    148 H148       -0.1195  -21.0595  -41.4697 H         1 UNK         0.0600 
    149 H149       -2.3882  -20.9263  -42.4793 H         1 UNK         0.3000 
    150 H150       -5.3475  -21.8719  -44.1733 H         1 UNK         0.0600 
    151 H151       -6.5146  -20.5468  -42.4342 H         1 UNK         0.0600 
    152 H152       -6.0848  -22.1256  -41.7967 H         1 UNK         0.0600 
    153 H153       -5.1393  -20.7132  -41.3416 H         1 UNK         0.0600 
    154 H154       -4.4467  -19.3276  -43.2876 H         1 UNK         0.3000 
    155 H155       -2.2366  -18.6238  -46.0011 H         1 UNK         0.0600 
    156 H156       -5.0237  -17.5529  -45.3373 H         1 UNK         0.0600 
    157 H157       -4.5566  -18.2591  -46.8790 H         1 UNK         0.0600 
    158 H158       -3.8038  -16.7682  -46.3412 H         1 UNK         0.0600 
    159 H159       -2.9442  -16.8529  -44.0276 H         1 UNK         0.3000 
    160 H160       -2.1200  -16.9090  -41.6281 H         1 UNK         0.0600 
    161 H161        0.7185  -18.0571  -41.7377 H         1 UNK         0.0600 
    162 H162       -0.5821  -18.5940  -40.6819 H         1 UNK         0.0600 
    163 H163        0.0987  -16.9863  -40.4829 H         1 UNK         0.0600 
    164 H164        0.3193  -15.9350  -42.9230 H         1 UNK         0.3000 
    165 H165       -0.5964  -14.0016  -45.0215 H         1 UNK         0.0600 
    166 H166       -0.8191  -11.6180  -44.2856 H         1 UNK         0.0600 
    167 H167       -2.3600  -12.4557  -44.2846 H         1 UNK         0.0600 
    168 H168       -1.5317  -12.1551  -42.7626 H         1 UNK         0.0600 
    169 H169        1.4252  -13.8717  -44.2327 H         1 UNK         0.3000 
    170 H170        3.1150  -12.6203  -42.0159 H         1 UNK         0.0600 
    171 H171        2.6601  -13.6878  -39.8494 H         1 UNK         0.0600 
    172 H172        2.5918  -15.2808  -40.5879 H         1 UNK         0.0600 
    173 H173        4.1136  -14.3912  -40.5360 H         1 UNK         0.0600 
    174 H174        4.0757  -13.7595  -43.6263 H         1 UNK         0.3000 
    175 H175        4.9141  -16.5835  -44.3990 H         1 UNK         0.0600 
    176 H176        2.3140  -16.5497  -46.0287 H         1 UNK         0.0600 
    177 H177        3.8191  -17.3029  -46.5512 H         1 UNK         0.0600 
    178 H178        2.9743  -17.9167  -45.1416 H         1 UNK         0.0600 
    179 H179        3.7059  -14.4183  -46.0630 H         1 UNK         0.3000 
    180 H180        6.5742  -12.4141  -45.8418 H         1 UNK         0.0600 
    181 H181        5.7091  -13.9048  -48.3804 H         1 UNK         0.0600 
    182 H182        7.3450  -13.8550  -47.7345 H         1 UNK         0.0600 
    183 H183        6.5967  -12.3808  -48.3262 H         1 UNK         0.0600 
    184 H184        4.2067  -12.1965  -47.4275 H         1 UNK         0.3000 
    185 H185        1.8921  -11.3556  -44.9410 H         1 UNK         0.0600 
    186 H186        3.0597   -9.1475  -45.0509 H         1 UNK         0.0600 
    187 H187        3.2219   -9.3098  -46.7955 H         1 UNK         0.0600 
    188 H188        1.6240   -9.1647  -46.0613 H         1 UNK         0.0600 
    189 H189        1.6701  -11.0328  -47.7221 H         1 UNK         0.3000 
    190 H190       -2.0857  -22.3782  -46.0536 H         1 UNK         0.3000 
    191 H191       -2.0909  -23.6245  -48.5207 H         1 UNK         0.0600 
    192 H192       -4.1182  -22.8041  -47.3796 H         1 UNK         0.0600 
    193 H193       -4.3340  -24.4950  -47.7929 H         1 UNK         0.0600 
    194 H194       -3.9653  -24.0383  -46.1322 H         1 UNK         0.0600 
    195 H195       -1.0786  -25.0972  -45.4827 H         1 UNK         0.3000 
    196 H196       -1.3467  -27.8541  -46.3857 H         1 UNK         0.0600 
    197 H197       -0.1405  -28.3708  -44.3021 H         1 UNK         0.0600 
    198 H198       -1.4170  -27.2117  -43.9622 H         1 UNK         0.0600 
    199 H199        0.2615  -26.6777  -44.0592 H         1 UNK         0.0600 
    200 H200        1.0254  -25.2975  -46.7710 H         1 UNK         0.3000 
    201 H201        3.1753  -27.1631  -47.6289 H         1 UNK         0.0600 
    202 H202        3.7987  -25.3413  -46.0565 H         1 UNK         0.0600 
    203 H203        3.1917  -24.1305  -47.1841 H         1 UNK         0.0600 
    204 H204        4.5777  -25.1226  -47.6162 H         1 UNK         0.0600 
    205 H205        1.0890  -24.4767  -48.8071 H         1 UNK         0.3000 
    206 H206        1.4352  -25.3789  -51.6055 H         1 UNK         0.0600 
    207 H207        3.2402  -23.7317  -51.3527 H         1 UNK         0.0600 
    208 H208        1.9436  -23.0098  -52.2945 H         1 UNK         0.0600 
    209 H209        2.1487  -22.5721  -50.6025 H         1 UNK         0.0600 
    210 H210       -0.6793  -26.0616  -51.5662 H         1 UNK         0.3000 
    211 H211       -2.9231  -24.3396  -50.9122 H         1 UNK         0.0600 
    212 H212       -2.7512  -26.9529  -52.5190 H         1 UNK         0.0600 
    213 H213       -4.2309  -26.2049  -51.9298 H         1 UNK         0.0600 
    214 H214       -3.0592  -26.8351  -50.7861 H         1 UNK         0.0600 
    215 H215       -4.5551  -23.7829  -52.5482 H         1 UNK         0.3000 
    216 H216       -5.3413  -22.6766  -54.2652 H         1 UNK         0.0600 
    217 H217       -4.7646  -23.3406  -56.5461 H         1 UNK         0.0600 
    218 H218       -4.7925  -24.7662  -55.5231 H         1 UNK         0.0600 
    219 H219       -3.2533  -24.0596  -56.0156 H         1 UNK         0.0600 
    220 H220       -2.5918  -21.6866  -52.9524 H         1 UNK         0.3000 
    221 H221       -1.4955  -19.8090  -54.7846 H         1 UNK         0.0600 
    222 H222       -1.4861  -19.9412  -51.7404 H         1 UNK         0.0600 
    223 H223       -0.2467  -20.5710  -52.8156 H         1 UNK         0.0600 
    224 H224       -0.4914  -18.8324  -52.6759 H         1 UNK         0.0600 
    225 H225       -2.1642  -17.8819  -55.4238 H         1 UNK         0.3000 
    226 H226       -3.3950  -16.1132  -55.8883 H         1 UNK         0.0600 
    227 H227       -2.5239  -15.3209  -53.6653 H         1 UNK         0.0600 
    228 H228       -4.0844  -14.6185  -54.0529 H         1 UNK         0.0600 
    229 H229       -3.9838  -15.9273  -52.8844 H         1 UNK         0.0600 
    230 H230       -4.7731  -18.8537  -55.5443 H         1 UNK         0.3000 
    231 H231       -6.6989  -19.8827  -55.7075 H         1 UNK         0.0600 
    232 H232       -7.9801  -17.2378  -56.5734 H         1 UNK         0.0600 
    233 H233       -7.1300  -18.3477  -57.6481 H         1 UNK         0.0600 
    234 H234       -8.6111  -18.8532  -56.8542 H         1 UNK         0.0600 
    235 H235       -5.9219  -18.4143  -53.1512 H         1 UNK         0.3000 
    236 H236       -8.4877  -17.8462  -51.8313 H         1 UNK         0.0600 
    237 H237       -6.5452  -16.3557  -51.4864 H         1 UNK         0.0600 
    238 H238       -6.9617  -17.1417  -49.9701 H         1 UNK         0.0600 
    239 H239       -5.5765  -17.7031  -50.9007 H         1 UNK         0.0600 
    240 H240       -6.5617  -20.6040  -52.3228 H         1 UNK         0.3000 
    241 H241       -7.9803  -22.1864  -50.3263 H         1 UNK         0.0600 
    242 H242       -8.3346  -22.2368  -53.1178 H         1 UNK         0.3800 
    243 H243       -7.7225  -23.7702  -53.6755 H         1 UNK         0.3800 
    244 H244       -6.2522  -21.5599  -48.8673 H         1 UNK         0.0800 
    245 H245       -5.8349  -23.1568  -49.3791 H         1 UNK         0.0800 
    246 H246       -4.9007  -19.4188  -49.3142 H         1 UNK         0.0800 
    247 H247       -4.2039  -20.4688  -48.1055 H         1 UNK         0.0800 
@<TRIPOS>BOND
     1    1    2 1    
     2    1  127 1    
     3    1  128 1    
     4    1  129 1    
     5    2    3 2    
     6    2    4 am   BACKBONE|DICT|INTERRES
     7    4    5 1    
     8    4  130 1    
     9    5    6 1    
    10    5   65 1    
    11    5  131 1    
    12    6    7 1    
    13    6  132 1    
    14    6  133 1    
    15    7    8 1    
    16    8    9 1    
    17    8  134 1    
    18    8  135 1    
    19    9   10 ar   
    20    9   14 ar   
    21   10   11 ar   
    22   10  136 1    
    23   11   12 ar   
    24   11  126 1    
    25   12   13 ar   
    26   12  137 1    
    27   13   14 ar   
    28   13   15 1    
    29   14  138 1    
    30   15   16 1    
    31   15  139 1    
    32   15  140 1    
    33   16   17 1    
    34   17   18 1    
    35   17  141 1    
    36   17  142 1    
    37   18   19 1    
    38   18   67 1    
    39   18  143 1    
    40   19   20 am   BACKBONE|DICT|INTERRES
    41   19  144 1    
    42   20   21 2    
    43   20   22 1    
    44   22   23 1    
    45   22   24 1    
    46   22  145 1    
    47   23  146 1    
    48   23  147 1    
    49   23  148 1    
    50   24   25 am   BACKBONE|DICT|INTERRES
    51   24  149 1    
    52   25   26 2    
    53   25   27 1    
    54   27   28 1    
    55   27   29 1    
    56   27  150 1    
    57   28  151 1    
    58   28  152 1    
    59   28  153 1    
    60   29   30 am   BACKBONE|DICT|INTERRES
    61   29  154 1    
    62   30   31 2    
    63   30   32 1    
    64   32   33 1    
    65   32   34 1    
    66   32  155 1    
    67   33  156 1    
    68   33  157 1    
    69   33  158 1    
    70   34   35 am   BACKBONE|DICT|INTERRES
    71   34  159 1    
    72   35   36 2    
    73   35   37 1    
    74   37   38 1    
    75   37   39 1    
    76   37  160 1    
    77   38  161 1    
    78   38  162 1    
    79   38  163 1    
    80   39   40 am   BACKBONE|DICT|INTERRES
    81   39  164 1    
    82   40   41 2    
    83   40   42 1    
    84   42   43 1    
    85   42   44 1    
    86   42  165 1    
    87   43  166 1    
    88   43  167 1    
    89   43  168 1    
    90   44   45 am   BACKBONE|DICT|INTERRES
    91   44  169 1    
    92   45   46 2    
    93   45   47 1    
    94   47   48 1    
    95   47   49 1    
    96   47  170 1    
    97   48  171 1    
    98   48  172 1    
    99   48  173 1    
   100   49   50 am   BACKBONE|DICT|INTERRES
   101   49  174 1    
   102   50   51 2    
   103   50   52 1    
   104   52   53 1    
   105   52   54 1    
   106   52  175 1    
   107   53  176 1    
   108   53  177 1    
   109   53  178 1    
   110   54   55 am   BACKBONE|DICT|INTERRES
   111   54  179 1    
   112   55   56 2    
   113   55   57 1    
   114   57   58 1    
   115   57   59 1    
   116   57  180 1    
   117   58  181 1    
   118   58  182 1    
   119   58  183 1    
   120   59   60 am   BACKBONE|DICT|INTERRES
   121   59  184 1    
   122   60   61 2    
   123   60   62 1    
   124   62   63 1    
   125   62   64 1    
   126   62  185 1    
   127   63  186 1    
   128   63  187 1    
   129   63  188 1    
   130   64   65 am   BACKBONE|DICT|INTERRES
   131   64  189 1    
   132   65   66 2    
   133   67   68 2    
   134   67   69 am   BACKBONE|DICT|INTERRES
   135   69   70 1    
   136   69  190 1    
   137   70   71 1    
   138   70   72 1    
   139   70  191 1    
   140   71  192 1    
   141   71  193 1    
   142   71  194 1    
   143   72   73 2    
   144   72   74 am   BACKBONE|DICT|INTERRES
   145   74   75 1    
   146   74  195 1    
   147   75   76 1    
   148   75   77 1    
   149   75  196 1    
   150   76  197 1    
   151   76  198 1    
   152   76  199 1    
   153   77   78 2    
   154   77   79 am   BACKBONE|DICT|INTERRES
   155   79   80 1    
   156   79  200 1    
   157   80   81 1    
   158   80   82 1    
   159   80  201 1    
   160   81  202 1    
   161   81  203 1    
   162   81  204 1    
   163   82   83 2    
   164   82   84 am   BACKBONE|DICT|INTERRES
   165   84   85 1    
   166   84  205 1    
   167   85   86 1    
   168   85   87 1    
   169   85  206 1    
   170   86  207 1    
   171   86  208 1    
   172   86  209 1    
   173   87   88 2    
   174   87   89 am   BACKBONE|DICT|INTERRES
   175   89   90 1    
   176   89  210 1    
   177   90   91 1    
   178   90   92 1    
   179   90  211 1    
   180   91  212 1    
   181   91  213 1    
   182   91  214 1    
   183   92   93 2    
   184   92   94 am   BACKBONE|DICT|INTERRES
   185   94   95 1    
   186   94  215 1    
   187   95   96 1    
   188   95   97 1    
   189   95  216 1    
   190   96  217 1    
   191   96  218 1    
   192   96  219 1    
   193   97   98 2    
   194   97   99 am   BACKBONE|DICT|INTERRES
   195   99  100 1    
   196   99  220 1    
   197  100  101 1    
   198  100  102 1    
   199  100  221 1    
   200  101  222 1    
   201  101  223 1    
   202  101  224 1    
   203  102  103 2    
   204  102  104 am   BACKBONE|DICT|INTERRES
   205  104  105 1    
   206  104  225 1    
   207  105  106 1    
   208  105  107 1    
   209  105  226 1    
   210  106  227 1    
   211  106  228 1    
   212  106  229 1    
   213  107  108 2    
   214  107  109 am   BACKBONE|DICT|INTERRES
   215  109  110 1    
   216  109  230 1    
   217  110  111 1    
   218  110  112 1    
   219  110  231 1    
   220  111  232 1    
   221  111  233 1    
   222  111  234 1    
   223  112  113 2    
   224  112  114 am   BACKBONE|DICT|INTERRES
   225  114  115 1    
   226  114  235 1    
   227  115  116 1    
   228  115  117 1    
   229  115  236 1    
   230  116  237 1    
   231  116  238 1    
   232  116  239 1    
   233  117  118 2    
   234  117  119 am   BACKBONE|DICT|INTERRES
   235  119  120 1    
   236  119  240 1    
   237  120  121 1    
   238  120  124 1    
   239  120  241 1    
   240  121  122 am   BACKBONE|DICT|INTERRES
   241  121  123 2    
   242  122  242 1    
   243  122  243 1    
   244  124  125 1    
   245  124  244 1    
   246  124  245 1    
   247  125  126 1    
   248  126  246 1    
   249  126  247 1    
@<TRIPOS>SUBSTRUCTURE
     1 UNK         1 GROUP             0       ****    0 ROOT    
