@<TRIPOS>MOLECULE
3R540
247   249    1
SMALL
USER_CHARGES


@<TRIPOS>ATOM
      1 CA         -4.3414  -15.2818  -48.0456 C.3       0 UNK        -0.1800 
      2 C          -3.0549  -16.0967  -47.9268 C.2       0 UNK         0.5000 
      3 O          -3.1235  -17.3212  -47.8455 O.2       0 UNK        -0.5000 
      4 N          -1.8609  -15.4897  -47.9545 N.am      1 UNK        -0.5000 
      5 CA         -1.5700  -14.0569  -48.0793 C.3       1 UNK         0.1400 
      6 C6         -0.0586  -13.7967  -48.3003 C.3       23 UNK        -0.0398 
      7 S7          0.5518  -14.6211  -49.8095 S.3       23 UNK        -0.2404 
      8 C8          1.6847  -15.8909  -49.1442 C.3       23 UNK        -0.0205 
      9 C9          1.8567  -17.0777  -50.0895 C.ar      23 UNK        -0.0193 
     10 C10         2.0700  -16.8845  -51.4605 C.ar      23 UNK        -0.1150 
     11 C11         2.1670  -17.9755  -52.3290 C.ar      23 UNK        -0.0193 
     12 C12         2.1058  -19.2700  -51.8097 C.ar      23 UNK        -0.1150 
     13 C13         1.9248  -19.4819  -50.4416 C.ar      23 UNK        -0.0193 
     14 C14         1.7933  -18.3830  -49.5879 C.ar      23 UNK        -0.1150 
     15 C15         1.8827  -20.9036  -49.9032 C.3       23 UNK        -0.0205 
     16 S16         0.2338  -21.6444  -50.0996 S.3       23 UNK        -0.2404 
     17 C17        -0.5755  -21.1941  -48.5301 C.3       23 UNK        -0.0398 
     18 CA         -0.7641  -22.4392  -47.6182 C.3       11 UNK         0.1400 
     19 N           0.0812  -22.4044  -46.4198 N.am      11 UNK        -0.5000 
     20 C           0.2444  -23.4382  -45.5813 C.2       10 UNK         0.5000 
     21 O          -0.2937  -24.5331  -45.7394 O.2       10 UNK        -0.5000 
     22 CA          1.1050  -23.2015  -44.3286 C.3       10 UNK         0.1400 
     23 CB          2.6014  -23.2468  -44.6711 C.3       10 UNK        -0.1800 
     24 N           0.7796  -21.9418  -43.6611 N.am      10 UNK        -0.5000 
     25 C          -0.4049  -21.6715  -43.0928 C.2       9 UNK         0.5000 
     26 O          -1.3260  -22.4840  -43.0125 O.2       9 UNK        -0.5000 
     27 CA         -0.6164  -20.2374  -42.5734 C.3       9 UNK         0.1400 
     28 CB          0.0261  -20.0513  -41.1911 C.3       9 UNK        -0.1800 
     29 N          -0.1006  -19.2228  -43.4919 N.am      9 UNK        -0.5000 
     30 C          -0.5273  -19.0398  -44.7493 C.2       8 UNK         0.5000 
     31 O          -1.4329  -19.6872  -45.2723 O.2       8 UNK        -0.5000 
     32 CA          0.2340  -17.9965  -45.5812 C.3       8 UNK         0.1400 
     33 CB         -0.2132  -16.5748  -45.2108 C.3       8 UNK        -0.1800 
     34 N           1.6837  -18.1202  -45.4171 N.am      8 UNK        -0.5000 
     35 C           2.4032  -19.1827  -45.8070 C.2       7 UNK         0.5000 
     36 O           1.9219  -20.1583  -46.3797 O.2       7 UNK        -0.5000 
     37 CA          3.9042  -19.1671  -45.4720 C.3       7 UNK         0.1400 
     38 CB          4.6682  -18.2891  -46.4748 C.3       7 UNK        -0.1800 
     39 N           4.1667  -18.7012  -44.1100 N.am      7 UNK        -0.5000 
     40 C           3.7846  -19.3487  -42.9989 C.2       6 UNK         0.5000 
     41 O           3.2226  -20.4431  -43.0044 O.2       6 UNK        -0.5000 
     42 CA          4.0159  -18.6214  -41.6589 C.3       6 UNK         0.1400 
     43 CB          5.4178  -18.9287  -41.1123 C.3       6 UNK        -0.1800 
     44 N           3.8343  -17.1679  -41.7472 N.am      6 UNK        -0.5000 
     45 C           2.7017  -16.5681  -42.1378 C.2       5 UNK         0.5000 
     46 O           1.6827  -17.1893  -42.4490 O.2       5 UNK        -0.5000 
     47 CA          2.7491  -15.0327  -42.2675 C.3       5 UNK         0.1400 
     48 CB          3.6744  -14.6177  -43.4247 C.3       5 UNK        -0.1800 
     49 N           1.4300  -14.4560  -42.5197 N.am      5 UNK        -0.5000 
     50 C           0.4235  -14.3879  -41.6389 C.2       4 UNK         0.5000 
     51 O           0.5164  -14.7457  -40.4628 O.2       4 UNK        -0.5000 
     52 CA         -0.9020  -13.8114  -42.1839 C.3       4 UNK         0.1400 
     53 CB         -1.8782  -13.3756  -41.0715 C.3       4 UNK        -0.1800 
     54 N          -0.7030  -12.7291  -43.1571 N.am      4 UNK        -0.5000 
     55 C          -0.0940  -11.5491  -42.9424 C.2       3 UNK         0.5000 
     56 O           0.4017  -11.2166  -41.8652 O.2       3 UNK        -0.5000 
     57 CA         -0.0115  -10.5681  -44.1315 C.3       3 UNK         0.1400 
     58 CB          1.3817  -10.6346  -44.7775 C.3       3 UNK        -0.1800 
     59 N          -1.0186  -10.8100  -45.1653 N.am      3 UNK        -0.5000 
     60 C          -2.3418  -10.6682  -45.0073 C.2       2 UNK         0.5000 
     61 O          -2.8604  -10.2014  -43.9925 O.2       2 UNK        -0.5000 
     62 CA         -3.2433  -11.1496  -46.1634 C.3       2 UNK         0.1400 
     63 CB         -3.8300   -9.9486  -46.9217 C.3       2 UNK        -0.1800 
     64 N          -2.5981  -12.0473  -47.1317 N.am      2 UNK        -0.5000 
     65 C          -2.0829  -13.2558  -46.8649 C.2       1 UNK         0.5000 
     66 O          -1.9836  -13.7251  -45.7287 O.2       1 UNK        -0.5000 
     67 C          -2.2498  -22.6807  -47.2818 C.2       11 UNK         0.5000 
     68 O          -2.8942  -23.4775  -47.9594 O.2       11 UNK        -0.5000 
     69 N          -2.7539  -22.0274  -46.2262 N.am      12 UNK        -0.5000 
     70 CA         -4.1146  -22.1946  -45.7095 C.3       12 UNK         0.1400 
     71 CB         -4.4058  -21.0783  -44.6960 C.3       12 UNK        -0.1800 
     72 C          -4.3847  -23.5800  -45.0911 C.2       12 UNK         0.5000 
     73 O          -5.5384  -24.0095  -45.0627 O.2       12 UNK        -0.5000 
     74 N          -3.3348  -24.2540  -44.6055 N.am      13 UNK        -0.5000 
     75 CA         -3.4026  -25.6312  -44.1234 C.3       13 UNK         0.1400 
     76 CB         -2.2722  -25.8773  -43.1117 C.3       13 UNK        -0.1800 
     77 C          -3.3322  -26.6387  -45.2851 C.2       13 UNK         0.5000 
     78 O          -4.0860  -27.6127  -45.2914 O.2       13 UNK        -0.5000 
     79 N          -2.4194  -26.3963  -46.2352 N.am      14 UNK        -0.5000 
     80 CA         -2.1348  -27.2819  -47.3632 C.3       14 UNK         0.1400 
     81 CB         -0.7718  -26.9041  -47.9641 C.3       14 UNK        -0.1800 
     82 C          -3.2158  -27.2734  -48.4585 C.2       14 UNK         0.5000 
     83 O          -3.4631  -28.3186  -49.0626 O.2       14 UNK        -0.5000 
     84 N          -3.8166  -26.1081  -48.7208 N.am      15 UNK        -0.5000 
     85 CA         -4.7570  -25.8798  -49.8145 C.3       15 UNK         0.1400 
     86 CB         -3.9636  -25.5573  -51.0976 C.3       15 UNK        -0.1800 
     87 C          -5.7457  -24.7607  -49.4457 C.2       15 UNK         0.5000 
     88 O          -5.7871  -24.3148  -48.2971 O.2       15 UNK        -0.5000 
     89 N          -6.5353  -24.3118  -50.4291 N.am      16 UNK        -0.5000 
     90 CA         -7.4935  -23.2105  -50.3109 C.3       16 UNK         0.1400 
     91 CB         -8.5615  -23.3646  -51.4094 C.3       16 UNK        -0.1800 
     92 C          -6.7936  -21.8333  -50.3430 C.2       16 UNK         0.5000 
     93 O          -7.0576  -21.0271  -51.2376 O.2       16 UNK        -0.5000 
     94 N          -5.9058  -21.6056  -49.3633 N.am      17 UNK        -0.5000 
     95 CA         -5.0606  -20.4210  -49.1707 C.3       17 UNK         0.1400 
     96 CB         -5.9395  -19.1669  -48.9715 C.3       17 UNK        -0.1800 
     97 C          -4.0141  -20.2409  -50.2913 C.2       17 UNK         0.5000 
     98 O          -3.8772  -21.1003  -51.1654 O.2       17 UNK        -0.5000 
     99 N          -3.2786  -19.1191  -50.2541 N.am      18 UNK        -0.5000 
    100 CA        -2.2745  -18.7546  -51.2633 C.3       18 UNK         0.1400 
    101 CB        -1.5774  -17.4538  -50.8537 C.3       18 UNK        -0.1800 
    102 C         -2.8438  -18.6224  -52.6881 C.2       18 UNK         0.5000 
    103 O         -2.1190  -18.8613  -53.6507 O.2       18 UNK        -0.5000 
    104 N         -4.1451  -18.3179  -52.7966 N.am      19 UNK        -0.5000 
    105 CA        -4.9152  -18.2678  -54.0415 C.3       19 UNK         0.1400 
    106 CB        -6.3523  -17.8382  -53.7087 C.3       19 UNK        -0.1800 
    107 C         -4.9223  -19.5893  -54.8413 C.2       19 UNK         0.5000 
    108 O         -5.1322  -19.5576  -56.0544 O.2       19 UNK        -0.5000 
    109 N         -4.6887  -20.7223  -54.1637 N.am      20 UNK        -0.5000 
    110 CA        -4.5399  -22.0362  -54.7868 C.3       20 UNK         0.1400 
    111 CB        -4.9252  -23.1118  -53.7602 C.3       20 UNK        -0.1800 
    112 C         -3.1153  -22.2903  -55.3224 C.2       20 UNK         0.5000 
    113 O         -2.9408  -23.2004  -56.1341 O.2       20 UNK        -0.5000 
    114 N         -2.1255  -21.5164  -54.8558 N.am      21 UNK        -0.5000 
    115 CA        -0.7069  -21.6894  -55.1702 C.3       21 UNK         0.1400 
    116 CB         0.0949  -21.6361  -53.8612 C.3       21 UNK        -0.1800 
    117 C         -0.1850  -20.6298  -56.1557 C.2       21 UNK         0.5000 
    118 O          0.6919  -20.9424  -56.9627 O.2       21 UNK        -0.5000 
    119 N         -0.7150  -19.4055  -56.0825 N.am      22 UNK        -0.5000 
    120 CA        -0.2994  -18.2498  -56.8871 C.3       22 UNK         0.1400 
    121 C         -1.4688  -17.2588  -57.1395 C.2       22 UNK         0.5000 
    122 N         -1.3057  -16.3246  -58.0676 N.am      22 UNK        -0.7600 
    123 O         -2.5242  -17.3192  -56.5144 O.2       22 UNK        -0.5000 
    124 C124        0.9694  -17.5540  -56.3141 C.3       23 UNK        -0.0398 
    125 S125        0.8143  -17.0555  -54.5591 S.3       23 UNK        -0.2404 
    126 C126        2.3252  -17.7635  -53.8273 C.3       23 UNK        -0.0205 
    127 H127       -5.1715  -15.9230  -48.3408 H         1 UNK         0.0600 
    128 H128       -4.2571  -14.4957  -48.7948 H         1 UNK         0.0600 
    129 H129       -4.5948  -14.8305  -47.0864 H         1 UNK         0.0600 
    130 H130       -1.0436  -16.0740  -47.8903 H         1 UNK         0.3000 
    131 H131       -2.0953  -13.6989  -48.9668 H         1 UNK         0.0600 
    132 H132        0.5290  -14.1108  -47.4367 H         1 UNK         0.0800 
    133 H133        0.1304  -12.7282  -48.4190 H         1 UNK         0.0800 
    134 H134        1.3090  -16.2387  -48.1813 H         1 UNK         0.0800 
    135 H135        2.6592  -15.4394  -48.9546 H         1 UNK         0.0800 
    136 H136        2.1209  -15.8827  -51.8627 H         1 UNK         0.1150 
    137 H137        2.1948  -20.1197  -52.4709 H         1 UNK         0.1150 
    138 H138        1.6375  -18.5470  -48.5328 H         1 UNK         0.1150 
    139 H139        2.6026  -21.5151  -50.4488 H         1 UNK         0.0800 
    140 H140        2.1950  -20.9385  -48.8593 H         1 UNK         0.0800 
    141 H141       -1.5246  -20.7252  -48.7886 H         1 UNK         0.0800 
    142 H142       -0.0135  -20.4074  -48.0295 H         1 UNK         0.0800 
    143 H143       -0.4513  -23.3298  -48.1681 H         1 UNK         0.0600 
    144 H144        0.5933  -21.5443  -46.2443 H         1 UNK         0.3000 
    145 H145        0.8968  -24.0122  -43.6272 H         1 UNK         0.0600 
    146 H146        3.2128  -23.1656  -43.7723 H         1 UNK         0.0600 
    147 H147        2.8618  -24.1876  -45.1576 H         1 UNK         0.0600 
    148 H148        2.8887  -22.4390  -45.3439 H         1 UNK         0.0600 
    149 H149        1.5105  -21.2378  -43.6369 H         1 UNK         0.3000 
    150 H150       -1.6916  -20.0753  -42.4740 H         1 UNK         0.0600 
    151 H151       -0.3815  -20.7636  -40.4728 H         1 UNK         0.0600 
    152 H152       -0.1602  -19.0504  -40.8009 H         1 UNK         0.0600 
    153 H153        1.1052  -20.2005  -41.2253 H         1 UNK         0.0600 
    154 H154        0.6333  -18.6139  -43.1380 H         1 UNK         0.3000 
    155 H155       -0.0059  -18.1667  -46.6328 H         1 UNK         0.0600 
    156 H156       -0.0299  -16.3490  -44.1622 H         1 UNK         0.0600 
    157 H157       -1.2838  -16.4513  -45.3760 H         1 UNK         0.0600 
    158 H158        0.3025  -15.8249  -45.8079 H         1 UNK         0.0600 
    159 H159        2.1411  -17.3970  -44.8836 H         1 UNK         0.3000 
    160 H160        4.2763  -20.1901  -45.5591 H         1 UNK         0.0600 
    161 H161        4.3630  -17.2436  -46.4140 H         1 UNK         0.0600 
    162 H162        4.4915  -18.6226  -47.4985 H         1 UNK         0.0600 
    163 H163        5.7431  -18.3357  -46.2999 H         1 UNK         0.0600 
    164 H164        4.6287  -17.8097  -44.0114 H         1 UNK         0.3000 
    165 H165        3.2814  -19.0031  -40.9471 H         1 UNK         0.0600 
    166 H166        5.5596  -18.4940  -40.1227 H         1 UNK         0.0600 
    167 H167        5.5724  -20.0045  -41.0181 H         1 UNK         0.0600 
    168 H168        6.2000  -18.5405  -41.7659 H         1 UNK         0.0600 
    169 H169        4.6351  -16.5997  -41.5109 H         1 UNK         0.3000 
    170 H170        3.1362  -14.6206  -41.3334 H         1 UNK         0.0600 
    171 H171        4.6967  -14.9607  -43.2616 H         1 UNK         0.0600 
    172 H172        3.3380  -15.0281  -44.3779 H         1 UNK         0.0600 
    173 H173        3.7155  -13.5327  -43.5250 H         1 UNK         0.0600 
    174 H174        1.2512  -14.1408  -43.4604 H         1 UNK         0.3000 
    175 H175       -1.3781  -14.6247  -42.7335 H         1 UNK         0.0600 
    176 H176       -2.1418  -14.2179  -40.4308 H         1 UNK         0.0600 
    177 H177       -1.4487  -12.6023  -40.4342 H         1 UNK         0.0600 
    178 H178       -2.8054  -12.9866  -41.4924 H         1 UNK         0.0600 
    179 H179       -1.0840  -12.9100  -44.0808 H         1 UNK         0.3000 
    180 H180       -0.1633   -9.5605  -43.7388 H         1 UNK         0.0600 
    181 H181        1.5814  -11.6181  -45.2048 H         1 UNK         0.0600 
    182 H182        2.1631  -10.4315  -44.0438 H         1 UNK         0.0600 
    183 H183        1.4847   -9.8950  -45.5717 H         1 UNK         0.0600 
    184 H184       -0.6863  -11.1831  -46.0411 H         1 UNK         0.3000 
    185 H185       -4.0692  -11.7011  -45.7094 H         1 UNK         0.0600 
    186 H186       -4.3517   -9.2722  -46.2431 H         1 UNK         0.0600 
    187 H187       -3.0523   -9.3728  -47.4250 H         1 UNK         0.0600 
    188 H188       -4.5517  -10.2694  -47.6732 H         1 UNK         0.0600 
    189 H189       -2.6158  -11.7297  -48.0906 H         1 UNK         0.3000 
    190 H190       -2.1722  -21.3401  -45.7512 H         1 UNK         0.3000 
    191 H191       -4.8099  -22.0859  -46.5426 H         1 UNK         0.0600 
    192 H192       -4.3075  -20.0943  -45.1552 H         1 UNK         0.0600 
    193 H193       -5.4218  -21.1563  -44.3069 H         1 UNK         0.0600 
    194 H194       -3.7228  -21.1214  -43.8469 H         1 UNK         0.0600 
    195 H195       -2.4243  -23.8125  -44.6126 H         1 UNK         0.3000 
    196 H196       -4.3507  -25.7830  -43.6029 H         1 UNK         0.0600 
    197 H197       -2.3185  -26.8922  -42.7153 H         1 UNK         0.0600 
    198 H198       -2.3465  -25.1931  -42.2662 H         1 UNK         0.0600 
    199 H199       -1.2874  -25.7450  -43.5600 H         1 UNK         0.0600 
    200 H200       -1.8017  -25.5962  -46.1259 H         1 UNK         0.3000 
    201 H201       -2.0614  -28.3024  -46.9814 H         1 UNK         0.0600 
    202 H202        0.0235  -26.9903  -47.2235 H         1 UNK         0.0600 
    203 H203       -0.7699  -25.8798  -48.3392 H         1 UNK         0.0600 
    204 H204       -0.5140  -27.5603  -48.7964 H         1 UNK         0.0600 
    205 H205       -3.5817  -25.2775  -48.1811 H         1 UNK         0.3000 
    206 H206       -5.3496  -26.7824  -49.9765 H         1 UNK         0.0600 
    207 H207       -3.2256  -26.3298  -51.3138 H         1 UNK         0.0600 
    208 H208       -4.6167  -25.4957  -51.9677 H         1 UNK         0.0600 
    209 H209       -3.4334  -24.6076  -51.0083 H         1 UNK         0.0600 
    210 H210       -6.4319  -24.7091  -51.3509 H         1 UNK         0.3000 
    211 H211       -8.0026  -23.2889  -49.3479 H         1 UNK         0.0600 
    212 H212       -8.1285  -23.3070  -52.4083 H         1 UNK         0.0600 
    213 H213       -9.3159  -22.5805  -51.3331 H         1 UNK         0.0600 
    214 H214       -9.0798  -24.3198  -51.3236 H         1 UNK         0.0600 
    215 H215       -5.7215  -22.3850  -48.7385 H         1 UNK         0.3000 
    216 H216       -4.4978  -20.5849  -48.2526 H         1 UNK         0.0600 
    217 H217       -5.3586  -18.3287  -48.5942 H         1 UNK         0.0600 
    218 H218       -6.7305  -19.3523  -48.2448 H         1 UNK         0.0600 
    219 H219       -6.4090  -18.8436  -49.9009 H         1 UNK         0.0600 
    220 H220       -3.3871  -18.4778  -49.4736 H         1 UNK         0.3000 
    221 H221       -1.5247  -19.5469  -51.2888 H         1 UNK         0.0600 
    222 H222       -2.2786  -16.6219  -50.7857 H         1 UNK         0.0600 
    223 H223       -1.0797  -17.5629  -49.8909 H         1 UNK         0.0600 
    224 H224       -0.8143  -17.1768  -51.5820 H         1 UNK         0.0600 
    225 H225       -4.6627  -18.1623  -51.9449 H         1 UNK         0.3000 
    226 H226       -4.4653  -17.5026  -54.6759 H         1 UNK         0.0600 
    227 H227       -6.3717  -16.8630  -53.2219 H         1 UNK         0.0600 
    228 H228       -6.9567  -17.7603  -54.6134 H         1 UNK         0.0600 
    229 H229       -6.8414  -18.5554  -53.0476 H         1 UNK         0.0600 
    230 H230       -4.5351  -20.6795  -53.1617 H         1 UNK         0.3000 
    231 H231       -5.2298  -22.1144  -55.6297 H         1 UNK         0.0600 
    232 H232       -5.9366  -22.9545  -53.3871 H         1 UNK         0.0600 
    233 H233       -4.2487  -23.1084  -52.9053 H         1 UNK         0.0600 
    234 H234       -4.8907  -24.1074  -54.2039 H         1 UNK         0.0600 
    235 H235       -2.3534  -20.7381  -54.2471 H         1 UNK         0.3000 
    236 H236       -0.5363  -22.6687  -55.6222 H         1 UNK         0.0600 
    237 H237        1.1612  -21.7669  -54.0486 H         1 UNK         0.0600 
    238 H238       -0.0366  -20.6825  -53.3483 H         1 UNK         0.0600 
    239 H239       -0.2147  -22.4268  -53.1776 H         1 UNK         0.0600 
    240 H240       -1.4039  -19.1936  -55.3639 H         1 UNK         0.3000 
    241 H241       -0.0457  -18.6284  -57.8792 H         1 UNK         0.0600 
    242 H242       -0.4582  -16.2519  -58.6088 H         1 UNK         0.3800 
    243 H243       -2.0580  -15.6759  -58.2405 H         1 UNK         0.3800 
    244 H244        1.8188  -18.2280  -56.4258 H         1 UNK         0.0800 
    245 H245        1.2287  -16.6712  -56.9000 H         1 UNK         0.0800 
    246 H246        2.5589  -18.7123  -54.3127 H         1 UNK         0.0800 
    247 H247        3.1682  -17.0983  -54.0194 H         1 UNK         0.0800 
@<TRIPOS>BOND
     1    1    2 1    
     2    1  127 1    
     3    1  128 1    
     4    1  129 1    
     5    2    3 2    
     6    2    4 am   BACKBONE|DICT|INTERRES
     7    4    5 1    
     8    4  130 1    
     9    5    6 1    
    10    5   65 1    
    11    5  131 1    
    12    6    7 1    
    13    6  132 1    
    14    6  133 1    
    15    7    8 1    
    16    8    9 1    
    17    8  134 1    
    18    8  135 1    
    19    9   10 ar   
    20    9   14 ar   
    21   10   11 ar   
    22   10  136 1    
    23   11   12 ar   
    24   11  126 1    
    25   12   13 ar   
    26   12  137 1    
    27   13   14 ar   
    28   13   15 1    
    29   14  138 1    
    30   15   16 1    
    31   15  139 1    
    32   15  140 1    
    33   16   17 1    
    34   17   18 1    
    35   17  141 1    
    36   17  142 1    
    37   18   19 1    
    38   18   67 1    
    39   18  143 1    
    40   19   20 am   BACKBONE|DICT|INTERRES
    41   19  144 1    
    42   20   21 2    
    43   20   22 1    
    44   22   23 1    
    45   22   24 1    
    46   22  145 1    
    47   23  146 1    
    48   23  147 1    
    49   23  148 1    
    50   24   25 am   BACKBONE|DICT|INTERRES
    51   24  149 1    
    52   25   26 2    
    53   25   27 1    
    54   27   28 1    
    55   27   29 1    
    56   27  150 1    
    57   28  151 1    
    58   28  152 1    
    59   28  153 1    
    60   29   30 am   BACKBONE|DICT|INTERRES
    61   29  154 1    
    62   30   31 2    
    63   30   32 1    
    64   32   33 1    
    65   32   34 1    
    66   32  155 1    
    67   33  156 1    
    68   33  157 1    
    69   33  158 1    
    70   34   35 am   BACKBONE|DICT|INTERRES
    71   34  159 1    
    72   35   36 2    
    73   35   37 1    
    74   37   38 1    
    75   37   39 1    
    76   37  160 1    
    77   38  161 1    
    78   38  162 1    
    79   38  163 1    
    80   39   40 am   BACKBONE|DICT|INTERRES
    81   39  164 1    
    82   40   41 2    
    83   40   42 1    
    84   42   43 1    
    85   42   44 1    
    86   42  165 1    
    87   43  166 1    
    88   43  167 1    
    89   43  168 1    
    90   44   45 am   BACKBONE|DICT|INTERRES
    91   44  169 1    
    92   45   46 2    
    93   45   47 1    
    94   47   48 1    
    95   47   49 1    
    96   47  170 1    
    97   48  171 1    
    98   48  172 1    
    99   48  173 1    
   100   49   50 am   BACKBONE|DICT|INTERRES
   101   49  174 1    
   102   50   51 2    
   103   50   52 1    
   104   52   53 1    
   105   52   54 1    
   106   52  175 1    
   107   53  176 1    
   108   53  177 1    
   109   53  178 1    
   110   54   55 am   BACKBONE|DICT|INTERRES
   111   54  179 1    
   112   55   56 2    
   113   55   57 1    
   114   57   58 1    
   115   57   59 1    
   116   57  180 1    
   117   58  181 1    
   118   58  182 1    
   119   58  183 1    
   120   59   60 am   BACKBONE|DICT|INTERRES
   121   59  184 1    
   122   60   61 2    
   123   60   62 1    
   124   62   63 1    
   125   62   64 1    
   126   62  185 1    
   127   63  186 1    
   128   63  187 1    
   129   63  188 1    
   130   64   65 am   BACKBONE|DICT|INTERRES
   131   64  189 1    
   132   65   66 2    
   133   67   68 2    
   134   67   69 am   BACKBONE|DICT|INTERRES
   135   69   70 1    
   136   69  190 1    
   137   70   71 1    
   138   70   72 1    
   139   70  191 1    
   140   71  192 1    
   141   71  193 1    
   142   71  194 1    
   143   72   73 2    
   144   72   74 am   BACKBONE|DICT|INTERRES
   145   74   75 1    
   146   74  195 1    
   147   75   76 1    
   148   75   77 1    
   149   75  196 1    
   150   76  197 1    
   151   76  198 1    
   152   76  199 1    
   153   77   78 2    
   154   77   79 am   BACKBONE|DICT|INTERRES
   155   79   80 1    
   156   79  200 1    
   157   80   81 1    
   158   80   82 1    
   159   80  201 1    
   160   81  202 1    
   161   81  203 1    
   162   81  204 1    
   163   82   83 2    
   164   82   84 am   BACKBONE|DICT|INTERRES
   165   84   85 1    
   166   84  205 1    
   167   85   86 1    
   168   85   87 1    
   169   85  206 1    
   170   86  207 1    
   171   86  208 1    
   172   86  209 1    
   173   87   88 2    
   174   87   89 am   BACKBONE|DICT|INTERRES
   175   89   90 1    
   176   89  210 1    
   177   90   91 1    
   178   90   92 1    
   179   90  211 1    
   180   91  212 1    
   181   91  213 1    
   182   91  214 1    
   183   92   93 2    
   184   92   94 am   BACKBONE|DICT|INTERRES
   185   94   95 1    
   186   94  215 1    
   187   95   96 1    
   188   95   97 1    
   189   95  216 1    
   190   96  217 1    
   191   96  218 1    
   192   96  219 1    
   193   97   98 2    
   194   97   99 am   BACKBONE|DICT|INTERRES
   195   99  100 1    
   196   99  220 1    
   197  100  101 1    
   198  100  102 1    
   199  100  221 1    
   200  101  222 1    
   201  101  223 1    
   202  101  224 1    
   203  102  103 2    
   204  102  104 am   BACKBONE|DICT|INTERRES
   205  104  105 1    
   206  104  225 1    
   207  105  106 1    
   208  105  107 1    
   209  105  226 1    
   210  106  227 1    
   211  106  228 1    
   212  106  229 1    
   213  107  108 2    
   214  107  109 am   BACKBONE|DICT|INTERRES
   215  109  110 1    
   216  109  230 1    
   217  110  111 1    
   218  110  112 1    
   219  110  231 1    
   220  111  232 1    
   221  111  233 1    
   222  111  234 1    
   223  112  113 2    
   224  112  114 am   BACKBONE|DICT|INTERRES
   225  114  115 1    
   226  114  235 1    
   227  115  116 1    
   228  115  117 1    
   229  115  236 1    
   230  116  237 1    
   231  116  238 1    
   232  116  239 1    
   233  117  118 2    
   234  117  119 am   BACKBONE|DICT|INTERRES
   235  119  120 1    
   236  119  240 1    
   237  120  121 1    
   238  120  124 1    
   239  120  241 1    
   240  121  122 am   BACKBONE|DICT|INTERRES
   241  121  123 2    
   242  122  242 1    
   243  122  243 1    
   244  124  125 1    
   245  124  244 1    
   246  124  245 1    
   247  125  126 1    
   248  126  246 1    
   249  126  247 1    
@<TRIPOS>SUBSTRUCTURE
     1 UNK         1 GROUP             0       ****    0 ROOT    
