@<TRIPOS>MOLECULE
3R540
247   249    1
SMALL
USER_CHARGES


@<TRIPOS>ATOM
      1 CA         -1.9697  -15.4310  -47.8833 C.3       0 UNK        -0.1800 
      2 C          -1.1856  -14.1446  -48.0944 C.2       0 UNK         0.5000 
      3 O          -1.6857  -13.0646  -47.7784 O.2       0 UNK        -0.5000 
      4 N           0.0390  -14.2563  -48.6238 N.am      1 UNK        -0.5000 
      5 CA          0.9869  -13.1506  -48.7913 C.3       1 UNK         0.1400 
      6 C6          2.2040  -13.5587  -49.6563 C.3       23 UNK        -0.0398 
      7 S7          1.7775  -13.6644  -51.4262 S.3       23 UNK        -0.2404 
      8 C8          1.9470  -15.4447  -51.7768 C.3       23 UNK        -0.0205 
      9 C9          0.7692  -16.2673  -51.2711 C.ar      23 UNK        -0.0193 
     10 C10        -0.5297  -15.9776  -51.7008 C.ar      23 UNK        -0.1150 
     11 C11        -1.6101  -16.7539  -51.2749 C.ar      23 UNK        -0.0193 
     12 C12        -1.3846  -17.8389  -50.4237 C.ar      23 UNK        -0.1150 
     13 C13        -0.0899  -18.1476  -49.9963 C.ar      23 UNK        -0.0193 
     14 C14         0.9811  -17.3516  -50.4143 C.ar      23 UNK        -0.1150 
     15 C15         0.1648  -19.3678  -49.1251 C.3       23 UNK        -0.0205 
     16 S16         0.2497  -18.9506  -47.3585 S.3       23 UNK        -0.2404 
     17 C17        -1.5085  -19.0181  -46.8784 C.3       23 UNK        -0.0398 
     18 CA         -1.9716  -20.4367  -46.4653 C.3       11 UNK         0.1400 
     19 N          -1.1156  -21.0297  -45.4315 N.am      11 UNK        -0.5000 
     20 C          -1.1806  -22.2912  -44.9877 C.2       10 UNK         0.5000 
     21 O          -1.9602  -23.1239  -45.4509 O.2       10 UNK        -0.5000 
     22 CA         -0.2845  -22.6710  -43.7927 C.3       10 UNK         0.1400 
     23 CB          0.2936  -24.0954  -43.9154 C.3       10 UNK        -0.1800 
     24 N           0.7561  -21.6813  -43.4935 N.am      10 UNK        -0.5000 
     25 C           1.8560  -21.3842  -44.2020 C.2       9 UNK         0.5000 
     26 O           2.1810  -21.9520  -45.2440 O.2       9 UNK        -0.5000 
     27 CA          2.7374  -20.2390  -43.6621 C.3       9 UNK         0.1400 
     28 CB          2.5852  -18.9852  -44.5355 C.3       9 UNK        -0.1800 
     29 N           2.4315  -19.8745  -42.2778 N.am      9 UNK        -0.5000 
     30 C           2.7679  -20.5932  -41.1985 C.2       8 UNK         0.5000 
     31 O           3.4177  -21.6380  -41.2429 O.2       8 UNK        -0.5000 
     32 CA          2.2611  -20.0640  -39.8473 C.3       8 UNK         0.1400 
     33 CB          3.1674  -18.9349  -39.3320 C.3       8 UNK        -0.1800 
     34 N           0.8819  -19.5804  -39.9400 N.am      8 UNK        -0.5000 
     35 C          -0.2021  -20.3697  -39.9391 C.2       7 UNK         0.5000 
     36 O          -0.1533  -21.5967  -39.8578 O.2       7 UNK        -0.5000 
     37 CA         -1.5717  -19.6745  -40.0630 C.3       7 UNK         0.1400 
     38 CB         -2.0978  -19.2664  -38.6789 C.3       7 UNK        -0.1800 
     39 N          -1.5250  -18.4945  -40.9262 N.am      7 UNK        -0.5000 
     40 C          -1.4393  -18.5441  -42.2614 C.2       6 UNK         0.5000 
     41 O          -1.4760  -19.5906  -42.9072 O.2       6 UNK        -0.5000 
     42 CA         -1.2627  -17.2082  -43.0065 C.3       6 UNK         0.1400 
     43 CB         -2.6189  -16.6857  -43.5024 C.3       6 UNK        -0.1800 
     44 N          -0.5937  -16.1672  -42.2184 N.am      6 UNK        -0.5000 
     45 C           0.6657  -16.2534  -41.7719 C.2       5 UNK         0.5000 
     46 O           1.3683  -17.2585  -41.9023 O.2       5 UNK        -0.5000 
     47 CA          1.2321  -15.0361  -41.0233 C.3       5 UNK         0.1400 
     48 CB          1.2501  -15.2945  -39.5089 C.3       5 UNK        -0.1800 
     49 N           2.5921  -14.7641  -41.4860 N.am      5 UNK        -0.5000 
     50 C           2.8693  -14.2064  -42.6702 C.2       4 UNK         0.5000 
     51 O           2.0104  -13.7142  -43.4063 O.2       4 UNK        -0.5000 
     52 CA          4.3422  -14.2164  -43.1064 C.3       4 UNK         0.1400 
     53 CB          4.8090  -15.6367  -43.4720 C.3       4 UNK        -0.1800 
     54 N           4.4951  -13.3477  -44.2672 N.am      4 UNK        -0.5000 
     55 C           5.5736  -12.6152  -44.5648 C.2       3 UNK         0.5000 
     56 O           6.6197  -12.6494  -43.9151 O.2       3 UNK        -0.5000 
     57 CA          5.4762  -11.6785  -45.7893 C.3       3 UNK         0.1400 
     58 CB          6.2233  -12.2836  -46.9882 C.3       3 UNK        -0.1800 
     59 N           4.1030  -11.3732  -46.2004 N.am      3 UNK        -0.5000 
     60 C           3.2086  -10.6836  -45.4795 C.2       2 UNK         0.5000 
     61 O           3.4757  -10.1602  -44.3968 O.2       2 UNK        -0.5000 
     62 CA          1.7785  -10.5498  -46.0471 C.3       2 UNK         0.1400 
     63 CB          1.4230   -9.0715  -46.2778 C.3       2 UNK        -0.1800 
     64 N           1.5145  -11.2868  -47.2896 N.am      2 UNK        -0.5000 
     65 C           1.4481  -12.6190  -47.4179 C.2       1 UNK         0.5000 
     66 O           1.7547  -13.4111  -46.5259 O.2       1 UNK        -0.5000 
     67 C          -3.4531  -20.4072  -46.0346 C.2       11 UNK         0.5000 
     68 O          -4.3367  -20.4891  -46.8870 O.2       11 UNK        -0.5000 
     69 N          -3.6912  -20.3282  -44.7160 N.am      12 UNK        -0.5000 
     70 CA         -5.0067  -20.4507  -44.0895 C.3       12 UNK         0.1400 
     71 CB         -4.8967  -20.0357  -42.6141 C.3       12 UNK        -0.1800 
     72 C          -5.6059  -21.8674  -44.2087 C.2       12 UNK         0.5000 
     73 O          -6.8301  -22.0001  -44.1964 O.2       12 UNK        -0.5000 
     74 N          -4.7473  -22.8918  -44.3280 N.am      13 UNK        -0.5000 
     75 CA         -5.1450  -24.2691  -44.6095 C.3       13 UNK         0.1400 
     76 CB         -4.1445  -25.2544  -43.9806 C.3       13 UNK        -0.1800 
     77 C          -5.2766  -24.4691  -46.1275 C.2       13 UNK         0.5000 
     78 O          -6.3704  -24.7869  -46.5953 O.2       13 UNK        -0.5000 
     79 N          -4.1812  -24.2299  -46.8641 N.am      14 UNK        -0.5000 
     80 CA         -4.1322  -24.2074  -48.3260 C.3       14 UNK         0.1400 
     81 CB         -4.5126  -25.5692  -48.9501 C.3       14 UNK        -0.1800 
     82 C          -2.7466  -23.7786  -48.8242 C.2       14 UNK         0.5000 
     83 O          -2.6495  -22.8354  -49.6110 O.2       14 UNK        -0.5000 
     84 N          -1.7148  -24.5258  -48.3951 N.am      15 UNK        -0.5000 
     85 CA         -0.3040  -24.4302  -48.8065 C.3       15 UNK         0.1400 
     86 CB          0.3701  -23.2008  -48.1679 C.3       15 UNK        -0.1800 
     87 C          -0.0979  -24.4906  -50.3370 C.2       15 UNK         0.5000 
     88 O           0.7572  -23.7854  -50.8742 O.2       15 UNK        -0.5000 
     89 N          -0.9329  -25.2909  -51.0187 N.am      16 UNK        -0.5000 
     90 CA         -1.0740  -25.4636  -52.4745 C.3       16 UNK         0.1400 
     91 CB          0.2256  -25.9932  -53.1084 C.3       16 UNK        -0.1800 
     92 C          -1.5912  -24.2213  -53.2330 C.2       16 UNK         0.5000 
     93 O          -2.2795  -24.3795  -54.2411 O.2       16 UNK        -0.5000 
     94 N          -1.2926  -23.0165  -52.7328 N.am      17 UNK        -0.5000 
     95 CA         -1.6836  -21.7202  -53.2843 C.3       17 UNK         0.1400 
     96 CB         -1.0977  -20.6086  -52.4077 C.3       17 UNK        -0.1800 
     97 C          -3.2046  -21.5423  -53.4240 C.2       17 UNK         0.5000 
     98 O          -3.6545  -20.9531  -54.4073 O.2       17 UNK        -0.5000 
     99 N          -3.9714  -22.0867  -52.4674 N.am      18 UNK        -0.5000 
    100 CA        -5.4358  -22.1110  -52.4959 C.3       18 UNK         0.1400 
    101 CB        -5.9741  -22.6611  -51.1706 C.3       18 UNK        -0.1800 
    102 C         -6.0073  -22.8954  -53.6893 C.2       18 UNK         0.5000 
    103 O         -6.9539  -22.4285  -54.3234 O.2       18 UNK        -0.5000 
    104 N         -5.3982  -24.0475  -53.9968 N.am      19 UNK        -0.5000 
    105 CA        -5.7461  -24.8669  -55.1568 C.3       19 UNK         0.1400 
    106 CB        -5.1619  -26.2772  -54.9806 C.3       19 UNK        -0.1800 
    107 C         -5.2669  -24.2332  -56.4753 C.2       19 UNK         0.5000 
    108 O         -5.9491  -24.3637  -57.4924 O.2       19 UNK        -0.5000 
    109 N         -4.1089  -23.5597  -56.4311 N.am      20 UNK        -0.5000 
    110 CA        -3.4999  -22.8791  -57.5700 C.3       20 UNK         0.1400 
    111 CB        -2.0459  -22.5101  -57.2390 C.3       20 UNK        -0.1800 
    112 C         -4.2890  -21.6392  -58.0275 C.2       20 UNK         0.5000 
    113 O         -4.5324  -21.5029  -59.2279 O.2       20 UNK        -0.5000 
    114 N         -4.6667  -20.7585  -57.0876 N.am      21 UNK        -0.5000 
    115 CA        -5.3335  -19.4915  -57.4037 C.3       21 UNK         0.1400 
    116 CB        -4.3119  -18.4839  -57.9691 C.3       21 UNK        -0.1800 
    117 C         -6.0942  -18.8501  -56.2310 C.2       21 UNK         0.5000 
    118 O         -7.0973  -18.1805  -56.4834 O.2       21 UNK        -0.5000 
    119 N         -5.6043  -18.9982  -54.9924 N.am      22 UNK        -0.5000 
    120 CA        -6.0994  -18.2351  -53.8288 C.3       22 UNK         0.1400 
    121 C         -7.4954  -18.6608  -53.2837 C.2       22 UNK         0.5000 
    122 N         -8.0538  -19.8021  -53.6641 N.am      22 UNK        -0.7600 
    123 O         -8.0943  -17.9269  -52.5024 O.2       22 UNK        -0.5000 
    124 C124       -5.0560  -18.1506  -52.6830 C.3       23 UNK        -0.0398 
    125 S125       -3.4775  -17.3970  -53.2063 S.3       23 UNK        -0.2404 
    126 C126       -3.0195  -16.4228  -51.7356 C.3       23 UNK        -0.0205 
    127 H127       -1.3301  -16.3043  -47.9999 H         1 UNK         0.0600 
    128 H128       -2.7845  -15.5001  -48.6036 H         1 UNK         0.0600 
    129 H129       -2.3932  -15.4565  -46.8793 H         1 UNK         0.0600 
    130 H130        0.3846  -15.1706  -48.8774 H         1 UNK         0.3000 
    131 H131        0.4582  -12.3413  -49.3001 H         1 UNK         0.0600 
    132 H132        2.6334  -14.4996  -49.3074 H         1 UNK         0.0800 
    133 H133        3.0018  -12.8177  -49.5780 H         1 UNK         0.0800 
    134 H134        2.8902  -15.8080  -51.3660 H         1 UNK         0.0800 
    135 H135        2.0165  -15.5778  -52.8572 H         1 UNK         0.0800 
    136 H136       -0.6980  -15.1468  -52.3716 H         1 UNK         0.1150 
    137 H137       -2.2169  -18.4536  -50.1117 H         1 UNK         0.1150 
    138 H138        1.9833  -17.5957  -50.0909 H         1 UNK         0.1150 
    139 H139       -0.6056  -20.1216  -49.2885 H         1 UNK         0.0800 
    140 H140        1.1064  -19.8338  -49.4192 H         1 UNK         0.0800 
    141 H141       -2.1193  -18.6416  -47.6998 H         1 UNK         0.0800 
    142 H142       -1.6474  -18.3169  -46.0543 H         1 UNK         0.0800 
    143 H143       -1.9113  -21.0819  -47.3436 H         1 UNK         0.0600 
    144 H144       -0.4770  -20.4023  -44.9654 H         1 UNK         0.3000 
    145 H145       -0.9442  -22.6654  -42.9239 H         1 UNK         0.0600 
    146 H146        0.9141  -24.3438  -43.0545 H         1 UNK         0.0600 
    147 H147       -0.5042  -24.8374  -43.9638 H         1 UNK         0.0600 
    148 H148        0.8998  -24.2149  -44.8132 H         1 UNK         0.0600 
    149 H149        0.5817  -21.1198  -42.6718 H         1 UNK         0.3000 
    150 H150        3.7765  -20.5703  -43.7138 H         1 UNK         0.0600 
    151 H151        2.8410  -19.1957  -45.5747 H         1 UNK         0.0600 
    152 H152        3.2441  -18.1883  -44.1935 H         1 UNK         0.0600 
    153 H153        1.5638  -18.6036  -44.5165 H         1 UNK         0.0600 
    154 H154        1.9474  -18.9893  -42.1404 H         1 UNK         0.3000 
    155 H155        2.2994  -20.8835  -39.1262 H         1 UNK         0.0600 
    156 H156        3.2008  -18.0931  -40.0242 H         1 UNK         0.0600 
    157 H157        4.1906  -19.2888  -39.2003 H         1 UNK         0.0600 
    158 H158        2.8253  -18.5634  -38.3660 H         1 UNK         0.0600 
    159 H159        0.7616  -18.5882  -40.0825 H         1 UNK         0.3000 
    160 H160       -2.2718  -20.3940  -40.4927 H         1 UNK         0.0600 
    161 H161       -1.4483  -18.5327  -38.1998 H         1 UNK         0.0600 
    162 H162       -2.1630  -20.1303  -38.0160 H         1 UNK         0.0600 
    163 H163       -3.0969  -18.8360  -38.7492 H         1 UNK         0.0600 
    164 H164       -1.5108  -17.5925  -40.4741 H         1 UNK         0.3000 
    165 H165       -0.6386  -17.4100  -43.8796 H         1 UNK         0.0600 
    166 H166       -2.4965  -15.7948  -44.1188 H         1 UNK         0.0600 
    167 H167       -3.1292  -17.4318  -44.1129 H         1 UNK         0.0600 
    168 H168       -3.2806  -16.4333  -42.6729 H         1 UNK         0.0600 
    169 H169       -1.1123  -15.3139  -42.0665 H         1 UNK         0.3000 
    170 H170        0.6041  -14.1642  -41.2191 H         1 UNK         0.0600 
    171 H171        0.2453  -15.4928  -39.1339 H         1 UNK         0.0600 
    172 H172        1.8723  -16.1514  -39.2496 H         1 UNK         0.0600 
    173 H173        1.6325  -14.4290  -38.9676 H         1 UNK         0.0600 
    174 H174        3.3399  -15.1781  -40.9492 H         1 UNK         0.3000 
    175 H175        4.9389  -13.8350  -42.2752 H         1 UNK         0.0600 
    176 H176        4.6694  -16.3304  -42.6419 H         1 UNK         0.0600 
    177 H177        4.2543  -16.0273  -44.3256 H         1 UNK         0.0600 
    178 H178        5.8681  -15.6486  -43.7295 H         1 UNK         0.0600 
    179 H179        3.6476  -13.2296  -44.8120 H         1 UNK         0.3000 
    180 H180        5.9629  -10.7390  -45.5196 H         1 UNK         0.0600 
    181 H181        6.2320  -11.5981  -47.8358 H         1 UNK         0.0600 
    182 H182        5.7668  -13.2187  -47.3153 H         1 UNK         0.0600 
    183 H183        7.2626  -12.4970  -46.7346 H         1 UNK         0.0600 
    184 H184        3.7935  -11.7735  -47.0727 H         1 UNK         0.3000 
    185 H185        1.1051  -10.9441  -45.2831 H         1 UNK         0.0600 
    186 H186        0.3846   -8.9586  -46.5904 H         1 UNK         0.0600 
    187 H187        1.5473   -8.4879  -45.3645 H         1 UNK         0.0600 
    188 H188        2.0564   -8.6215  -47.0432 H         1 UNK         0.0600 
    189 H189        1.2728  -10.7156  -48.0870 H         1 UNK         0.3000 
    190 H190       -2.8974  -20.2343  -44.0887 H         1 UNK         0.3000 
    191 H191       -5.6876  -19.7600  -44.5910 H         1 UNK         0.0600 
    192 H192       -5.8640  -20.1045  -42.1148 H         1 UNK         0.0600 
    193 H193       -4.5561  -19.0050  -42.5171 H         1 UNK         0.0600 
    194 H194       -4.1995  -20.6730  -42.0694 H         1 UNK         0.0600 
    195 H195       -3.7585  -22.6922  -44.3970 H         1 UNK         0.3000 
    196 H196       -6.1197  -24.4651  -44.1572 H         1 UNK         0.0600 
    197 H197       -3.1403  -25.1505  -44.3893 H         1 UNK         0.0600 
    198 H198       -4.0804  -25.1116  -42.9019 H         1 UNK         0.0600 
    199 H199       -4.4589  -26.2844  -44.1530 H         1 UNK         0.0600 
    200 H200       -3.3347  -23.9157  -46.3905 H         1 UNK         0.3000 
    201 H201       -4.8460  -23.4543  -48.6595 H         1 UNK         0.0600 
    202 H202       -3.9626  -26.3917  -48.4919 H         1 UNK         0.0600 
    203 H203       -4.2995  -25.5877  -50.0198 H         1 UNK         0.0600 
    204 H204       -5.5760  -25.7796  -48.8426 H         1 UNK         0.0600 
    205 H205       -1.9217  -25.2752  -47.7498 H         1 UNK         0.3000 
    206 H206        0.1939  -25.3157  -48.4091 H         1 UNK         0.0600 
    207 H207        0.3592  -23.2732  -47.0833 H         1 UNK         0.0600 
    208 H208        1.4175  -23.1178  -48.4601 H         1 UNK         0.0600 
    209 H209       -0.1253  -22.2746  -48.4527 H         1 UNK         0.0600 
    210 H210       -1.6060  -25.8055  -50.4692 H         1 UNK         0.3000 
    211 H211       -1.8354  -26.2344  -52.6039 H         1 UNK         0.0600 
    212 H212        0.0731  -26.2323  -54.1616 H         1 UNK         0.0600 
    213 H213        0.5631  -26.9041  -52.6141 H         1 UNK         0.0600 
    214 H214        1.0336  -25.2631  -53.0567 H         1 UNK         0.0600 
    215 H215       -0.6839  -22.9985  -51.9214 H         1 UNK         0.3000 
    216 H216       -1.2408  -21.6402  -54.2775 H         1 UNK         0.0600 
    217 H217       -1.5148  -20.6430  -51.4014 H         1 UNK         0.0600 
    218 H218       -1.3178  -19.6248  -52.8241 H         1 UNK         0.0600 
    219 H219       -0.0138  -20.6919  -52.3263 H         1 UNK         0.0600 
    220 H220       -3.5140  -22.5117  -51.6694 H         1 UNK         0.3000 
    221 H221       -5.7882  -21.0866  -52.5924 H         1 UNK         0.0600 
    222 H222       -5.6543  -22.0395  -50.3342 H         1 UNK         0.0600 
    223 H223       -5.6347  -23.6811  -50.9922 H         1 UNK         0.0600 
    224 H224       -7.0648  -22.6720  -51.1663 H         1 UNK         0.0600 
    225 H225       -4.5852  -24.3285  -53.4685 H         1 UNK         0.3000 
    226 H226       -6.8336  -24.9556  -55.2047 H         1 UNK         0.0600 
    227 H227       -4.0728  -26.2629  -54.9317 H         1 UNK         0.0600 
    228 H228       -5.5329  -26.7469  -54.0695 H         1 UNK         0.0600 
    229 H229       -5.4427  -26.9206  -55.8153 H         1 UNK         0.0600 
    230 H230       -3.5815  -23.5651  -55.5649 H         1 UNK         0.3000 
    231 H231       -3.4794  -23.5863  -58.4021 H         1 UNK         0.0600 
    232 H232       -1.9906  -21.7520  -56.4592 H         1 UNK         0.0600 
    233 H233       -1.5394  -22.1084  -58.1173 H         1 UNK         0.0600 
    234 H234       -1.4803  -23.3803  -56.9052 H         1 UNK         0.0600 
    235 H235       -4.4249  -20.9334  -56.1157 H         1 UNK         0.3000 
    236 H236       -6.0828  -19.6863  -58.1743 H         1 UNK         0.0600 
    237 H237       -3.8721  -18.8358  -58.9021 H         1 UNK         0.0600 
    238 H238       -4.7824  -17.5229  -58.1812 H         1 UNK         0.0600 
    239 H239       -3.5002  -18.3033  -57.2633 H         1 UNK         0.0600 
    240 H240       -4.7812  -19.5720  -54.8321 H         1 UNK         0.3000 
    241 H241       -6.2452  -17.2099  -54.1758 H         1 UNK         0.0600 
    242 H242       -8.9645  -20.0426  -53.3071 H         1 UNK         0.3800 
    243 H243       -7.5715  -20.4582  -54.2659 H         1 UNK         0.3800 
    244 H244       -4.8360  -19.1328  -52.2697 H         1 UNK         0.0800 
    245 H245       -5.4691  -17.5655  -51.8603 H         1 UNK         0.0800 
    246 H246       -3.7107  -16.5986  -50.9110 H         1 UNK         0.0800 
    247 H247       -3.1005  -15.3614  -51.9747 H         1 UNK         0.0800 
@<TRIPOS>BOND
     1    1    2 1    
     2    1  127 1    
     3    1  128 1    
     4    1  129 1    
     5    2    3 2    
     6    2    4 am   BACKBONE|DICT|INTERRES
     7    4    5 1    
     8    4  130 1    
     9    5    6 1    
    10    5   65 1    
    11    5  131 1    
    12    6    7 1    
    13    6  132 1    
    14    6  133 1    
    15    7    8 1    
    16    8    9 1    
    17    8  134 1    
    18    8  135 1    
    19    9   10 ar   
    20    9   14 ar   
    21   10   11 ar   
    22   10  136 1    
    23   11   12 ar   
    24   11  126 1    
    25   12   13 ar   
    26   12  137 1    
    27   13   14 ar   
    28   13   15 1    
    29   14  138 1    
    30   15   16 1    
    31   15  139 1    
    32   15  140 1    
    33   16   17 1    
    34   17   18 1    
    35   17  141 1    
    36   17  142 1    
    37   18   19 1    
    38   18   67 1    
    39   18  143 1    
    40   19   20 am   BACKBONE|DICT|INTERRES
    41   19  144 1    
    42   20   21 2    
    43   20   22 1    
    44   22   23 1    
    45   22   24 1    
    46   22  145 1    
    47   23  146 1    
    48   23  147 1    
    49   23  148 1    
    50   24   25 am   BACKBONE|DICT|INTERRES
    51   24  149 1    
    52   25   26 2    
    53   25   27 1    
    54   27   28 1    
    55   27   29 1    
    56   27  150 1    
    57   28  151 1    
    58   28  152 1    
    59   28  153 1    
    60   29   30 am   BACKBONE|DICT|INTERRES
    61   29  154 1    
    62   30   31 2    
    63   30   32 1    
    64   32   33 1    
    65   32   34 1    
    66   32  155 1    
    67   33  156 1    
    68   33  157 1    
    69   33  158 1    
    70   34   35 am   BACKBONE|DICT|INTERRES
    71   34  159 1    
    72   35   36 2    
    73   35   37 1    
    74   37   38 1    
    75   37   39 1    
    76   37  160 1    
    77   38  161 1    
    78   38  162 1    
    79   38  163 1    
    80   39   40 am   BACKBONE|DICT|INTERRES
    81   39  164 1    
    82   40   41 2    
    83   40   42 1    
    84   42   43 1    
    85   42   44 1    
    86   42  165 1    
    87   43  166 1    
    88   43  167 1    
    89   43  168 1    
    90   44   45 am   BACKBONE|DICT|INTERRES
    91   44  169 1    
    92   45   46 2    
    93   45   47 1    
    94   47   48 1    
    95   47   49 1    
    96   47  170 1    
    97   48  171 1    
    98   48  172 1    
    99   48  173 1    
   100   49   50 am   BACKBONE|DICT|INTERRES
   101   49  174 1    
   102   50   51 2    
   103   50   52 1    
   104   52   53 1    
   105   52   54 1    
   106   52  175 1    
   107   53  176 1    
   108   53  177 1    
   109   53  178 1    
   110   54   55 am   BACKBONE|DICT|INTERRES
   111   54  179 1    
   112   55   56 2    
   113   55   57 1    
   114   57   58 1    
   115   57   59 1    
   116   57  180 1    
   117   58  181 1    
   118   58  182 1    
   119   58  183 1    
   120   59   60 am   BACKBONE|DICT|INTERRES
   121   59  184 1    
   122   60   61 2    
   123   60   62 1    
   124   62   63 1    
   125   62   64 1    
   126   62  185 1    
   127   63  186 1    
   128   63  187 1    
   129   63  188 1    
   130   64   65 am   BACKBONE|DICT|INTERRES
   131   64  189 1    
   132   65   66 2    
   133   67   68 2    
   134   67   69 am   BACKBONE|DICT|INTERRES
   135   69   70 1    
   136   69  190 1    
   137   70   71 1    
   138   70   72 1    
   139   70  191 1    
   140   71  192 1    
   141   71  193 1    
   142   71  194 1    
   143   72   73 2    
   144   72   74 am   BACKBONE|DICT|INTERRES
   145   74   75 1    
   146   74  195 1    
   147   75   76 1    
   148   75   77 1    
   149   75  196 1    
   150   76  197 1    
   151   76  198 1    
   152   76  199 1    
   153   77   78 2    
   154   77   79 am   BACKBONE|DICT|INTERRES
   155   79   80 1    
   156   79  200 1    
   157   80   81 1    
   158   80   82 1    
   159   80  201 1    
   160   81  202 1    
   161   81  203 1    
   162   81  204 1    
   163   82   83 2    
   164   82   84 am   BACKBONE|DICT|INTERRES
   165   84   85 1    
   166   84  205 1    
   167   85   86 1    
   168   85   87 1    
   169   85  206 1    
   170   86  207 1    
   171   86  208 1    
   172   86  209 1    
   173   87   88 2    
   174   87   89 am   BACKBONE|DICT|INTERRES
   175   89   90 1    
   176   89  210 1    
   177   90   91 1    
   178   90   92 1    
   179   90  211 1    
   180   91  212 1    
   181   91  213 1    
   182   91  214 1    
   183   92   93 2    
   184   92   94 am   BACKBONE|DICT|INTERRES
   185   94   95 1    
   186   94  215 1    
   187   95   96 1    
   188   95   97 1    
   189   95  216 1    
   190   96  217 1    
   191   96  218 1    
   192   96  219 1    
   193   97   98 2    
   194   97   99 am   BACKBONE|DICT|INTERRES
   195   99  100 1    
   196   99  220 1    
   197  100  101 1    
   198  100  102 1    
   199  100  221 1    
   200  101  222 1    
   201  101  223 1    
   202  101  224 1    
   203  102  103 2    
   204  102  104 am   BACKBONE|DICT|INTERRES
   205  104  105 1    
   206  104  225 1    
   207  105  106 1    
   208  105  107 1    
   209  105  226 1    
   210  106  227 1    
   211  106  228 1    
   212  106  229 1    
   213  107  108 2    
   214  107  109 am   BACKBONE|DICT|INTERRES
   215  109  110 1    
   216  109  230 1    
   217  110  111 1    
   218  110  112 1    
   219  110  231 1    
   220  111  232 1    
   221  111  233 1    
   222  111  234 1    
   223  112  113 2    
   224  112  114 am   BACKBONE|DICT|INTERRES
   225  114  115 1    
   226  114  235 1    
   227  115  116 1    
   228  115  117 1    
   229  115  236 1    
   230  116  237 1    
   231  116  238 1    
   232  116  239 1    
   233  117  118 2    
   234  117  119 am   BACKBONE|DICT|INTERRES
   235  119  120 1    
   236  119  240 1    
   237  120  121 1    
   238  120  124 1    
   239  120  241 1    
   240  121  122 am   BACKBONE|DICT|INTERRES
   241  121  123 2    
   242  122  242 1    
   243  122  243 1    
   244  124  125 1    
   245  124  244 1    
   246  124  245 1    
   247  125  126 1    
   248  126  246 1    
   249  126  247 1    
@<TRIPOS>SUBSTRUCTURE
     1 UNK         1 GROUP             0       ****    0 ROOT    
