@<TRIPOS>MOLECULE
3R540
247   249    1
SMALL
USER_CHARGES


@<TRIPOS>ATOM
      1 CA         -4.4296  -16.4675  -45.9183 C.3       0 UNK        -0.1800 
      2 C          -4.0367  -15.4235  -46.9534 C.2       0 UNK         0.5000 
      3 O          -4.4024  -14.2560  -46.8222 O.2       0 UNK        -0.5000 
      4 N          -3.2740  -15.8412  -47.9705 N.am      1 UNK        -0.5000 
      5 CA         -2.7605  -15.0236  -49.0815 C.3       1 UNK         0.1400 
      6 C6         -2.1229  -15.9023  -50.1910 C.3       23 UNK        -0.0398 
      7 S7         -1.0646  -17.2512  -49.5498 S.3       23 UNK        -0.2404 
      8 C8          0.5664  -16.9273  -50.2840 C.3       23 UNK        -0.0205 
      9 C9          1.1624  -18.2309  -50.7883 C.ar      23 UNK        -0.0193 
     10 C10         0.9645  -18.6141  -52.1163 C.ar      23 UNK        -0.1150 
     11 C11         1.4441  -19.8409  -52.5841 C.ar      23 UNK        -0.0193 
     12 C12         2.1386  -20.6830  -51.7107 C.ar      23 UNK        -0.1150 
     13 C13         2.3327  -20.3175  -50.3739 C.ar      23 UNK        -0.0193 
     14 C14         1.8551  -19.0826  -49.9216 C.ar      23 UNK        -0.1150 
     15 C15         3.0235  -21.2798  -49.4181 C.3       23 UNK        -0.0205 
     16 S16         1.8866  -22.5761  -48.8185 S.3       23 UNK        -0.2404 
     17 C17         1.0120  -21.7083  -47.4752 C.3       23 UNK        -0.0398 
     18 CA          0.1247  -22.6549  -46.6190 C.3       11 UNK         0.1400 
     19 N           0.0725  -22.2461  -45.2124 N.am      11 UNK        -0.5000 
     20 C          -0.4882  -22.9502  -44.2176 C.2       10 UNK         0.5000 
     21 O          -0.9456  -24.0843  -44.3552 O.2       10 UNK        -0.5000 
     22 CA         -0.6071  -22.2468  -42.8496 C.3       10 UNK         0.1400 
     23 CB          0.6707  -22.4278  -42.0172 C.3       10 UNK        -0.1800 
     24 N          -0.9175  -20.8207  -42.9776 N.am      10 UNK        -0.5000 
     25 C          -2.0565  -20.3432  -43.5009 C.2       9 UNK         0.5000 
     26 O          -2.9978  -21.0537  -43.8493 O.2       9 UNK        -0.5000 
     27 CA         -2.1296  -18.8264  -43.7433 C.3       9 UNK         0.1400 
     28 CB         -2.5652  -18.0773  -42.4750 C.3       9 UNK        -0.1800 
     29 N          -0.8573  -18.2976  -44.2388 N.am      9 UNK        -0.5000 
     30 C          -0.3731  -18.5538  -45.4634 C.2       8 UNK         0.5000 
     31 O          -0.9877  -19.1945  -46.3154 O.2       8 UNK        -0.5000 
     32 CA          1.0508  -18.0563  -45.7731 C.3       8 UNK         0.1400 
     33 CB          1.0201  -16.6219  -46.3039 C.3       8 UNK        -0.1800 
     34 N           1.9371  -18.1069  -44.6114 N.am      8 UNK        -0.5000 
     35 C           2.3911  -19.2368  -44.0548 C.2       7 UNK         0.5000 
     36 O           2.1311  -20.3574  -44.4865 O.2       7 UNK        -0.5000 
     37 CA          3.2322  -19.0907  -42.7742 C.3       7 UNK         0.1400 
     38 CB          4.7147  -18.8942  -43.1218 C.3       7 UNK        -0.1800 
     39 N           2.7875  -17.9886  -41.9194 N.am      7 UNK        -0.5000 
     40 C           1.5809  -17.8814  -41.3510 C.2       6 UNK         0.5000 
     41 O           0.6932  -18.7227  -41.4947 O.2       6 UNK        -0.5000 
     42 CA          1.2947  -16.6104  -40.5261 C.3       6 UNK         0.1400 
     43 CB          1.8302  -16.7473  -39.0892 C.3       6 UNK        -0.1800 
     44 N           1.7428  -15.3572  -41.1535 N.am      6 UNK        -0.5000 
     45 C           2.9904  -14.9290  -41.4094 C.2       5 UNK         0.5000 
     46 O           4.0022  -15.5753  -41.1345 O.2       5 UNK        -0.5000 
     47 CA          3.1487  -13.5750  -42.1302 C.3       5 UNK         0.1400 
     48 CB          3.6617  -13.7950  -43.5631 C.3       5 UNK        -0.1800 
     49 N           1.9053  -12.8039  -42.1841 N.am      5 UNK        -0.5000 
     50 C           1.4293  -12.0564  -41.1772 C.2       4 UNK         0.5000 
     51 O           2.0275  -11.8922  -40.1133 O.2       4 UNK        -0.5000 
     52 CA          0.0482  -11.3929  -41.3722 C.3       4 UNK         0.1400 
     53 CB          0.2146   -9.9258  -41.7965 C.3       4 UNK        -0.1800 
     54 N          -0.8149  -12.0706  -42.3434 N.am      4 UNK        -0.5000 
     55 C          -1.2608  -13.3298  -42.2384 C.2       3 UNK         0.5000 
     56 O          -1.0190  -14.0619  -41.2786 O.2       3 UNK        -0.5000 
     57 CA         -2.0659  -13.8911  -43.4269 C.3       3 UNK         0.1400 
     58 CB         -3.5685  -13.6775  -43.1903 C.3       3 UNK        -0.1800 
     59 N          -1.7091  -13.3744  -44.7560 N.am      3 UNK        -0.5000 
     60 C          -0.4761  -13.2988  -45.2814 C.2       2 UNK         0.5000 
     61 O           0.5541  -13.5209  -44.6457 O.2       2 UNK        -0.5000 
     62 CA         -0.4050  -13.0042  -46.7863 C.3       2 UNK         0.1400 
     63 CB          1.0325  -12.9740  -47.3419 C.3       2 UNK        -0.1800 
     64 N          -1.1954  -14.0235  -47.4681 N.am      2 UNK        -0.5000 
     65 C          -1.8177  -13.8793  -48.6420 C.2       1 UNK         0.5000 
     66 O          -1.7029  -12.8824  -49.3562 O.2       1 UNK        -0.5000 
     67 C          -1.2960  -22.8087  -47.2031 C.2       11 UNK         0.5000 
     68 O          -1.6191  -23.8649  -47.7436 O.2       11 UNK        -0.5000 
     69 N          -2.1378  -21.7770  -47.0303 N.am      12 UNK        -0.5000 
     70 CA         -3.5337  -21.7525  -47.4776 C.3       12 UNK         0.1400 
     71 CB         -4.1094  -20.3424  -47.2873 C.3       12 UNK        -0.1800 
     72 C          -4.4184  -22.8150  -46.8009 C.2       12 UNK         0.5000 
     73 O          -5.2759  -23.3974  -47.4641 O.2       12 UNK        -0.5000 
     74 N          -4.1650  -23.0996  -45.5163 N.am      13 UNK        -0.5000 
     75 CA         -4.8148  -24.1718  -44.7558 C.3       13 UNK         0.1400 
     76 CB         -4.4294  -24.0507  -43.2739 C.3       13 UNK        -0.1800 
     77 C          -4.4986  -25.5866  -45.2870 C.2       13 UNK         0.5000 
     78 O          -5.3001  -26.4992  -45.0850 O.2       13 UNK        -0.5000 
     79 N          -3.3626  -25.7374  -45.9803 N.am      14 UNK        -0.5000 
     80 CA         -2.9403  -26.9556  -46.6727 C.3       14 UNK         0.1400 
     81 CB         -1.4229  -27.1227  -46.4790 C.3       14 UNK        -0.1800 
     82 C          -3.3160  -26.9362  -48.1715 C.2       14 UNK         0.5000 
     83 O          -2.8386  -27.7915  -48.9191 O.2       14 UNK        -0.5000 
     84 N          -4.1475  -25.9674  -48.5880 N.am      15 UNK        -0.5000 
     85 CA         -4.5274  -25.6149  -49.9574 C.3       15 UNK         0.1400 
     86 CB         -5.2181  -26.7759  -50.7030 C.3       15 UNK        -0.1800 
     87 C          -3.3340  -25.0173  -50.7193 C.2       15 UNK         0.5000 
     88 O          -3.2488  -23.7935  -50.8200 O.2       15 UNK        -0.5000 
     89 N          -2.4443  -25.8853  -51.2271 N.am      16 UNK        -0.5000 
     90 CA         -1.1028  -25.6150  -51.7725 C.3       16 UNK         0.1400 
     91 CB         -0.1662  -25.2122  -50.6152 C.3       16 UNK        -0.1800 
     92 C          -1.0230  -24.5955  -52.9338 C.2       16 UNK         0.5000 
     93 O           0.0591  -24.0739  -53.2043 O.2       16 UNK        -0.5000 
     94 N          -2.1690  -24.2877  -53.5616 N.am      17 UNK        -0.5000 
     95 CA         -2.4247  -23.1528  -54.4651 C.3       17 UNK         0.1400 
     96 CB         -1.5461  -23.2146  -55.7307 C.3       17 UNK        -0.1800 
     97 C          -2.3330  -21.7729  -53.7714 C.2       17 UNK         0.5000 
     98 O          -2.4879  -20.7461  -54.4311 O.2       17 UNK        -0.5000 
     99 N          -2.1163  -21.7599  -52.4521 N.am      18 UNK        -0.5000 
    100 CA        -2.0890  -20.5877  -51.5860 C.3       18 UNK         0.1400 
    101 CB        -1.3379  -20.9530  -50.3037 C.3       18 UNK        -0.1800 
    102 C         -3.5095  -20.1050  -51.2734 C.2       18 UNK         0.5000 
    103 O         -3.7471  -18.9000  -51.2351 O.2       18 UNK        -0.5000 
    104 N         -4.4506  -21.0529  -51.1552 N.am      19 UNK        -0.5000 
    105 CA        -5.8897  -20.7886  -51.0824 C.3       19 UNK         0.1400 
    106 CB        -6.6225  -22.1039  -50.7820 C.3       19 UNK        -0.1800 
    107 C         -6.4453  -20.1332  -52.3663 C.2       19 UNK         0.5000 
    108 O         -7.4090  -19.3709  -52.2930 O.2       19 UNK        -0.5000 
    109 N         -5.8075  -20.4230  -53.5097 N.am      20 UNK        -0.5000 
    110 CA        -6.0792  -19.8081  -54.8106 C.3       20 UNK         0.1400 
    111 CB        -5.7826  -20.8409  -55.9106 C.3       20 UNK        -0.1800 
    112 C         -5.2637  -18.5180  -55.0473 C.2       20 UNK         0.5000 
    113 O         -5.5580  -17.8001  -56.0032 O.2       20 UNK        -0.5000 
    114 N         -4.2684  -18.2548  -54.1853 N.am      21 UNK        -0.5000 
    115 CA        -3.3041  -17.1525  -54.2066 C.3       21 UNK         0.1400 
    116 CB        -4.0051  -15.8167  -53.8865 C.3       21 UNK        -0.1800 
    117 C         -2.4858  -17.1083  -55.5142 C.2       21 UNK         0.5000 
    118 O         -2.7461  -16.2648  -56.3751 O.2       21 UNK        -0.5000 
    119 N         -1.5304  -18.0415  -55.6409 N.am      22 UNK        -0.5000 
    120 CA        -0.6002  -18.1804  -56.7784 C.3       22 UNK         0.1400 
    121 C          0.1453  -16.8751  -57.2001 C.2       22 UNK         0.5000 
    122 N          0.4760  -16.7322  -58.4772 N.am      22 UNK        -0.7600 
    123 O          0.4593  -16.0120  -56.3827 O.2       22 UNK        -0.5000 
    124 C124        0.3934  -19.3607  -56.5746 C.3       23 UNK        -0.0398 
    125 S125        1.6493  -19.1003  -55.2637 S.3       23 UNK        -0.2404 
    126 C126        1.1215  -20.2955  -53.9997 C.3       23 UNK        -0.0205 
    127 H127       -4.2602  -17.4793  -46.2863 H         1 UNK         0.0600 
    128 H128       -5.4858  -16.3723  -45.6667 H         1 UNK         0.0600 
    129 H129       -3.8458  -16.3329  -45.0084 H         1 UNK         0.0600 
    130 H130       -2.9951  -16.8122  -48.0131 H         1 UNK         0.3000 
    131 H131       -3.6279  -14.5298  -49.5244 H         1 UNK         0.0600 
    132 H132       -2.9229  -16.3791  -50.7583 H         1 UNK         0.0800 
    133 H133       -1.5840  -15.2954  -50.9201 H         1 UNK         0.0800 
    134 H134        1.2192  -16.4734  -49.5373 H         1 UNK         0.0800 
    135 H135        0.4903  -16.2127  -51.1041 H         1 UNK         0.0800 
    136 H136        0.4038  -17.9716  -52.7806 H         1 UNK         0.1150 
    137 H137        2.4855  -21.6473  -52.0552 H         1 UNK         0.1150 
    138 H138        1.9889  -18.7988  -48.8881 H         1 UNK         0.1150 
    139 H139        3.4589  -20.7431  -48.5739 H         1 UNK         0.0800 
    140 H140        3.8572  -21.7590  -49.9334 H         1 UNK         0.0800 
    141 H141        0.4452  -20.8723  -47.8882 H         1 UNK         0.0800 
    142 H142        1.7857  -21.2616  -46.8524 H         1 UNK         0.0800 
    143 H143        0.5823  -23.6467  -46.6208 H         1 UNK         0.0600 
    144 H144        0.5116  -21.3613  -44.9816 H         1 UNK         0.3000 
    145 H145       -1.4301  -22.7166  -42.3072 H         1 UNK         0.0600 
    146 H146        0.5746  -21.9560  -41.0391 H         1 UNK         0.0600 
    147 H147        0.8778  -23.4855  -41.8503 H         1 UNK         0.0600 
    148 H148        1.5420  -21.9993  -42.5107 H         1 UNK         0.0600 
    149 H149       -0.2109  -20.1629  -42.6665 H         1 UNK         0.3000 
    150 H150       -2.8895  -18.6549  -44.5076 H         1 UNK         0.0600 
    151 H151       -1.8496  -18.1947  -41.6620 H         1 UNK         0.0600 
    152 H152       -3.5258  -18.4503  -42.1177 H         1 UNK         0.0600 
    153 H153       -2.6860  -17.0120  -42.6651 H         1 UNK         0.0600 
    154 H154       -0.2696  -17.8233  -43.5697 H         1 UNK         0.3000 
    155 H155        1.4637  -18.7005  -46.5512 H         1 UNK         0.0600 
    156 H156        0.6831  -15.9320  -45.5337 H         1 UNK         0.0600 
    157 H157        0.3443  -16.5266  -47.1515 H         1 UNK         0.0600 
    158 H158        2.0081  -16.3026  -46.6356 H         1 UNK         0.0600 
    159 H159        2.2007  -17.2266  -44.1948 H         1 UNK         0.3000 
    160 H160        3.1315  -20.0163  -42.2043 H         1 UNK         0.0600 
    161 H161        4.8813  -17.9622  -43.6636 H         1 UNK         0.0600 
    162 H162        5.0813  -19.7094  -43.7470 H         1 UNK         0.0600 
    163 H163        5.3303  -18.8728  -42.2223 H         1 UNK         0.0600 
    164 H164        3.4546  -17.2438  -41.7327 H         1 UNK         0.3000 
    165 H165        0.2087  -16.5269  -40.4589 H         1 UNK         0.0600 
    166 H166        1.5690  -15.8764  -38.4880 H         1 UNK         0.0600 
    167 H167        2.9143  -16.8600  -39.0637 H         1 UNK         0.0600 
    168 H168        1.4018  -17.6218  -38.5979 H         1 UNK         0.0600 
    169 H169        0.9844  -14.7377  -41.4153 H         1 UNK         0.3000 
    170 H170        3.9001  -12.9983  -41.5870 H         1 UNK         0.0600 
    171 H171        4.6405  -14.2762  -43.5580 H         1 UNK         0.0600 
    172 H172        2.9898  -14.4307  -44.1407 H         1 UNK         0.0600 
    173 H173        3.7678  -12.8496  -44.0953 H         1 UNK         0.0600 
    174 H174        1.3520  -12.9092  -43.0315 H         1 UNK         0.3000 
    175 H175       -0.4607  -11.4146  -40.4064 H         1 UNK         0.0600 
    176 H176        0.6953   -9.8424  -42.7721 H         1 UNK         0.0600 
    177 H177       -0.7487   -9.4182  -41.8509 H         1 UNK         0.0600 
    178 H178        0.8284   -9.3782  -41.0800 H         1 UNK         0.0600 
    179 H179       -1.0463  -11.5545  -43.1793 H         1 UNK         0.3000 
    180 H180       -1.8748  -14.9647  -43.4556 H         1 UNK         0.0600 
    181 H181       -3.8247  -12.6174  -43.1805 H         1 UNK         0.0600 
    182 H182       -3.8786  -14.0995  -42.2332 H         1 UNK         0.0600 
    183 H183       -4.1686  -14.1569  -43.9626 H         1 UNK         0.0600 
    184 H184       -2.4901  -13.1701  -45.3652 H         1 UNK         0.3000 
    185 H185       -0.8606  -12.0242  -46.9425 H         1 UNK         0.0600 
    186 H186        1.0414  -12.7217  -48.4021 H         1 UNK         0.0600 
    187 H187        1.6346  -12.2255  -46.8255 H         1 UNK         0.0600 
    188 H188        1.5319  -13.9352  -47.2245 H         1 UNK         0.0600 
    189 H189       -1.3657  -14.8696  -46.9439 H         1 UNK         0.3000 
    190 H190       -1.7868  -20.9263  -46.5988 H         1 UNK         0.3000 
    191 H191       -3.5471  -21.9761  -48.5445 H         1 UNK         0.0600 
    192 H192       -5.1361  -20.2874  -47.6513 H         1 UNK         0.0600 
    193 H193       -3.5286  -19.6032  -47.8401 H         1 UNK         0.0600 
    194 H194       -4.1145  -20.0504  -46.2371 H         1 UNK         0.0600 
    195 H195       -3.4973  -22.5227  -45.0122 H         1 UNK         0.3000 
    196 H196       -5.8940  -24.0277  -44.8375 H         1 UNK         0.0600 
    197 H197       -3.3573  -24.1780  -43.1259 H         1 UNK         0.0600 
    198 H198       -4.7108  -23.0778  -42.8705 H         1 UNK         0.0600 
    199 H199       -4.9353  -24.8091  -42.6753 H         1 UNK         0.0600 
    200 H200       -2.7653  -24.9298  -46.1151 H         1 UNK         0.3000 
    201 H201       -3.4323  -27.8234  -46.2296 H         1 UNK         0.0600 
    202 H202       -0.8642  -26.3192  -46.9598 H         1 UNK         0.0600 
    203 H203       -1.0726  -28.0647  -46.9024 H         1 UNK         0.0600 
    204 H204       -1.1586  -27.1251  -45.4213 H         1 UNK         0.0600 
    205 H205       -4.4513  -25.2930  -47.8955 H         1 UNK         0.3000 
    206 H206       -5.2649  -24.8170  -49.8628 H         1 UNK         0.0600 
    207 H207       -6.1027  -27.1122  -50.1623 H         1 UNK         0.0600 
    208 H208       -5.5471  -26.4561  -51.6923 H         1 UNK         0.0600 
    209 H209       -4.5688  -27.6398  -50.8419 H         1 UNK         0.0600 
    210 H210       -2.6322  -26.8630  -51.0442 H         1 UNK         0.3000 
    211 H211       -0.7437  -26.5618  -52.1777 H         1 UNK         0.0600 
    212 H212        0.8739  -25.1660  -50.9396 H         1 UNK         0.0600 
    213 H213       -0.2172  -25.9282  -49.7946 H         1 UNK         0.0600 
    214 H214       -0.4272  -24.2314  -50.2157 H         1 UNK         0.0600 
    215 H215       -2.9933  -24.7843  -53.2542 H         1 UNK         0.3000 
    216 H216       -3.4626  -23.2568  -54.7837 H         1 UNK         0.0600 
    217 H217       -0.4989  -23.0033  -55.5134 H         1 UNK         0.0600 
    218 H218       -1.8754  -22.4805  -56.4671 H         1 UNK         0.0600 
    219 H219       -1.6018  -24.1950  -56.2034 H         1 UNK         0.0600 
    220 H220       -2.0869  -22.6524  -51.9722 H         1 UNK         0.3000 
    221 H221       -1.5620  -19.7755  -52.0879 H         1 UNK         0.0600 
    222 H222       -0.2890  -21.1427  -50.5114 H         1 UNK         0.0600 
    223 H223       -1.7351  -21.8611  -49.8586 H         1 UNK         0.0600 
    224 H224       -1.3910  -20.1594  -49.5587 H         1 UNK         0.0600 
    225 H225       -4.1563  -22.0246  -51.1610 H         1 UNK         0.3000 
    226 H226       -6.0652  -20.0981  -50.2548 H         1 UNK         0.0600 
    227 H227       -6.4428  -22.8520  -51.5551 H         1 UNK         0.0600 
    228 H228       -6.3007  -22.5221  -49.8287 H         1 UNK         0.0600 
    229 H229       -7.7000  -21.9465  -50.7187 H         1 UNK         0.0600 
    230 H230       -5.0257  -21.0583  -53.4703 H         1 UNK         0.3000 
    231 H231       -7.1369  -19.5434  -54.8719 H         1 UNK         0.0600 
    232 H232       -4.7290  -21.1203  -55.9307 H         1 UNK         0.0600 
    233 H233       -6.0328  -20.4443  -56.8954 H         1 UNK         0.0600 
    234 H234       -6.3694  -21.7487  -55.7694 H         1 UNK         0.0600 
    235 H235       -4.1364  -18.9077  -53.4259 H         1 UNK         0.3000 
    236 H236       -2.5974  -17.3465  -53.3978 H         1 UNK         0.0600 
    237 H237       -4.7489  -15.5542  -54.6394 H         1 UNK         0.0600 
    238 H238       -4.5083  -15.8606  -52.9205 H         1 UNK         0.0600 
    239 H239       -3.2831  -15.0007  -53.8409 H         1 UNK         0.0600 
    240 H240       -1.4544  -18.7497  -54.9238 H         1 UNK         0.3000 
    241 H241       -1.2389  -18.4498  -57.6215 H         1 UNK         0.0600 
    242 H242        0.9702  -15.9008  -58.7628 H         1 UNK         0.3800 
    243 H243        0.2386  -17.4259  -59.1697 H         1 UNK         0.3800 
    244 H244        0.9302  -19.5513  -57.5053 H         1 UNK         0.0800 
    245 H245       -0.1620  -20.2788  -56.3783 H         1 UNK         0.0800 
    246 H246        1.5636  -21.2693  -54.2163 H         1 UNK         0.0800 
    247 H247        0.0461  -20.4239  -54.0596 H         1 UNK         0.0800 
@<TRIPOS>BOND
     1    1    2 1    
     2    1  127 1    
     3    1  128 1    
     4    1  129 1    
     5    2    3 2    
     6    2    4 am   BACKBONE|DICT|INTERRES
     7    4    5 1    
     8    4  130 1    
     9    5    6 1    
    10    5   65 1    
    11    5  131 1    
    12    6    7 1    
    13    6  132 1    
    14    6  133 1    
    15    7    8 1    
    16    8    9 1    
    17    8  134 1    
    18    8  135 1    
    19    9   10 ar   
    20    9   14 ar   
    21   10   11 ar   
    22   10  136 1    
    23   11   12 ar   
    24   11  126 1    
    25   12   13 ar   
    26   12  137 1    
    27   13   14 ar   
    28   13   15 1    
    29   14  138 1    
    30   15   16 1    
    31   15  139 1    
    32   15  140 1    
    33   16   17 1    
    34   17   18 1    
    35   17  141 1    
    36   17  142 1    
    37   18   19 1    
    38   18   67 1    
    39   18  143 1    
    40   19   20 am   BACKBONE|DICT|INTERRES
    41   19  144 1    
    42   20   21 2    
    43   20   22 1    
    44   22   23 1    
    45   22   24 1    
    46   22  145 1    
    47   23  146 1    
    48   23  147 1    
    49   23  148 1    
    50   24   25 am   BACKBONE|DICT|INTERRES
    51   24  149 1    
    52   25   26 2    
    53   25   27 1    
    54   27   28 1    
    55   27   29 1    
    56   27  150 1    
    57   28  151 1    
    58   28  152 1    
    59   28  153 1    
    60   29   30 am   BACKBONE|DICT|INTERRES
    61   29  154 1    
    62   30   31 2    
    63   30   32 1    
    64   32   33 1    
    65   32   34 1    
    66   32  155 1    
    67   33  156 1    
    68   33  157 1    
    69   33  158 1    
    70   34   35 am   BACKBONE|DICT|INTERRES
    71   34  159 1    
    72   35   36 2    
    73   35   37 1    
    74   37   38 1    
    75   37   39 1    
    76   37  160 1    
    77   38  161 1    
    78   38  162 1    
    79   38  163 1    
    80   39   40 am   BACKBONE|DICT|INTERRES
    81   39  164 1    
    82   40   41 2    
    83   40   42 1    
    84   42   43 1    
    85   42   44 1    
    86   42  165 1    
    87   43  166 1    
    88   43  167 1    
    89   43  168 1    
    90   44   45 am   BACKBONE|DICT|INTERRES
    91   44  169 1    
    92   45   46 2    
    93   45   47 1    
    94   47   48 1    
    95   47   49 1    
    96   47  170 1    
    97   48  171 1    
    98   48  172 1    
    99   48  173 1    
   100   49   50 am   BACKBONE|DICT|INTERRES
   101   49  174 1    
   102   50   51 2    
   103   50   52 1    
   104   52   53 1    
   105   52   54 1    
   106   52  175 1    
   107   53  176 1    
   108   53  177 1    
   109   53  178 1    
   110   54   55 am   BACKBONE|DICT|INTERRES
   111   54  179 1    
   112   55   56 2    
   113   55   57 1    
   114   57   58 1    
   115   57   59 1    
   116   57  180 1    
   117   58  181 1    
   118   58  182 1    
   119   58  183 1    
   120   59   60 am   BACKBONE|DICT|INTERRES
   121   59  184 1    
   122   60   61 2    
   123   60   62 1    
   124   62   63 1    
   125   62   64 1    
   126   62  185 1    
   127   63  186 1    
   128   63  187 1    
   129   63  188 1    
   130   64   65 am   BACKBONE|DICT|INTERRES
   131   64  189 1    
   132   65   66 2    
   133   67   68 2    
   134   67   69 am   BACKBONE|DICT|INTERRES
   135   69   70 1    
   136   69  190 1    
   137   70   71 1    
   138   70   72 1    
   139   70  191 1    
   140   71  192 1    
   141   71  193 1    
   142   71  194 1    
   143   72   73 2    
   144   72   74 am   BACKBONE|DICT|INTERRES
   145   74   75 1    
   146   74  195 1    
   147   75   76 1    
   148   75   77 1    
   149   75  196 1    
   150   76  197 1    
   151   76  198 1    
   152   76  199 1    
   153   77   78 2    
   154   77   79 am   BACKBONE|DICT|INTERRES
   155   79   80 1    
   156   79  200 1    
   157   80   81 1    
   158   80   82 1    
   159   80  201 1    
   160   81  202 1    
   161   81  203 1    
   162   81  204 1    
   163   82   83 2    
   164   82   84 am   BACKBONE|DICT|INTERRES
   165   84   85 1    
   166   84  205 1    
   167   85   86 1    
   168   85   87 1    
   169   85  206 1    
   170   86  207 1    
   171   86  208 1    
   172   86  209 1    
   173   87   88 2    
   174   87   89 am   BACKBONE|DICT|INTERRES
   175   89   90 1    
   176   89  210 1    
   177   90   91 1    
   178   90   92 1    
   179   90  211 1    
   180   91  212 1    
   181   91  213 1    
   182   91  214 1    
   183   92   93 2    
   184   92   94 am   BACKBONE|DICT|INTERRES
   185   94   95 1    
   186   94  215 1    
   187   95   96 1    
   188   95   97 1    
   189   95  216 1    
   190   96  217 1    
   191   96  218 1    
   192   96  219 1    
   193   97   98 2    
   194   97   99 am   BACKBONE|DICT|INTERRES
   195   99  100 1    
   196   99  220 1    
   197  100  101 1    
   198  100  102 1    
   199  100  221 1    
   200  101  222 1    
   201  101  223 1    
   202  101  224 1    
   203  102  103 2    
   204  102  104 am   BACKBONE|DICT|INTERRES
   205  104  105 1    
   206  104  225 1    
   207  105  106 1    
   208  105  107 1    
   209  105  226 1    
   210  106  227 1    
   211  106  228 1    
   212  106  229 1    
   213  107  108 2    
   214  107  109 am   BACKBONE|DICT|INTERRES
   215  109  110 1    
   216  109  230 1    
   217  110  111 1    
   218  110  112 1    
   219  110  231 1    
   220  111  232 1    
   221  111  233 1    
   222  111  234 1    
   223  112  113 2    
   224  112  114 am   BACKBONE|DICT|INTERRES
   225  114  115 1    
   226  114  235 1    
   227  115  116 1    
   228  115  117 1    
   229  115  236 1    
   230  116  237 1    
   231  116  238 1    
   232  116  239 1    
   233  117  118 2    
   234  117  119 am   BACKBONE|DICT|INTERRES
   235  119  120 1    
   236  119  240 1    
   237  120  121 1    
   238  120  124 1    
   239  120  241 1    
   240  121  122 am   BACKBONE|DICT|INTERRES
   241  121  123 2    
   242  122  242 1    
   243  122  243 1    
   244  124  125 1    
   245  124  244 1    
   246  124  245 1    
   247  125  126 1    
   248  126  246 1    
   249  126  247 1    
@<TRIPOS>SUBSTRUCTURE
     1 UNK         1 GROUP             0       ****    0 ROOT    
