@<TRIPOS>MOLECULE
3R540
247   249    1
SMALL
USER_CHARGES


@<TRIPOS>ATOM
      1 CA         -2.8908  -14.6409  -51.7696 C.3       0 UNK        -0.1800 
      2 C          -1.9182  -13.9306  -50.8420 C.2       0 UNK         0.5000 
      3 O          -2.1028  -12.7521  -50.5395 O.2       0 UNK        -0.5000 
      4 N          -0.8912  -14.6483  -50.3733 N.am      1 UNK        -0.5000 
      5 CA          0.1438  -14.1562  -49.4548 C.3       1 UNK         0.1400 
      6 C6          1.4906  -14.8909  -49.6596 C.3       23 UNK        -0.0398 
      7 S7          1.3821  -16.7026  -49.4798 S.3       23 UNK        -0.2404 
      8 C8          3.1528  -17.1131  -49.5007 C.3       23 UNK        -0.0205 
      9 C9          3.3708  -18.5942  -49.7538 C.ar      23 UNK        -0.0193 
     10 C10         3.0320  -19.1367  -50.9945 C.ar      23 UNK        -0.1150 
     11 C11         3.2111  -20.4968  -51.2532 C.ar      23 UNK        -0.0193 
     12 C12         3.7797  -21.3101  -50.2668 C.ar      23 UNK        -0.1150 
     13 C13         4.1557  -20.7719  -49.0304 C.ar      23 UNK        -0.0193 
     14 C14         3.9313  -19.4157  -48.7731 C.ar      23 UNK        -0.1150 
     15 C15         4.8533  -21.6392  -47.9909 C.3       23 UNK        -0.0205 
     16 S16         3.7754  -22.9270  -47.2940 S.3       23 UNK        -0.2404 
     17 C17         2.5637  -21.9360  -46.3566 C.3       23 UNK        -0.0398 
     18 CA          1.1800  -22.6217  -46.3006 C.3       11 UNK         0.1400 
     19 N           0.3381  -22.0819  -45.2308 N.am      11 UNK        -0.5000 
     20 C          -0.8183  -22.6324  -44.8341 C.2       10 UNK         0.5000 
     21 O          -1.2723  -23.6775  -45.2975 O.2       10 UNK        -0.5000 
     22 CA         -1.6238  -21.8765  -43.7658 C.3       10 UNK         0.1400 
     23 CB         -1.0778  -22.1795  -42.3626 C.3       10 UNK        -0.1800 
     24 N          -1.6419  -20.4320  -43.9870 N.am      10 UNK        -0.5000 
     25 C          -2.1864  -19.8238  -45.0503 C.2       9 UNK         0.5000 
     26 O          -2.7573  -20.4172  -45.9636 O.2       9 UNK        -0.5000 
     27 CA         -2.0234  -18.2959  -45.1269 C.3       9 UNK         0.1400 
     28 CB         -2.9811  -17.5993  -44.1466 C.3       9 UNK        -0.1800 
     29 N          -0.6475  -17.8707  -44.8657 N.am      9 UNK        -0.5000 
     30 C           0.4146  -18.2333  -45.6021 C.2       8 UNK         0.5000 
     31 O           0.3515  -18.9526  -46.5986 O.2       8 UNK        -0.5000 
     32 CA          1.7878  -17.7657  -45.0961 C.3       8 UNK         0.1400 
     33 CB          2.0641  -16.3173  -45.5177 C.3       8 UNK        -0.1800 
     34 N           1.8972  -17.8849  -43.6424 N.am      8 UNK        -0.5000 
     35 C           1.9496  -19.0551  -42.9898 C.2       7 UNK         0.5000 
     36 O           1.9448  -20.1514  -43.5506 O.2       7 UNK        -0.5000 
     37 CA          1.9606  -18.9891  -41.4514 C.3       7 UNK         0.1400 
     38 CB          3.3667  -18.6569  -40.9300 C.3       7 UNK        -0.1800 
     39 N           1.0031  -18.0176  -40.9206 N.am      7 UNK        -0.5000 
     40 C          -0.3258  -18.0977  -41.0767 C.2       6 UNK         0.5000 
     41 O          -0.8873  -19.0266  -41.6530 O.2       6 UNK        -0.5000 
     42 CA         -1.1766  -16.9383  -40.5276 C.3       6 UNK         0.1400 
     43 CB         -1.7195  -17.2872  -39.1340 C.3       6 UNK        -0.1800 
     44 N          -0.4733  -15.6558  -40.4614 N.am      6 UNK        -0.5000 
     45 C           0.0276  -14.9902  -41.5110 C.2       5 UNK         0.5000 
     46 O          -0.0119  -15.4188  -42.6680 O.2       5 UNK        -0.5000 
     47 CA          0.6650  -13.6260  -41.1724 C.3       5 UNK         0.1400 
     48 CB          1.8576  -13.7751  -40.2024 C.3       5 UNK        -0.1800 
     49 N           1.0387  -12.8363  -42.3485 N.am      5 UNK        -0.5000 
     50 C           2.0043  -13.0754  -43.2459 C.2       4 UNK         0.5000 
     51 O           2.7956  -14.0175  -43.1742 O.2       4 UNK        -0.5000 
     52 CA          2.0945  -12.0698  -44.4148 C.3       4 UNK         0.1400 
     53 CB          3.1069  -12.4976  -45.4934 C.3       4 UNK        -0.1800 
     54 N           0.7898  -11.8478  -45.0449 N.am      4 UNK        -0.5000 
     55 C          -0.1477  -10.9880  -44.6181 C.2       3 UNK         0.5000 
     56 O          -0.0027  -10.2764  -43.6235 O.2       3 UNK        -0.5000 
     57 CA         -1.4787  -10.9258  -45.3978 C.3       3 UNK         0.1400 
     58 CB         -1.4466   -9.7815  -46.4220 C.3       3 UNK        -0.1800 
     59 N          -1.8013  -12.1722  -46.0908 N.am      3 UNK        -0.5000 
     60 C          -2.1047  -13.3301  -45.4886 C.2       2 UNK         0.5000 
     61 O          -2.2965  -13.4327  -44.2771 O.2       2 UNK        -0.5000 
     62 CA         -2.1945  -14.5892  -46.3786 C.3       2 UNK         0.1400 
     63 CB         -3.6605  -15.0066  -46.5709 C.3       2 UNK        -0.1800 
     64 N          -1.5735  -14.4823  -47.7033 N.am      2 UNK        -0.5000 
     65 C          -0.3005  -14.1588  -47.9745 C.2       1 UNK         0.5000 
     66 O           0.5102  -13.8413  -47.1064 O.2       1 UNK        -0.5000 
     67 C           0.4556  -22.5956  -47.6625 C.2       11 UNK         0.5000 
     68 O           0.4182  -23.6201  -48.3449 O.2       11 UNK        -0.5000 
     69 N          -0.1637  -21.4548  -47.9989 N.am      12 UNK        -0.5000 
     70 CA         -0.9881  -21.2899  -49.1949 C.3       12 UNK         0.1400 
     71 CB         -1.4038  -19.8182  -49.3347 C.3       12 UNK        -0.1800 
     72 C          -2.2056  -22.2340  -49.2064 C.2       12 UNK         0.5000 
     73 O          -2.4407  -22.9037  -50.2110 O.2       12 UNK        -0.5000 
     74 N          -2.9121  -22.3318  -48.0703 N.am      13 UNK        -0.5000 
     75 CA         -4.0384  -23.2446  -47.8698 C.3       13 UNK         0.1400 
     76 CB         -4.7031  -22.9711  -46.5140 C.3       13 UNK        -0.1800 
     77 C          -3.6654  -24.7303  -48.0054 C.2       13 UNK         0.5000 
     78 O          -4.4438  -25.4916  -48.5765 O.2       13 UNK        -0.5000 
     79 N          -2.4863  -25.1195  -47.5064 N.am      14 UNK        -0.5000 
     80 CA         -1.9501  -26.4719  -47.6484 C.3       14 UNK         0.1400 
     81 CB         -0.7632  -26.6585  -46.6906 C.3       14 UNK        -0.1800 
     82 C          -1.5400  -26.7936  -49.0974 C.2       14 UNK         0.5000 
     83 O          -1.8271  -27.8896  -49.5801 O.2       14 UNK        -0.5000 
     84 N          -0.8708  -25.8405  -49.7577 N.am      15 UNK        -0.5000 
     85 CA         -0.3219  -25.9994  -51.1019 C.3       15 UNK         0.1400 
     86 CB          0.7704  -24.9433  -51.3237 C.3       15 UNK        -0.1800 
     87 C          -1.3801  -25.9258  -52.2172 C.2       15 UNK         0.5000 
     88 O          -1.3529  -26.7582  -53.1250 O.2       15 UNK        -0.5000 
     89 N          -2.2673  -24.9251  -52.1521 N.am      16 UNK        -0.5000 
     90 CA         -3.1843  -24.5563  -53.2352 C.3       16 UNK         0.1400 
     91 CB         -2.9559  -23.0749  -53.5724 C.3       16 UNK        -0.1800 
     92 C          -4.6635  -24.8228  -52.9029 C.2       16 UNK         0.5000 
     93 O          -5.5275  -24.4609  -53.7020 O.2       16 UNK        -0.5000 
     94 N          -4.9374  -25.4371  -51.7428 N.am      17 UNK        -0.5000 
     95 CA         -6.2561  -25.8069  -51.2031 C.3       17 UNK         0.1400 
     96 CB         -7.0386  -26.7104  -52.1797 C.3       17 UNK        -0.1800 
     97 C          -7.1106  -24.6194  -50.7040 C.2       17 UNK         0.5000 
     98 O          -8.2069  -24.8466  -50.1893 O.2       17 UNK        -0.5000 
     99 N          -6.6053  -23.3872  -50.8241 N.am      18 UNK        -0.5000 
    100 CA        -7.2158  -22.1553  -50.3392 C.3       18 UNK         0.1400 
    101 CB        -8.2965  -21.6688  -51.3207 C.3       18 UNK        -0.1800 
    102 C         -6.1056  -21.1105  -50.1865 C.2       18 UNK         0.5000 
    103 O         -5.1811  -21.0914  -50.9980 O.2       18 UNK        -0.5000 
    104 N         -6.2131  -20.2584  -49.1600 N.am      19 UNK        -0.5000 
    105 CA        -5.2133  -19.2367  -48.8254 C.3       19 UNK         0.1400 
    106 CB        -5.4460  -18.7773  -47.3775 C.3       19 UNK        -0.1800 
    107 C         -5.2074  -18.0235  -49.7809 C.2       19 UNK         0.5000 
    108 O         -4.2854  -17.2096  -49.7250 O.2       19 UNK        -0.5000 
    109 N         -6.2463  -17.9106  -50.6192 N.am      20 UNK        -0.5000 
    110 CA        -6.4876  -16.8069  -51.5492 C.3       20 UNK         0.1400 
    111 CB        -7.9583  -16.8658  -51.9939 C.3       20 UNK        -0.1800 
    112 C         -5.5544  -16.7761  -52.7776 C.2       20 UNK         0.5000 
    113 O         -5.5668  -15.7815  -53.5043 O.2       20 UNK        -0.5000 
    114 N         -4.7749  -17.8386  -53.0063 N.am      21 UNK        -0.5000 
    115 CA        -3.8214  -17.9587  -54.1048 C.3       21 UNK         0.1400 
    116 CB        -4.5569  -18.4094  -55.3810 C.3       21 UNK        -0.1800 
    117 C         -2.7240  -18.9599  -53.7200 C.2       21 UNK         0.5000 
    118 O         -2.9084  -19.7350  -52.7823 O.2       21 UNK        -0.5000 
    119 N         -1.6175  -18.9412  -54.4692 N.am      22 UNK        -0.5000 
    120 CA        -0.5226  -19.9209  -54.4011 C.3       22 UNK         0.1400 
    121 C          0.4250  -19.8010  -55.6256 C.2       22 UNK         0.5000 
    122 N          0.6906  -18.6021  -56.1338 N.am      22 UNK        -0.7600 
    123 O          0.9026  -20.8057  -56.1443 O.2       22 UNK        -0.5000 
    124 C124        0.2637  -19.8912  -53.0602 C.3       23 UNK        -0.0398 
    125 S125        1.0442  -21.4972  -52.6719 S.3       23 UNK        -0.2404 
    126 C126        2.8149  -21.0766  -52.6043 C.3       23 UNK        -0.0205 
    127 H127       -2.6482  -15.6984  -51.8794 H         1 UNK         0.0600 
    128 H128       -2.8772  -14.1818  -52.7579 H         1 UNK         0.0600 
    129 H129       -3.9029  -14.5673  -51.3717 H         1 UNK         0.0600 
    130 H130       -0.7980  -15.6200  -50.6361 H         1 UNK         0.3000 
    131 H131        0.3286  -13.1069  -49.6946 H         1 UNK         0.0600 
    132 H132        2.2501  -14.5067  -48.9756 H         1 UNK         0.0800 
    133 H133        1.8650  -14.6776  -50.6617 H         1 UNK         0.0800 
    134 H134        3.6046  -16.8055  -48.5565 H         1 UNK         0.0800 
    135 H135        3.6531  -16.5454  -50.2867 H         1 UNK         0.0800 
    136 H136        2.6214  -18.4884  -51.7533 H         1 UNK         0.1150 
    137 H137        3.9420  -22.3607  -50.4632 H         1 UNK         0.1150 
    138 H138        4.2138  -18.9942  -47.8187 H         1 UNK         0.1150 
    139 H139        5.7141  -22.1205  -48.4570 H         1 UNK         0.0800 
    140 H140        5.2511  -21.0302  -47.1775 H         1 UNK         0.0800 
    141 H141        2.4814  -20.9285  -46.7667 H         1 UNK         0.0800 
    142 H142        2.9639  -21.8206  -45.3489 H         1 UNK         0.0800 
    143 H143        1.3458  -23.6721  -46.0495 H         1 UNK         0.0600 
    144 H144        0.6649  -21.2378  -44.7733 H         1 UNK         0.3000 
    145 H145       -2.6548  -22.2321  -43.8126 H         1 UNK         0.0600 
    146 H146       -1.7016  -21.7266  -41.5919 H         1 UNK         0.0600 
    147 H147       -0.0627  -21.8014  -42.2357 H         1 UNK         0.0600 
    148 H148       -1.0564  -23.2536  -42.1740 H         1 UNK         0.0600 
    149 H149       -1.2290  -19.8614  -43.2522 H         1 UNK         0.3000 
    150 H150       -2.2750  -17.9782  -46.1409 H         1 UNK         0.0600 
    151 H151       -4.0174  -17.7420  -44.4549 H         1 UNK         0.0600 
    152 H152       -2.7993  -16.5265  -44.0932 H         1 UNK         0.0600 
    153 H153       -2.8882  -17.9963  -43.1362 H         1 UNK         0.0600 
    154 H154       -0.4916  -17.2827  -44.0568 H         1 UNK         0.3000 
    155 H155        2.5486  -18.4028  -45.5525 H         1 UNK         0.0600 
    156 H156        2.0118  -16.2083  -46.6004 H         1 UNK         0.0600 
    157 H157        3.0587  -15.9978  -45.2070 H         1 UNK         0.0600 
    158 H158        1.3398  -15.6254  -45.0862 H         1 UNK         0.0600 
    159 H159        1.8515  -17.0246  -43.1128 H         1 UNK         0.3000 
    160 H160        1.6809  -19.9756  -41.0756 H         1 UNK         0.0600 
    161 H161        3.6897  -17.6632  -41.2432 H         1 UNK         0.0600 
    162 H162        4.1000  -19.3735  -41.3025 H         1 UNK         0.0600 
    163 H163        3.4021  -18.6938  -39.8410 H         1 UNK         0.0600 
    164 H164        1.3815  -17.2179  -40.4356 H         1 UNK         0.3000 
    165 H165       -2.0259  -16.8106  -41.2011 H         1 UNK         0.0600 
    166 H166       -2.4021  -16.5182  -38.7716 H         1 UNK         0.0600 
    167 H167       -2.2736  -18.2268  -39.1546 H         1 UNK         0.0600 
    168 H168       -0.9160  -17.3959  -38.4045 H         1 UNK         0.0600 
    169 H169       -0.4031  -15.2379  -39.5449 H         1 UNK         0.3000 
    170 H170       -0.1050  -13.0417  -40.6666 H         1 UNK         0.0600 
    171 H171        2.6174  -14.4543  -40.5901 H         1 UNK         0.0600 
    172 H172        2.3344  -12.8132  -40.0134 H         1 UNK         0.0600 
    173 H173        1.5376  -14.1666  -39.2366 H         1 UNK         0.0600 
    174 H174        0.4494  -12.0329  -42.5320 H         1 UNK         0.3000 
    175 H175        2.4490  -11.1265  -43.9946 H         1 UNK         0.0600 
    176 H176        2.8520  -13.4651  -45.9257 H         1 UNK         0.0600 
    177 H177        3.1516  -11.7703  -46.3040 H         1 UNK         0.0600 
    178 H178        4.1110  -12.5805  -45.0760 H         1 UNK         0.0600 
    179 H179        0.5762  -12.4623  -45.8271 H         1 UNK         0.3000 
    180 H180       -2.2742  -10.7207  -44.6785 H         1 UNK         0.0600 
    181 H181       -2.4057   -9.6793  -46.9302 H         1 UNK         0.0600 
    182 H182       -0.6791   -9.9417  -47.1803 H         1 UNK         0.0600 
    183 H183       -1.2344   -8.8281  -45.9361 H         1 UNK         0.0600 
    184 H184       -1.6734  -12.1805  -47.0919 H         1 UNK         0.3000 
    185 H185       -1.6683  -15.3835  -45.8485 H         1 UNK         0.0600 
    186 H186       -4.2203  -14.2541  -47.1278 H         1 UNK         0.0600 
    187 H187       -3.7322  -15.9462  -47.1172 H         1 UNK         0.0600 
    188 H188       -4.1634  -15.1458  -45.6133 H         1 UNK         0.0600 
    189 H189       -2.1641  -14.7155  -48.4881 H         1 UNK         0.3000 
    190 H190       -0.0741  -20.6411  -47.3952 H         1 UNK         0.3000 
    191 H191       -0.3707  -21.5466  -50.0570 H         1 UNK         0.0600 
    192 H192       -1.9140  -19.4551  -48.4426 H         1 UNK         0.0600 
    193 H193       -2.0739  -19.6775  -50.1835 H         1 UNK         0.0600 
    194 H194       -0.5332  -19.1829  -49.4982 H         1 UNK         0.0600 
    195 H195       -2.6751  -21.7254  -47.2881 H         1 UNK         0.3000 
    196 H196       -4.7693  -23.0339  -48.6483 H         1 UNK         0.0600 
    197 H197       -5.0712  -21.9478  -46.4548 H         1 UNK         0.0600 
    198 H198       -4.0087  -23.1264  -45.6885 H         1 UNK         0.0600 
    199 H199       -5.5561  -23.6321  -46.3558 H         1 UNK         0.0600 
    200 H200       -1.9231  -24.4531  -46.9865 H         1 UNK         0.3000 
    201 H201       -2.7296  -27.1796  -47.3579 H         1 UNK         0.0600 
    202 H202       -1.0685  -26.5151  -45.6540 H         1 UNK         0.0600 
    203 H203        0.0410  -25.9528  -46.9015 H         1 UNK         0.0600 
    204 H204       -0.3489  -27.6641  -46.7721 H         1 UNK         0.0600 
    205 H205       -0.6407  -24.9766  -49.2734 H         1 UNK         0.3000 
    206 H206        0.1521  -26.9814  -51.1636 H         1 UNK         0.0600 
    207 H207        1.1829  -25.0023  -52.3317 H         1 UNK         0.0600 
    208 H208        0.3782  -23.9358  -51.1843 H         1 UNK         0.0600 
    209 H209        1.5957  -25.0758  -50.6237 H         1 UNK         0.0600 
    210 H210       -2.2311  -24.2734  -51.3679 H         1 UNK         0.3000 
    211 H211       -2.9624  -25.1343  -54.1342 H         1 UNK         0.0600 
    212 H212       -1.9077  -22.8883  -53.8019 H         1 UNK         0.0600 
    213 H213       -3.2369  -22.4264  -52.7418 H         1 UNK         0.0600 
    214 H214       -3.5404  -22.7673  -54.4401 H         1 UNK         0.0600 
    215 H215       -4.1545  -25.6581  -51.1419 H         1 UNK         0.3000 
    216 H216       -6.0522  -26.4153  -50.3223 H         1 UNK         0.0600 
    217 H217       -7.9186  -27.1346  -51.6949 H         1 UNK         0.0600 
    218 H218       -6.4269  -27.5440  -52.5244 H         1 UNK         0.0600 
    219 H219       -7.3882  -26.1626  -53.0548 H         1 UNK         0.0600 
    220 H220       -5.6937  -23.2629  -51.2471 H         1 UNK         0.3000 
    221 H221       -7.6640  -22.3397  -49.3605 H         1 UNK         0.0600 
    222 H222       -7.8831  -21.4904  -52.3143 H         1 UNK         0.0600 
    223 H223       -9.1002  -22.3985  -51.4200 H         1 UNK         0.0600 
    224 H224       -8.7466  -20.7364  -50.9780 H         1 UNK         0.0600 
    225 H225       -7.0094  -20.3243  -48.5419 H         1 UNK         0.3000 
    226 H226       -4.2278  -19.6998  -48.8784 H         1 UNK         0.0600 
    227 H227       -5.4196  -19.6169  -46.6839 H         1 UNK         0.0600 
    228 H228       -4.6699  -18.0817  -47.0608 H         1 UNK         0.0600 
    229 H229       -6.4070  -18.2748  -47.2624 H         1 UNK         0.0600 
    230 H230       -6.9472  -18.6353  -50.5942 H         1 UNK         0.3000 
    231 H231       -6.3327  -15.8711  -51.0081 H         1 UNK         0.0600 
    232 H232       -8.2028  -16.0342  -52.6561 H         1 UNK         0.0600 
    233 H233       -8.6326  -16.8052  -51.1394 H         1 UNK         0.0600 
    234 H234       -8.1781  -17.7890  -52.5319 H         1 UNK         0.0600 
    235 H235       -4.7627  -18.6135  -52.3527 H         1 UNK         0.3000 
    236 H236       -3.3459  -16.9906  -54.2775 H         1 UNK         0.0600 
    237 H237       -5.0460  -19.3741  -55.2393 H         1 UNK         0.0600 
    238 H238       -5.3195  -17.6883  -55.6756 H         1 UNK         0.0600 
    239 H239       -3.8685  -18.5098  -56.2207 H         1 UNK         0.0600 
    240 H240       -1.5674  -18.3047  -55.2518 H         1 UNK         0.3000 
    241 H241       -1.0032  -20.8956  -54.4907 H         1 UNK         0.0600 
    242 H242        1.2942  -18.5418  -56.9396 H         1 UNK         0.3800 
    243 H243        0.3718  -17.7522  -55.6973 H         1 UNK         0.3800 
    244 H244        0.9982  -19.0881  -53.0738 H         1 UNK         0.0800 
    245 H245       -0.3947  -19.6649  -52.2225 H         1 UNK         0.0800 
    246 H246        3.0650  -20.3813  -53.4070 H         1 UNK         0.0800 
    247 H247        3.3915  -21.9818  -52.8000 H         1 UNK         0.0800 
@<TRIPOS>BOND
     1    1    2 1    
     2    1  127 1    
     3    1  128 1    
     4    1  129 1    
     5    2    3 2    
     6    2    4 am   BACKBONE|DICT|INTERRES
     7    4    5 1    
     8    4  130 1    
     9    5    6 1    
    10    5   65 1    
    11    5  131 1    
    12    6    7 1    
    13    6  132 1    
    14    6  133 1    
    15    7    8 1    
    16    8    9 1    
    17    8  134 1    
    18    8  135 1    
    19    9   10 ar   
    20    9   14 ar   
    21   10   11 ar   
    22   10  136 1    
    23   11   12 ar   
    24   11  126 1    
    25   12   13 ar   
    26   12  137 1    
    27   13   14 ar   
    28   13   15 1    
    29   14  138 1    
    30   15   16 1    
    31   15  139 1    
    32   15  140 1    
    33   16   17 1    
    34   17   18 1    
    35   17  141 1    
    36   17  142 1    
    37   18   19 1    
    38   18   67 1    
    39   18  143 1    
    40   19   20 am   BACKBONE|DICT|INTERRES
    41   19  144 1    
    42   20   21 2    
    43   20   22 1    
    44   22   23 1    
    45   22   24 1    
    46   22  145 1    
    47   23  146 1    
    48   23  147 1    
    49   23  148 1    
    50   24   25 am   BACKBONE|DICT|INTERRES
    51   24  149 1    
    52   25   26 2    
    53   25   27 1    
    54   27   28 1    
    55   27   29 1    
    56   27  150 1    
    57   28  151 1    
    58   28  152 1    
    59   28  153 1    
    60   29   30 am   BACKBONE|DICT|INTERRES
    61   29  154 1    
    62   30   31 2    
    63   30   32 1    
    64   32   33 1    
    65   32   34 1    
    66   32  155 1    
    67   33  156 1    
    68   33  157 1    
    69   33  158 1    
    70   34   35 am   BACKBONE|DICT|INTERRES
    71   34  159 1    
    72   35   36 2    
    73   35   37 1    
    74   37   38 1    
    75   37   39 1    
    76   37  160 1    
    77   38  161 1    
    78   38  162 1    
    79   38  163 1    
    80   39   40 am   BACKBONE|DICT|INTERRES
    81   39  164 1    
    82   40   41 2    
    83   40   42 1    
    84   42   43 1    
    85   42   44 1    
    86   42  165 1    
    87   43  166 1    
    88   43  167 1    
    89   43  168 1    
    90   44   45 am   BACKBONE|DICT|INTERRES
    91   44  169 1    
    92   45   46 2    
    93   45   47 1    
    94   47   48 1    
    95   47   49 1    
    96   47  170 1    
    97   48  171 1    
    98   48  172 1    
    99   48  173 1    
   100   49   50 am   BACKBONE|DICT|INTERRES
   101   49  174 1    
   102   50   51 2    
   103   50   52 1    
   104   52   53 1    
   105   52   54 1    
   106   52  175 1    
   107   53  176 1    
   108   53  177 1    
   109   53  178 1    
   110   54   55 am   BACKBONE|DICT|INTERRES
   111   54  179 1    
   112   55   56 2    
   113   55   57 1    
   114   57   58 1    
   115   57   59 1    
   116   57  180 1    
   117   58  181 1    
   118   58  182 1    
   119   58  183 1    
   120   59   60 am   BACKBONE|DICT|INTERRES
   121   59  184 1    
   122   60   61 2    
   123   60   62 1    
   124   62   63 1    
   125   62   64 1    
   126   62  185 1    
   127   63  186 1    
   128   63  187 1    
   129   63  188 1    
   130   64   65 am   BACKBONE|DICT|INTERRES
   131   64  189 1    
   132   65   66 2    
   133   67   68 2    
   134   67   69 am   BACKBONE|DICT|INTERRES
   135   69   70 1    
   136   69  190 1    
   137   70   71 1    
   138   70   72 1    
   139   70  191 1    
   140   71  192 1    
   141   71  193 1    
   142   71  194 1    
   143   72   73 2    
   144   72   74 am   BACKBONE|DICT|INTERRES
   145   74   75 1    
   146   74  195 1    
   147   75   76 1    
   148   75   77 1    
   149   75  196 1    
   150   76  197 1    
   151   76  198 1    
   152   76  199 1    
   153   77   78 2    
   154   77   79 am   BACKBONE|DICT|INTERRES
   155   79   80 1    
   156   79  200 1    
   157   80   81 1    
   158   80   82 1    
   159   80  201 1    
   160   81  202 1    
   161   81  203 1    
   162   81  204 1    
   163   82   83 2    
   164   82   84 am   BACKBONE|DICT|INTERRES
   165   84   85 1    
   166   84  205 1    
   167   85   86 1    
   168   85   87 1    
   169   85  206 1    
   170   86  207 1    
   171   86  208 1    
   172   86  209 1    
   173   87   88 2    
   174   87   89 am   BACKBONE|DICT|INTERRES
   175   89   90 1    
   176   89  210 1    
   177   90   91 1    
   178   90   92 1    
   179   90  211 1    
   180   91  212 1    
   181   91  213 1    
   182   91  214 1    
   183   92   93 2    
   184   92   94 am   BACKBONE|DICT|INTERRES
   185   94   95 1    
   186   94  215 1    
   187   95   96 1    
   188   95   97 1    
   189   95  216 1    
   190   96  217 1    
   191   96  218 1    
   192   96  219 1    
   193   97   98 2    
   194   97   99 am   BACKBONE|DICT|INTERRES
   195   99  100 1    
   196   99  220 1    
   197  100  101 1    
   198  100  102 1    
   199  100  221 1    
   200  101  222 1    
   201  101  223 1    
   202  101  224 1    
   203  102  103 2    
   204  102  104 am   BACKBONE|DICT|INTERRES
   205  104  105 1    
   206  104  225 1    
   207  105  106 1    
   208  105  107 1    
   209  105  226 1    
   210  106  227 1    
   211  106  228 1    
   212  106  229 1    
   213  107  108 2    
   214  107  109 am   BACKBONE|DICT|INTERRES
   215  109  110 1    
   216  109  230 1    
   217  110  111 1    
   218  110  112 1    
   219  110  231 1    
   220  111  232 1    
   221  111  233 1    
   222  111  234 1    
   223  112  113 2    
   224  112  114 am   BACKBONE|DICT|INTERRES
   225  114  115 1    
   226  114  235 1    
   227  115  116 1    
   228  115  117 1    
   229  115  236 1    
   230  116  237 1    
   231  116  238 1    
   232  116  239 1    
   233  117  118 2    
   234  117  119 am   BACKBONE|DICT|INTERRES
   235  119  120 1    
   236  119  240 1    
   237  120  121 1    
   238  120  124 1    
   239  120  241 1    
   240  121  122 am   BACKBONE|DICT|INTERRES
   241  121  123 2    
   242  122  242 1    
   243  122  243 1    
   244  124  125 1    
   245  124  244 1    
   246  124  245 1    
   247  125  126 1    
   248  126  246 1    
   249  126  247 1    
@<TRIPOS>SUBSTRUCTURE
     1 UNK         1 GROUP             0       ****    0 ROOT    
