@<TRIPOS>MOLECULE
3R540
247   249    1
SMALL
USER_CHARGES


@<TRIPOS>ATOM
      1 CA          5.1417  -10.4286  -48.6343 C.3       0 UNK        -0.1800 
      2 C           4.3772  -11.6215  -48.0810 C.2       0 UNK         0.5000 
      3 O           3.7359  -11.5078  -47.0365 O.2       0 UNK        -0.5000 
      4 N           4.4195  -12.7612  -48.7832 N.am      1 UNK        -0.5000 
      5 CA          3.7473  -14.0087  -48.3954 C.3       1 UNK         0.1400 
      6 C6          4.2266  -15.2206  -49.2335 C.3       23 UNK        -0.0398 
      7 S7          3.9667  -15.0429  -51.0369 S.3       23 UNK        -0.2404 
      8 C8          3.8993  -16.7807  -51.5892 C.3       23 UNK        -0.0205 
      9 C9          2.6868  -17.5140  -51.0343 C.ar      23 UNK        -0.0193 
     10 C10         1.4061  -17.2055  -51.4992 C.ar      23 UNK        -0.1150 
     11 C11         0.2796  -17.8196  -50.9437 C.ar      23 UNK        -0.0193 
     12 C12         0.4470  -18.7756  -49.9378 C.ar      23 UNK        -0.1150 
     13 C13         1.7263  -19.1111  -49.4781 C.ar      23 UNK        -0.0193 
     14 C14         2.8411  -18.4798  -50.0358 C.ar      23 UNK        -0.1150 
     15 C15         1.9147  -20.1025  -48.3368 C.3       23 UNK        -0.0205 
     16 S16         2.1260  -21.8113  -48.9172 S.3       23 UNK        -0.2404 
     17 C17         0.3903  -22.3063  -49.1656 C.3       23 UNK        -0.0398 
     18 CA         -0.1280  -23.2807  -48.0839 C.3       11 UNK         0.1400 
     19 N          -0.0594  -22.7323  -46.7239 N.am      11 UNK        -0.5000 
     20 C          -0.2112  -23.4667  -45.6120 C.2       10 UNK         0.5000 
     21 O          -0.3912  -24.6842  -45.6183 O.2       10 UNK        -0.5000 
     22 CA         -0.2297  -22.7063  -44.2747 C.3       10 UNK         0.1400 
     23 CB          1.1978  -22.4326  -43.7789 C.3       10 UNK        -0.1800 
     24 N          -0.9869  -21.4547  -44.3635 N.am      10 UNK        -0.5000 
     25 C          -2.3187  -21.4088  -44.5217 C.2       9 UNK         0.5000 
     26 O          -3.0192  -22.4174  -44.5938 O.2       9 UNK        -0.5000 
     27 CA         -2.9982  -20.0317  -44.6511 C.3       9 UNK         0.1400 
     28 CB         -3.6093  -19.6052  -43.3088 C.3       9 UNK        -0.1800 
     29 N          -2.1251  -18.9660  -45.1340 N.am      9 UNK        -0.5000 
     30 C          -1.5264  -18.9325  -46.3314 C.2       8 UNK         0.5000 
     31 O          -1.6615  -19.8021  -47.1942 O.2       8 UNK        -0.5000 
     32 CA         -0.5722  -17.7456  -46.5658 C.3       8 UNK         0.1400 
     33 CB         -1.3649  -16.5086  -47.0121 C.3       8 UNK        -0.1800 
     34 N           0.2443  -17.4342  -45.3874 N.am      8 UNK        -0.5000 
     35 C           1.0637  -18.3017  -44.7702 C.2       7 UNK         0.5000 
     36 O           1.2364  -19.4606  -45.1429 O.2       7 UNK        -0.5000 
     37 CA          1.7596  -17.8221  -43.4877 C.3       7 UNK         0.1400 
     38 CB          3.0426  -17.0416  -43.8143 C.3       7 UNK        -0.1800 
     39 N           0.8553  -17.0008  -42.6849 N.am      7 UNK        -0.5000 
     40 C          -0.0947  -17.4971  -41.8789 C.2       6 UNK         0.5000 
     41 O          -0.2342  -18.6988  -41.6501 O.2       6 UNK        -0.5000 
     42 CA         -1.0687  -16.4897  -41.2348 C.3       6 UNK         0.1400 
     43 CB         -0.5398  -16.0290  -39.8684 C.3       6 UNK        -0.1800 
     44 N          -1.3211  -15.3150  -42.0713 N.am      6 UNK        -0.5000 
     45 C          -1.9780  -15.3390  -43.2393 C.2       5 UNK         0.5000 
     46 O          -2.4960  -16.3527  -43.7084 O.2       5 UNK        -0.5000 
     47 CA         -2.0130  -14.0224  -44.0444 C.3       5 UNK         0.1400 
     48 CB         -3.2643  -13.2066  -43.6914 C.3       5 UNK        -0.1800 
     49 N          -0.8229  -13.1762  -43.8880 N.am      5 UNK        -0.5000 
     50 C           0.4377  -13.5606  -44.1295 C.2       4 UNK         0.5000 
     51 O           0.7370  -14.7103  -44.4483 O.2       4 UNK        -0.5000 
     52 CA          1.5329  -12.4839  -43.9981 C.3       4 UNK         0.1400 
     53 CB          2.9470  -13.0899  -43.9543 C.3       4 UNK        -0.1800 
     54 N           1.4637  -11.5503  -45.1167 N.am      4 UNK        -0.5000 
     55 C           0.5642  -10.5689  -45.2572 C.2       3 UNK         0.5000 
     56 O          -0.2502  -10.2564  -44.3870 O.2       3 UNK        -0.5000 
     57 CA          0.5405   -9.8610  -46.6226 C.3       3 UNK         0.1400 
     58 CB          1.6024   -8.7528  -46.6939 C.3       3 UNK        -0.1800 
     59 N           0.7407  -10.8137  -47.7173 N.am      3 UNK        -0.5000 
     60 C          -0.1904  -11.6886  -48.1259 C.2       2 UNK         0.5000 
     61 O          -1.3321  -11.7230  -47.6651 O.2       2 UNK        -0.5000 
     62 CA          0.2142  -12.6893  -49.2259 C.3       2 UNK         0.1400 
     63 CB         -0.1474  -12.1389  -50.6133 C.3       2 UNK        -0.1800 
     64 N           1.6417  -13.0093  -49.2006 N.am      2 UNK        -0.5000 
     65 C           2.2063  -13.8899  -48.3615 C.2       1 UNK         0.5000 
     66 O           1.5727  -14.5656  -47.5549 O.2       1 UNK        -0.5000 
     67 C          -1.5606  -23.7292  -48.4292 C.2       11 UNK         0.5000 
     68 O          -1.7277  -24.7339  -49.1193 O.2       11 UNK        -0.5000 
     69 N          -2.5637  -22.9942  -47.9270 N.am      12 UNK        -0.5000 
     70 CA         -3.9812  -23.3264  -48.0630 C.3       12 UNK         0.1400 
     71 CB         -4.8325  -22.1424  -47.5848 C.3       12 UNK        -0.1800 
     72 C          -4.3456  -24.6159  -47.3061 C.2       12 UNK         0.5000 
     73 O          -4.9968  -25.4890  -47.8780 O.2       12 UNK        -0.5000 
     74 N          -3.8728  -24.7363  -46.0567 N.am      13 UNK        -0.5000 
     75 CA         -4.0371  -25.9177  -45.2057 C.3       13 UNK         0.1400 
     76 CB         -3.5285  -25.6028  -43.7908 C.3       13 UNK        -0.1800 
     77 C          -3.3361  -27.1682  -45.7691 C.2       13 UNK         0.5000 
     78 O          -3.8888  -28.2653  -45.6847 O.2       13 UNK        -0.5000 
     79 N          -2.1513  -26.9751  -46.3646 N.am      14 UNK        -0.5000 
     80 CA         -1.3934  -28.0101  -47.0713 C.3       14 UNK         0.1400 
     81 CB          0.0551  -27.5267  -47.2456 C.3       14 UNK        -0.1800 
     82 C          -1.9929  -28.3877  -48.4423 C.2       14 UNK         0.5000 
     83 O          -1.6036  -29.4145  -49.0001 O.2       14 UNK        -0.5000 
     84 N          -2.8970  -27.5457  -48.9678 N.am      15 UNK        -0.5000 
     85 CA         -3.5003  -27.5923  -50.3040 C.3       15 UNK         0.1400 
     86 CB         -4.4111  -28.8274  -50.4580 C.3       15 UNK        -0.1800 
     87 C          -2.4480  -27.4671  -51.4267 C.2       15 UNK         0.5000 
     88 O          -2.5765  -28.0921  -52.4807 O.2       15 UNK        -0.5000 
     89 N          -1.4203  -26.6438  -51.1841 N.am      16 UNK        -0.5000 
     90 CA         -0.2415  -26.4545  -52.0302 C.3       16 UNK         0.1400 
     91 CB          0.9417  -26.0551  -51.1296 C.3       16 UNK        -0.1800 
     92 C          -0.4875  -25.4500  -53.1765 C.2       16 UNK         0.5000 
     93 O           0.3578  -24.5932  -53.4385 O.2       16 UNK        -0.5000 
     94 N          -1.6525  -25.5695  -53.8304 N.am      17 UNK        -0.5000 
     95 CA         -2.1263  -24.7850  -54.9790 C.3       17 UNK         0.1400 
     96 CB         -1.2708  -25.0894  -56.2266 C.3       17 UNK        -0.1800 
     97 C          -2.2637  -23.2686  -54.7092 C.2       17 UNK         0.5000 
     98 O          -2.1998  -22.4738  -55.6486 O.2       17 UNK        -0.5000 
     99 N          -2.4584  -22.8949  -53.4360 N.am      18 UNK        -0.5000 
    100 CA        -2.6500  -21.5172  -52.9771 C.3       18 UNK         0.1400 
    101 CB        -2.6190  -21.4554  -51.4421 C.3       18 UNK        -0.1800 
    102 C         -3.8873  -20.8105  -53.5814 C.2       18 UNK         0.5000 
    103 O         -3.7247  -19.7154  -54.1160 O.2       18 UNK        -0.5000 
    104 N         -5.0985  -21.3938  -53.5833 N.am      19 UNK        -0.5000 
    105 CA        -5.5810  -22.5382  -52.7981 C.3       19 UNK         0.1400 
    106 CB        -6.5649  -23.3410  -53.6624 C.3       19 UNK        -0.1800 
    107 C         -6.2542  -22.0921  -51.4834 C.2       19 UNK         0.5000 
    108 O         -6.5235  -22.9352  -50.6288 O.2       19 UNK        -0.5000 
    109 N         -6.4927  -20.7840  -51.3405 N.am      20 UNK        -0.5000 
    110 CA        -6.9781  -20.1223  -50.1333 C.3       20 UNK         0.1400 
    111 CB        -8.2033  -19.2705  -50.5050 C.3       20 UNK        -0.1800 
    112 C         -5.8581  -19.2378  -49.5606 C.2       20 UNK         0.5000 
    113 O         -4.8382  -19.0277  -50.2231 O.2       20 UNK        -0.5000 
    114 N         -6.0657  -18.7287  -48.3391 N.am      21 UNK        -0.5000 
    115 CA        -5.1692  -17.7888  -47.6653 C.3       21 UNK         0.1400 
    116 CB        -5.5832  -17.6631  -46.1889 C.3       21 UNK        -0.1800 
    117 C         -5.1788  -16.4266  -48.3867 C.2       21 UNK         0.5000 
    118 O         -6.0522  -15.5969  -48.1289 O.2       21 UNK        -0.5000 
    119 N         -4.2400  -16.2598  -49.3230 N.am      22 UNK        -0.5000 
    120 CA        -4.1246  -15.1090  -50.2310 C.3       22 UNK         0.1400 
    121 C         -3.7482  -13.7495  -49.5682 C.2       22 UNK         0.5000 
    122 N         -3.2863  -13.7266  -48.3250 N.am      22 UNK        -0.7600 
    123 O         -3.8687  -12.7045  -50.2015 O.2       22 UNK        -0.5000 
    124 C124       -3.1888  -15.4432  -51.4240 C.3       23 UNK        -0.0398 
    125 S125       -1.4450  -15.6844  -50.9301 S.3       23 UNK        -0.2404 
    126 C126       -1.1144  -17.4101  -51.3986 C.3       23 UNK        -0.0205 
    127 H127        4.4605   -9.5961  -48.8102 H         1 UNK         0.0600 
    128 H128        5.6398  -10.6667  -49.5744 H         1 UNK         0.0600 
    129 H129        5.8984  -10.1057  -47.9194 H         1 UNK         0.0600 
    130 H130        4.9464  -12.8002  -49.6447 H         1 UNK         0.3000 
    131 H131        4.0479  -14.2080  -47.3642 H         1 UNK         0.0600 
    132 H132        5.2924  -15.3798  -49.0652 H         1 UNK         0.0800 
    133 H133        3.7373  -16.1261  -48.8741 H         1 UNK         0.0800 
    134 H134        4.8240  -17.2850  -51.3042 H         1 UNK         0.0800 
    135 H135        3.8621  -16.8034  -52.6792 H         1 UNK         0.0800 
    136 H136        1.2819  -16.4507  -52.2632 H         1 UNK         0.1150 
    137 H137       -0.4247  -19.2316  -49.4928 H         1 UNK         0.1150 
    138 H138        3.8293  -18.7214  -49.6703 H         1 UNK         0.1150 
    139 H139        2.7864  -19.8220  -47.7435 H         1 UNK         0.0800 
    140 H140        1.0672  -20.0639  -47.6559 H         1 UNK         0.0800 
    141 H141        0.3318  -22.7679  -50.1528 H         1 UNK         0.0800 
    142 H142       -0.2453  -21.4234  -49.2071 H         1 UNK         0.0800 
    143 H143        0.5029  -24.1717  -48.1121 H         1 UNK         0.0600 
    144 H144        0.0613  -21.7332  -46.6358 H         1 UNK         0.3000 
    145 H145       -0.7218  -23.3422  -43.5356 H         1 UNK         0.0600 
    146 H146        1.1943  -21.8403  -42.8636 H         1 UNK         0.0600 
    147 H147        1.7148  -23.3677  -43.5609 H         1 UNK         0.0600 
    148 H148        1.7929  -21.9022  -44.5221 H         1 UNK         0.0600 
    149 H149       -0.4530  -20.5944  -44.3605 H         1 UNK         0.3000 
    150 H150       -3.8062  -20.1428  -45.3750 H         1 UNK         0.0600 
    151 H151       -4.2957  -20.3641  -42.9310 H         1 UNK         0.0600 
    152 H152       -4.1737  -18.6778  -43.4086 H         1 UNK         0.0600 
    153 H153       -2.8408  -19.4485  -42.5510 H         1 UNK         0.0600 
    154 H154       -1.9938  -18.1747  -44.5119 H         1 UNK         0.3000 
    155 H155        0.1202  -18.0005  -47.3641 H         1 UNK         0.0600 
    156 H156       -1.7644  -16.6603  -48.0141 H         1 UNK         0.0600 
    157 H157       -0.7386  -15.6183  -47.0470 H         1 UNK         0.0600 
    158 H158       -2.2063  -16.3025  -46.3517 H         1 UNK         0.0600 
    159 H159        0.2220  -16.4757  -45.0510 H         1 UNK         0.3000 
    160 H160        2.0453  -18.7030  -42.9085 H         1 UNK         0.0600 
    161 H161        2.8521  -16.1936  -44.4717 H         1 UNK         0.0600 
    162 H162        3.7649  -17.6840  -44.3192 H         1 UNK         0.0600 
    163 H163        3.5184  -16.6652  -42.9088 H         1 UNK         0.0600 
    164 H164        0.8508  -16.0108  -42.8993 H         1 UNK         0.3000 
    165 H165       -2.0193  -17.0043  -41.0784 H         1 UNK         0.0600 
    166 H166       -1.2551  -15.3759  -39.3681 H         1 UNK         0.0600 
    167 H167       -0.3643  -16.8812  -39.2104 H         1 UNK         0.0600 
    168 H168        0.4023  -15.4874  -39.9626 H         1 UNK         0.0600 
    169 H169       -0.9254  -14.4395  -41.7620 H         1 UNK         0.3000 
    170 H170       -2.0744  -14.2889  -45.1004 H         1 UNK         0.0600 
    171 H171       -3.3555  -12.3290  -44.3319 H         1 UNK         0.0600 
    172 H172       -4.1693  -13.8008  -43.8260 H         1 UNK         0.0600 
    173 H173       -3.2439  -12.8669  -42.6552 H         1 UNK         0.0600 
    174 H174       -0.9841  -12.1966  -43.6861 H         1 UNK         0.3000 
    175 H175        1.3672  -11.9433  -43.0641 H         1 UNK         0.0600 
    176 H176        3.1858  -13.6207  -44.8771 H         1 UNK         0.0600 
    177 H177        3.7021  -12.3166  -43.8118 H         1 UNK         0.0600 
    178 H178        3.0452  -13.7980  -43.1306 H         1 UNK         0.0600 
    179 H179        2.1167  -11.7139  -45.8768 H         1 UNK         0.3000 
    180 H180       -0.4401   -9.3952  -46.7424 H         1 UNK         0.0600 
    181 H181        2.6111   -9.1438  -46.5608 H         1 UNK         0.0600 
    182 H182        1.4367   -8.0076  -45.9149 H         1 UNK         0.0600 
    183 H183        1.5674   -8.2341  -47.6520 H         1 UNK         0.0600 
    184 H184        1.6722  -10.8779  -48.1002 H         1 UNK         0.3000 
    185 H185       -0.3563  -13.6057  -49.0625 H         1 UNK         0.0600 
    186 H186        0.0736  -12.8668  -51.3943 H         1 UNK         0.0600 
    187 H187       -1.2122  -11.9117  -50.6761 H         1 UNK         0.0600 
    188 H188        0.3988  -11.2228  -50.8407 H         1 UNK         0.0600 
    189 H189        2.2373  -12.5113  -49.8456 H         1 UNK         0.3000 
    190 H190       -2.3367  -22.1716  -47.3850 H         1 UNK         0.3000 
    191 H191       -4.1857  -23.4873  -49.1233 H         1 UNK         0.0600 
    192 H192       -4.4847  -21.2095  -48.0257 H         1 UNK         0.0600 
    193 H193       -5.8756  -22.2789  -47.8706 H         1 UNK         0.0600 
    194 H194       -4.8071  -22.0283  -46.5020 H         1 UNK         0.0600 
    195 H195       -3.3905  -23.9454  -45.6370 H         1 UNK         0.3000 
    196 H196       -5.1049  -26.1366  -45.1431 H         1 UNK         0.0600 
    197 H197       -3.6525  -26.4613  -43.1297 H         1 UNK         0.0600 
    198 H198       -4.0790  -24.7711  -43.3508 H         1 UNK         0.0600 
    199 H199       -2.4705  -25.3385  -43.7934 H         1 UNK         0.0600 
    200 H200       -1.7270  -26.0541  -46.3200 H         1 UNK         0.3000 
    201 H201       -1.3820  -28.9125  -46.4568 H         1 UNK         0.0600 
    202 H202        0.5178  -27.3098  -46.2826 H         1 UNK         0.0600 
    203 H203        0.1047  -26.6224  -47.8526 H         1 UNK         0.0600 
    204 H204        0.6669  -28.2849  -47.7361 H         1 UNK         0.0600 
    205 H205       -3.1401  -26.7292  -48.4222 H         1 UNK         0.3000 
    206 H206       -4.1314  -26.7059  -50.3811 H         1 UNK         0.0600 
    207 H207       -5.1404  -28.8804  -49.6496 H         1 UNK         0.0600 
    208 H208       -4.9682  -28.7870  -51.3946 H         1 UNK         0.0600 
    209 H209       -3.8407  -29.7565  -50.4576 H         1 UNK         0.0600 
    210 H210       -1.4512  -26.0880  -50.3316 H         1 UNK         0.3000 
    211 H211        0.0094  -27.4089  -52.4977 H         1 UNK         0.0600 
    212 H212        1.8649  -25.9712  -51.7043 H         1 UNK         0.0600 
    213 H213        1.1129  -26.7998  -50.3521 H         1 UNK         0.0600 
    214 H214        0.7686  -25.0966  -50.6411 H         1 UNK         0.0600 
    215 H215       -2.2556  -26.3311  -53.5387 H         1 UNK         0.3000 
    216 H216       -3.1376  -25.1385  -55.1842 H         1 UNK         0.0600 
    217 H217       -1.7017  -24.6364  -57.1201 H         1 UNK         0.0600 
    218 H218       -0.2551  -24.7063  -56.1232 H         1 UNK         0.0600 
    219 H219       -1.2076  -26.1621  -56.4092 H         1 UNK         0.0600 
    220 H220       -2.4693  -23.6165  -52.7318 H         1 UNK         0.3000 
    221 H221       -1.7792  -20.9573  -53.3254 H         1 UNK         0.0600 
    222 H222       -3.3897  -22.0671  -50.9779 H         1 UNK         0.0600 
    223 H223       -1.6582  -21.8013  -51.0694 H         1 UNK         0.0600 
    224 H224       -2.7507  -20.4330  -51.0880 H         1 UNK         0.0600 
    225 H225       -5.8251  -20.9159  -54.0955 H         1 UNK         0.3000 
    226 H226       -4.7721  -23.2098  -52.5216 H         1 UNK         0.0600 
    227 H227       -6.0841  -23.7022  -54.5719 H         1 UNK         0.0600 
    228 H228       -6.9375  -24.2141  -53.1249 H         1 UNK         0.0600 
    229 H229       -7.4284  -22.7418  -53.9540 H         1 UNK         0.0600 
    230 H230       -6.1423  -20.1617  -52.0548 H         1 UNK         0.3000 
    231 H231       -7.2660  -20.8536  -49.3758 H         1 UNK         0.0600 
    232 H232       -7.9497  -18.4922  -51.2262 H         1 UNK         0.0600 
    233 H233       -8.6267  -18.7802  -49.6277 H         1 UNK         0.0600 
    234 H234       -8.9904  -19.8858  -50.9413 H         1 UNK         0.0600 
    235 H235       -6.9384  -18.9225  -47.8702 H         1 UNK         0.3000 
    236 H236       -4.1569  -18.1973  -47.6949 H         1 UNK         0.0600 
    237 H237       -5.5862  -18.6334  -45.6941 H         1 UNK         0.0600 
    238 H238       -4.8886  -17.0220  -45.6440 H         1 UNK         0.0600 
    239 H239       -6.5810  -17.2362  -46.0802 H         1 UNK         0.0600 
    240 H240       -3.6181  -17.0308  -49.5194 H         1 UNK         0.3000 
    241 H241       -5.1211  -14.9544  -50.6491 H         1 UNK         0.0600 
    242 H242       -3.1919  -14.5797  -47.8040 H         1 UNK         0.3800 
    243 H243       -2.9423  -12.8528  -47.9425 H         1 UNK         0.3800 
    244 H244       -3.2232  -14.6435  -52.1656 H         1 UNK         0.0800 
    245 H245       -3.5495  -16.3349  -51.9391 H         1 UNK         0.0800 
    246 H246       -1.1940  -17.5193  -52.4811 H         1 UNK         0.0800 
    247 H247       -1.8737  -18.0582  -50.9582 H         1 UNK         0.0800 
@<TRIPOS>BOND
     1    1    2 1    
     2    1  127 1    
     3    1  128 1    
     4    1  129 1    
     5    2    3 2    
     6    2    4 am   BACKBONE|DICT|INTERRES
     7    4    5 1    
     8    4  130 1    
     9    5    6 1    
    10    5   65 1    
    11    5  131 1    
    12    6    7 1    
    13    6  132 1    
    14    6  133 1    
    15    7    8 1    
    16    8    9 1    
    17    8  134 1    
    18    8  135 1    
    19    9   10 ar   
    20    9   14 ar   
    21   10   11 ar   
    22   10  136 1    
    23   11   12 ar   
    24   11  126 1    
    25   12   13 ar   
    26   12  137 1    
    27   13   14 ar   
    28   13   15 1    
    29   14  138 1    
    30   15   16 1    
    31   15  139 1    
    32   15  140 1    
    33   16   17 1    
    34   17   18 1    
    35   17  141 1    
    36   17  142 1    
    37   18   19 1    
    38   18   67 1    
    39   18  143 1    
    40   19   20 am   BACKBONE|DICT|INTERRES
    41   19  144 1    
    42   20   21 2    
    43   20   22 1    
    44   22   23 1    
    45   22   24 1    
    46   22  145 1    
    47   23  146 1    
    48   23  147 1    
    49   23  148 1    
    50   24   25 am   BACKBONE|DICT|INTERRES
    51   24  149 1    
    52   25   26 2    
    53   25   27 1    
    54   27   28 1    
    55   27   29 1    
    56   27  150 1    
    57   28  151 1    
    58   28  152 1    
    59   28  153 1    
    60   29   30 am   BACKBONE|DICT|INTERRES
    61   29  154 1    
    62   30   31 2    
    63   30   32 1    
    64   32   33 1    
    65   32   34 1    
    66   32  155 1    
    67   33  156 1    
    68   33  157 1    
    69   33  158 1    
    70   34   35 am   BACKBONE|DICT|INTERRES
    71   34  159 1    
    72   35   36 2    
    73   35   37 1    
    74   37   38 1    
    75   37   39 1    
    76   37  160 1    
    77   38  161 1    
    78   38  162 1    
    79   38  163 1    
    80   39   40 am   BACKBONE|DICT|INTERRES
    81   39  164 1    
    82   40   41 2    
    83   40   42 1    
    84   42   43 1    
    85   42   44 1    
    86   42  165 1    
    87   43  166 1    
    88   43  167 1    
    89   43  168 1    
    90   44   45 am   BACKBONE|DICT|INTERRES
    91   44  169 1    
    92   45   46 2    
    93   45   47 1    
    94   47   48 1    
    95   47   49 1    
    96   47  170 1    
    97   48  171 1    
    98   48  172 1    
    99   48  173 1    
   100   49   50 am   BACKBONE|DICT|INTERRES
   101   49  174 1    
   102   50   51 2    
   103   50   52 1    
   104   52   53 1    
   105   52   54 1    
   106   52  175 1    
   107   53  176 1    
   108   53  177 1    
   109   53  178 1    
   110   54   55 am   BACKBONE|DICT|INTERRES
   111   54  179 1    
   112   55   56 2    
   113   55   57 1    
   114   57   58 1    
   115   57   59 1    
   116   57  180 1    
   117   58  181 1    
   118   58  182 1    
   119   58  183 1    
   120   59   60 am   BACKBONE|DICT|INTERRES
   121   59  184 1    
   122   60   61 2    
   123   60   62 1    
   124   62   63 1    
   125   62   64 1    
   126   62  185 1    
   127   63  186 1    
   128   63  187 1    
   129   63  188 1    
   130   64   65 am   BACKBONE|DICT|INTERRES
   131   64  189 1    
   132   65   66 2    
   133   67   68 2    
   134   67   69 am   BACKBONE|DICT|INTERRES
   135   69   70 1    
   136   69  190 1    
   137   70   71 1    
   138   70   72 1    
   139   70  191 1    
   140   71  192 1    
   141   71  193 1    
   142   71  194 1    
   143   72   73 2    
   144   72   74 am   BACKBONE|DICT|INTERRES
   145   74   75 1    
   146   74  195 1    
   147   75   76 1    
   148   75   77 1    
   149   75  196 1    
   150   76  197 1    
   151   76  198 1    
   152   76  199 1    
   153   77   78 2    
   154   77   79 am   BACKBONE|DICT|INTERRES
   155   79   80 1    
   156   79  200 1    
   157   80   81 1    
   158   80   82 1    
   159   80  201 1    
   160   81  202 1    
   161   81  203 1    
   162   81  204 1    
   163   82   83 2    
   164   82   84 am   BACKBONE|DICT|INTERRES
   165   84   85 1    
   166   84  205 1    
   167   85   86 1    
   168   85   87 1    
   169   85  206 1    
   170   86  207 1    
   171   86  208 1    
   172   86  209 1    
   173   87   88 2    
   174   87   89 am   BACKBONE|DICT|INTERRES
   175   89   90 1    
   176   89  210 1    
   177   90   91 1    
   178   90   92 1    
   179   90  211 1    
   180   91  212 1    
   181   91  213 1    
   182   91  214 1    
   183   92   93 2    
   184   92   94 am   BACKBONE|DICT|INTERRES
   185   94   95 1    
   186   94  215 1    
   187   95   96 1    
   188   95   97 1    
   189   95  216 1    
   190   96  217 1    
   191   96  218 1    
   192   96  219 1    
   193   97   98 2    
   194   97   99 am   BACKBONE|DICT|INTERRES
   195   99  100 1    
   196   99  220 1    
   197  100  101 1    
   198  100  102 1    
   199  100  221 1    
   200  101  222 1    
   201  101  223 1    
   202  101  224 1    
   203  102  103 2    
   204  102  104 am   BACKBONE|DICT|INTERRES
   205  104  105 1    
   206  104  225 1    
   207  105  106 1    
   208  105  107 1    
   209  105  226 1    
   210  106  227 1    
   211  106  228 1    
   212  106  229 1    
   213  107  108 2    
   214  107  109 am   BACKBONE|DICT|INTERRES
   215  109  110 1    
   216  109  230 1    
   217  110  111 1    
   218  110  112 1    
   219  110  231 1    
   220  111  232 1    
   221  111  233 1    
   222  111  234 1    
   223  112  113 2    
   224  112  114 am   BACKBONE|DICT|INTERRES
   225  114  115 1    
   226  114  235 1    
   227  115  116 1    
   228  115  117 1    
   229  115  236 1    
   230  116  237 1    
   231  116  238 1    
   232  116  239 1    
   233  117  118 2    
   234  117  119 am   BACKBONE|DICT|INTERRES
   235  119  120 1    
   236  119  240 1    
   237  120  121 1    
   238  120  124 1    
   239  120  241 1    
   240  121  122 am   BACKBONE|DICT|INTERRES
   241  121  123 2    
   242  122  242 1    
   243  122  243 1    
   244  124  125 1    
   245  124  244 1    
   246  124  245 1    
   247  125  126 1    
   248  126  246 1    
   249  126  247 1    
@<TRIPOS>SUBSTRUCTURE
     1 UNK         1 GROUP             0       ****    0 ROOT    
