@<TRIPOS>MOLECULE
3R540
247   249    1
SMALL
USER_CHARGES


@<TRIPOS>ATOM
      1 CA         -5.6165  -11.2404  -45.6285 C.3       0 UNK        -0.1800 
      2 C          -4.2542  -11.5011  -46.2548 C.2       0 UNK         0.5000 
      3 O          -3.5399  -10.5551  -46.5889 O.2       0 UNK        -0.5000 
      4 N          -3.8793  -12.7782  -46.4022 N.am      1 UNK        -0.5000 
      5 CA         -2.6139  -13.2451  -46.9840 C.3       1 UNK         0.1400 
      6 C6         -2.7820  -14.6610  -47.5917 C.3       23 UNK        -0.0398 
      7 S7         -1.4814  -15.0713  -48.8006 S.3       23 UNK        -0.2404 
      8 C8         -2.0628  -16.6951  -49.3747 C.3       23 UNK        -0.0205 
      9 C9         -1.0299  -17.3661  -50.2661 C.ar      23 UNK        -0.0193 
     10 C10        -0.7370  -16.8360  -51.5254 C.ar      23 UNK        -0.1150 
     11 C11         0.2182  -17.4413  -52.3456 C.ar      23 UNK        -0.0193 
     12 C12         0.9211  -18.5530  -51.8747 C.ar      23 UNK        -0.1150 
     13 C13         0.6060  -19.1224  -50.6384 C.ar      23 UNK        -0.0193 
     14 C14        -0.3812  -18.5300  -49.8446 C.ar      23 UNK        -0.1150 
     15 C15         1.2646  -20.4302  -50.2235 C.3       23 UNK        -0.0205 
     16 S16         2.5482  -20.2516  -48.9407 S.3       23 UNK        -0.2404 
     17 C17         1.6187  -20.1549  -47.3713 C.3       23 UNK        -0.0398 
     18 CA          1.1305  -21.5238  -46.8208 C.3       11 UNK         0.1400 
     19 N           1.2681  -21.6362  -45.3629 N.am      11 UNK        -0.5000 
     20 C           1.1852  -22.7988  -44.6985 C.2       10 UNK         0.5000 
     21 O           0.9928  -23.8866  -45.2426 O.2       10 UNK        -0.5000 
     22 CA          1.2885  -22.7233  -43.1674 C.3       10 UNK         0.1400 
     23 CB          2.7371  -22.4769  -42.7219 C.3       10 UNK        -0.1800 
     24 N           0.4190  -21.7011  -42.5840 N.am      10 UNK        -0.5000 
     25 C          -0.9199  -21.7480  -42.5842 C.2       9 UNK         0.5000 
     26 O          -1.5582  -22.5867  -43.2197 O.2       9 UNK        -0.5000 
     27 CA         -1.6938  -20.6809  -41.7793 C.3       9 UNK         0.1400 
     28 CB         -2.6985  -21.3267  -40.8050 C.3       9 UNK        -0.1800 
     29 N          -0.8626  -19.6803  -41.0954 N.am      9 UNK        -0.5000 
     30 C          -0.0160  -19.8399  -40.0649 C.2       8 UNK         0.5000 
     31 O           0.1771  -20.9187  -39.5042 O.2       8 UNK        -0.5000 
     32 CA          0.7751  -18.5942  -39.6066 C.3       8 UNK         0.1400 
     33 CB          2.2587  -18.9312  -39.3745 C.3       8 UNK        -0.1800 
     34 N           0.7009  -17.5202  -40.5986 N.am      8 UNK        -0.5000 
     35 C           0.0349  -16.3640  -40.4662 C.2       7 UNK         0.5000 
     36 O          -0.5439  -16.0201  -39.4356 O.2       7 UNK        -0.5000 
     37 CA         -0.0184  -15.4470  -41.7104 C.3       7 UNK         0.1400 
     38 CB          1.1450  -14.4447  -41.6651 C.3       7 UNK        -0.1800 
     39 N           0.0411  -16.1794  -42.9798 N.am      7 UNK        -0.5000 
     40 C          -0.8152  -17.1408  -43.3609 C.2       6 UNK         0.5000 
     41 O          -1.8483  -17.4084  -42.7495 O.2       6 UNK        -0.5000 
     42 CA         -0.4074  -18.0382  -44.5485 C.3       6 UNK         0.1400 
     43 CB         -1.1873  -17.6600  -45.8136 C.3       6 UNK        -0.1800 
     44 N           1.0267  -18.0071  -44.8379 N.am      6 UNK        -0.5000 
     45 C           2.0123  -18.3592  -43.9981 C.2       5 UNK         0.5000 
     46 O           1.8114  -18.9902  -42.9611 O.2       5 UNK        -0.5000 
     47 CA          3.4423  -17.8849  -44.3475 C.3       5 UNK         0.1400 
     48 CB          4.4118  -19.0691  -44.4830 C.3       5 UNK        -0.1800 
     49 N           3.5159  -17.0469  -45.5537 N.am      5 UNK        -0.5000 
     50 C           2.9812  -15.8223  -45.6695 C.2       4 UNK         0.5000 
     51 O           2.3920  -15.2557  -44.7454 O.2       4 UNK        -0.5000 
     52 CA          3.0342  -15.1881  -47.0682 C.3       4 UNK         0.1400 
     53 CB          2.1428  -15.9768  -48.0456 C.3       4 UNK        -0.1800 
     54 N           2.5446  -13.8134  -47.0101 N.am      4 UNK        -0.5000 
     55 C           3.2920  -12.7171  -47.1820 C.2       3 UNK         0.5000 
     56 O           4.4937  -12.7440  -47.4522 O.2       3 UNK        -0.5000 
     57 CA          2.5855  -11.3528  -47.0476 C.3       3 UNK         0.1400 
     58 CB          2.3223  -10.7493  -48.4363 C.3       3 UNK        -0.1800 
     59 N           1.3172  -11.4159  -46.3194 N.am      3 UNK        -0.5000 
     60 C           1.1963  -11.5476  -44.9912 C.2       2 UNK         0.5000 
     61 O           2.1562  -11.6085  -44.2228 O.2       2 UNK        -0.5000 
     62 CA         -0.2361  -11.6008  -44.4218 C.3       2 UNK         0.1400 
     63 CB         -0.6043  -10.2631  -43.7621 C.3       2 UNK        -0.1800 
     64 N          -1.2550  -11.9255  -45.4221 N.am      2 UNK        -0.5000 
     65 C          -1.4482  -13.1325  -45.9682 C.2       1 UNK         0.5000 
     66 O          -0.7580  -14.1122  -45.6857 O.2       1 UNK        -0.5000 
     67 C          -0.3165  -21.8368  -47.2533 C.2       11 UNK         0.5000 
     68 O          -0.5169  -22.5489  -48.2344 O.2       11 UNK        -0.5000 
     69 N          -1.3005  -21.3501  -46.4816 N.am      12 UNK        -0.5000 
     70 CA         -2.7271  -21.5845  -46.7164 C.3       12 UNK         0.1400 
     71 CB         -3.5621  -20.7682  -45.7191 C.3       12 UNK        -0.1800 
     72 C          -3.1037  -23.0757  -46.6633 C.2       12 UNK         0.5000 
     73 O          -3.8445  -23.5393  -47.5286 O.2       12 UNK        -0.5000 
     74 N          -2.5458  -23.8052  -45.6872 N.am      13 UNK        -0.5000 
     75 CA         -2.6827  -25.2550  -45.5587 C.3       13 UNK         0.1400 
     76 CB         -2.1332  -25.7018  -44.1955 C.3       13 UNK        -0.1800 
     77 C          -1.9939  -26.0231  -46.7024 C.2       13 UNK         0.5000 
     78 O          -2.5663  -26.9889  -47.2074 O.2       13 UNK        -0.5000 
     79 N          -0.7926  -25.5769  -47.0983 N.am      14 UNK        -0.5000 
     80 CA         -0.0004  -26.1722  -48.1769 C.3       14 UNK         0.1400 
     81 CB          1.4223  -25.5925  -48.1522 C.3       14 UNK        -0.1800 
     82 C          -0.6407  -25.9909  -49.5658 C.2       14 UNK         0.5000 
     83 O          -0.7086  -26.9511  -50.3342 O.2       14 UNK        -0.5000 
     84 N          -1.1088  -24.7701  -49.8567 N.am      15 UNK        -0.5000 
     85 CA         -1.7903  -24.4150  -51.1032 C.3       15 UNK         0.1400 
     86 CB         -1.7478  -22.8896  -51.2764 C.3       15 UNK        -0.1800 
     87 C          -3.2453  -24.9145  -51.1624 C.2       15 UNK         0.5000 
     88 O          -3.8025  -25.0133  -52.2558 O.2       15 UNK        -0.5000 
     89 N          -3.8442  -25.1766  -49.9920 N.am      16 UNK        -0.5000 
     90 CA         -5.2175  -25.6173  -49.7151 C.3       16 UNK         0.1400 
     91 CB         -5.5371  -26.9559  -50.4065 C.3       16 UNK        -0.1800 
     92 C          -6.2899  -24.5530  -50.0194 C.2       16 UNK         0.5000 
     93 O          -7.1658  -24.3196  -49.1862 O.2       16 UNK        -0.5000 
     94 N          -6.1925  -23.9155  -51.1907 N.am      17 UNK        -0.5000 
     95 CA         -7.0639  -22.8338  -51.6520 C.3       17 UNK         0.1400 
     96 CB         -7.3771  -23.0659  -53.1386 C.3       17 UNK        -0.1800 
     97 C          -6.4366  -21.4415  -51.4292 C.2       17 UNK         0.5000 
     98 O          -7.0184  -20.4449  -51.8610 O.2       17 UNK        -0.5000 
     99 N          -5.2622  -21.3898  -50.7794 N.am      18 UNK        -0.5000 
    100 CA        -4.4587  -20.1947  -50.5043 C.3       18 UNK         0.1400 
    101 CB        -5.1453  -19.3159  -49.4349 C.3       18 UNK        -0.1800 
    102 C         -4.0854  -19.4545  -51.8066 C.2       18 UNK         0.5000 
    103 O         -3.5613  -20.0915  -52.7225 O.2       18 UNK        -0.5000 
    104 N         -4.3796  -18.1495  -51.8877 N.am      19 UNK        -0.5000 
    105 CA        -4.0511  -17.2637  -53.0106 C.3       19 UNK         0.1400 
    106 CB        -4.4104  -15.8181  -52.6299 C.3       19 UNK        -0.1800 
    107 C         -4.7024  -17.6382  -54.3571 C.2       19 UNK         0.5000 
    108 O         -4.2445  -17.1634  -55.3968 O.2       19 UNK        -0.5000 
    109 N         -5.7461  -18.4781  -54.3313 N.am      20 UNK        -0.5000 
    110 CA        -6.3960  -19.0089  -55.5296 C.3       20 UNK         0.1400 
    111 CB        -7.7922  -19.5264  -55.1556 C.3       20 UNK        -0.1800 
    112 C         -5.5729  -20.1085  -56.2334 C.2       20 UNK         0.5000 
    113 O         -5.8612  -20.4096  -57.3927 O.2       20 UNK        -0.5000 
    114 N         -4.5814  -20.6877  -55.5404 N.am      21 UNK        -0.5000 
    115 CA        -3.7044  -21.7355  -56.0645 C.3       21 UNK         0.1400 
    116 CB        -3.9994  -23.0561  -55.3342 C.3       21 UNK        -0.1800 
    117 C         -2.2190  -21.3676  -55.9282 C.2       21 UNK         0.5000 
    118 O         -1.4539  -21.6024  -56.8637 O.2       21 UNK        -0.5000 
    119 N         -1.8327  -20.8306  -54.7639 N.am      22 UNK        -0.5000 
    120 CA        -0.4537  -20.5212  -54.3453 C.3       22 UNK         0.1400 
    121 C          0.4921  -21.7538  -54.1830 C.2       22 UNK         0.5000 
    122 N          0.0083  -22.9880  -54.2521 N.am      22 UNK        -0.7600 
    123 O          1.6863  -21.5921  -53.9489 O.2       22 UNK        -0.5000 
    124 C124        0.2096  -19.3757  -55.1662 C.3       23 UNK        -0.0398 
    125 S125       -0.6213  -17.7612  -54.9661 S.3       23 UNK        -0.2404 
    126 C126        0.4575  -16.9208  -53.7545 C.3       23 UNK        -0.0205 
    127 H127       -6.2436  -10.6747  -46.3175 H         1 UNK         0.0600 
    128 H128       -6.1335  -12.1679  -45.3812 H         1 UNK         0.0600 
    129 H129       -5.5032  -10.6594  -44.7133 H         1 UNK         0.0600 
    130 H130       -4.4971  -13.5052  -46.0703 H         1 UNK         0.3000 
    131 H131       -2.3680  -12.5709  -47.8076 H         1 UNK         0.0600 
    132 H132       -3.7344  -14.7222  -48.1205 H         1 UNK         0.0800 
    133 H133       -2.8221  -15.4224  -46.8121 H         1 UNK         0.0800 
    134 H134       -2.2899  -17.3221  -48.5122 H         1 UNK         0.0800 
    135 H135       -2.9963  -16.5722  -49.9208 H         1 UNK         0.0800 
    136 H136       -1.2658  -15.9592  -51.8715 H         1 UNK         0.1150 
    137 H137        1.6658  -19.0198  -52.5038 H         1 UNK         0.1150 
    138 H138       -0.6619  -18.9806  -48.9067 H         1 UNK         0.1150 
    139 H139        0.4986  -21.1309  -49.9120 H         1 UNK         0.0800 
    140 H140        1.7331  -20.8955  -51.0923 H         1 UNK         0.0800 
    141 H141        0.8253  -19.4159  -47.4359 H         1 UNK         0.0800 
    142 H142        2.3311  -19.7241  -46.6723 H         1 UNK         0.0800 
    143 H143        1.7660  -22.3021  -47.2491 H         1 UNK         0.0600 
    144 H144        1.4099  -20.7901  -44.8322 H         1 UNK         0.3000 
    145 H145        0.9756  -23.6915  -42.7704 H         1 UNK         0.0600 
    146 H146        2.8269  -22.5216  -41.6363 H         1 UNK         0.0600 
    147 H147        3.4081  -23.2310  -43.1353 H         1 UNK         0.0600 
    148 H148        3.0982  -21.5015  -43.0455 H         1 UNK         0.0600 
    149 H149        0.8740  -20.9421  -42.0947 H         1 UNK         0.3000 
    150 H150       -2.2756  -20.1249  -42.5151 H         1 UNK         0.0600 
    151 H151       -3.4156  -21.9507  -41.3399 H         1 UNK         0.0600 
    152 H152       -3.2685  -20.5694  -40.2668 H         1 UNK         0.0600 
    153 H153       -2.2032  -21.9614  -40.0700 H         1 UNK         0.0600 
    154 H154       -0.9723  -18.7398  -41.4563 H         1 UNK         0.3000 
    155 H155        0.3429  -18.2709  -38.6578 H         1 UNK         0.0600 
    156 H156        2.7294  -19.3169  -40.2799 H         1 UNK         0.0600 
    157 H157        2.3758  -19.6852  -38.5952 H         1 UNK         0.0600 
    158 H158        2.8168  -18.0505  -39.0565 H         1 UNK         0.0600 
    159 H159        1.1377  -17.7333  -41.4883 H         1 UNK         0.3000 
    160 H160       -0.9601  -14.8952  -41.6868 H         1 UNK         0.0600 
    161 H161        1.1441  -13.7911  -42.5358 H         1 UNK         0.0600 
    162 H162        2.1102  -14.9525  -41.6408 H         1 UNK         0.0600 
    163 H163        1.0828  -13.8113  -40.7794 H         1 UNK         0.0600 
    164 H164        0.8347  -15.9689  -43.5765 H         1 UNK         0.3000 
    165 H165       -0.6723  -19.0610  -44.2775 H         1 UNK         0.0600 
    166 H166       -1.0922  -18.4231  -46.5831 H         1 UNK         0.0600 
    167 H167       -2.2516  -17.5473  -45.6038 H         1 UNK         0.0600 
    168 H168       -0.8340  -16.7177  -46.2305 H         1 UNK         0.0600 
    169 H169        1.2952  -17.4587  -45.6408 H         1 UNK         0.3000 
    170 H170        3.7787  -17.2775  -43.5047 H         1 UNK         0.0600 
    171 H171        4.4590  -19.6401  -43.5554 H         1 UNK         0.0600 
    172 H172        4.1227  -19.7557  -45.2776 H         1 UNK         0.0600 
    173 H173        5.4244  -18.7244  -44.6930 H         1 UNK         0.0600 
    174 H174        3.9845  -17.4525  -46.3516 H         1 UNK         0.3000 
    175 H175        4.0664  -15.2228  -47.4220 H         1 UNK         0.0600 
    176 H176        2.1156  -15.5021  -49.0268 H         1 UNK         0.0600 
    177 H177        2.5092  -16.9932  -48.1942 H         1 UNK         0.0600 
    178 H178        1.1159  -16.0477  -47.6863 H         1 UNK         0.0600 
    179 H179        1.5902  -13.7030  -46.6941 H         1 UNK         0.3000 
    180 H180        3.2613  -10.6857  -46.5082 H         1 UNK         0.0600 
    181 H181        1.6432  -11.3700  -49.0223 H         1 UNK         0.0600 
    182 H182        3.2493  -10.6520  -49.0030 H         1 UNK         0.0600 
    183 H183        1.8858   -9.7534  -48.3581 H         1 UNK         0.0600 
    184 H184        0.4735  -11.3596  -46.8700 H         1 UNK         0.3000 
    185 H185       -0.2596  -12.3751  -43.6540 H         1 UNK         0.0600 
    186 H186        0.1120  -10.0004  -42.9824 H         1 UNK         0.0600 
    187 H187       -0.6162   -9.4478  -44.4866 H         1 UNK         0.0600 
    188 H188       -1.5881  -10.3114  -43.2948 H         1 UNK         0.0600 
    189 H189       -1.8814  -11.1778  -45.7050 H         1 UNK         0.3000 
    190 H190       -1.0557  -20.8423  -45.6478 H         1 UNK         0.3000 
    191 H191       -2.9578  -21.2258  -47.7214 H         1 UNK         0.0600 
    192 H192       -3.3496  -21.0476  -44.6871 H         1 UNK         0.0600 
    193 H193       -4.6285  -20.9251  -45.8866 H         1 UNK         0.0600 
    194 H194       -3.3749  -19.7006  -45.8262 H         1 UNK         0.0600 
    195 H195       -1.9922  -23.3394  -44.9743 H         1 UNK         0.3000 
    196 H196       -3.7473  -25.4964  -45.5903 H         1 UNK         0.0600 
    197 H197       -1.0782  -25.4485  -44.0838 H         1 UNK         0.0600 
    198 H198       -2.2289  -26.7809  -44.0687 H         1 UNK         0.0600 
    199 H199       -2.6774  -25.2284  -43.3781 H         1 UNK         0.0600 
    200 H200       -0.3748  -24.7953  -46.6061 H         1 UNK         0.3000 
    201 H201        0.0719  -27.2445  -47.9835 H         1 UNK         0.0600 
    202 H202        1.4234  -24.5159  -48.3229 H         1 UNK         0.0600 
    203 H203        2.0425  -26.0474  -48.9254 H         1 UNK         0.0600 
    204 H204        1.9076  -25.7794  -47.1941 H         1 UNK         0.0600 
    205 H205       -0.9684  -24.0175  -49.1840 H         1 UNK         0.3000 
    206 H206       -1.2540  -24.8681  -51.9395 H         1 UNK         0.0600 
    207 H207       -0.7223  -22.5390  -51.3836 H         1 UNK         0.0600 
    208 H208       -2.2929  -22.5730  -52.1665 H         1 UNK         0.0600 
    209 H209       -2.1864  -22.3807  -50.4193 H         1 UNK         0.0600 
    210 H210       -3.3085  -24.9751  -49.1570 H         1 UNK         0.3000 
    211 H211       -5.2501  -25.7933  -48.6386 H         1 UNK         0.0600 
    212 H212       -5.5519  -26.8646  -51.4927 H         1 UNK         0.0600 
    213 H213       -6.5158  -27.3260  -50.0991 H         1 UNK         0.0600 
    214 H214       -4.8035  -27.7181  -50.1432 H         1 UNK         0.0600 
    215 H215       -5.4355  -24.1948  -51.8105 H         1 UNK         0.3000 
    216 H216       -8.0064  -22.8569  -51.1017 H         1 UNK         0.0600 
    217 H217       -8.1702  -22.3993  -53.4767 H         1 UNK         0.0600 
    218 H218       -7.7198  -24.0851  -53.3184 H         1 UNK         0.0600 
    219 H219       -6.5040  -22.8884  -53.7658 H         1 UNK         0.0600 
    220 H220       -4.8673  -22.2676  -50.4770 H         1 UNK         0.3000 
    221 H221       -3.5162  -20.5394  -50.0801 H         1 UNK         0.0600 
    222 H222       -6.0937  -18.9059  -49.7839 H         1 UNK         0.0600 
    223 H223       -5.3517  -19.8951  -48.5346 H         1 UNK         0.0600 
    224 H224       -4.5091  -18.4836  -49.1341 H         1 UNK         0.0600 
    225 H225       -4.8663  -17.7229  -51.1137 H         1 UNK         0.3000 
    226 H226       -2.9730  -17.3195  -53.1634 H         1 UNK         0.0600 
    227 H227       -3.8489  -15.4795  -51.7605 H         1 UNK         0.0600 
    228 H228       -4.1781  -15.1296  -53.4435 H         1 UNK         0.0600 
    229 H229       -5.4730  -15.7146  -52.4071 H         1 UNK         0.0600 
    230 H230       -6.0681  -18.8349  -53.4406 H         1 UNK         0.3000 
    231 H231       -6.5245  -18.1931  -56.2442 H         1 UNK         0.0600 
    232 H232       -8.3985  -18.7402  -54.7055 H         1 UNK         0.0600 
    233 H233       -7.7344  -20.3514  -54.4482 H         1 UNK         0.0600 
    234 H234       -8.3264  -19.8859  -56.0359 H         1 UNK         0.0600 
    235 H235       -4.3904  -20.3615  -54.6001 H         1 UNK         0.3000 
    236 H236       -3.8886  -21.8947  -57.1290 H         1 UNK         0.0600 
    237 H237       -3.9081  -22.9501  -54.2523 H         1 UNK         0.0600 
    238 H238       -5.0081  -23.4052  -55.5534 H         1 UNK         0.0600 
    239 H239       -3.3129  -23.8435  -55.6480 H         1 UNK         0.0600 
    240 H240       -2.5298  -20.6563  -54.0428 H         1 UNK         0.3000 
    241 H241       -0.5787  -20.1644  -53.3251 H         1 UNK         0.0600 
    242 H242        0.6364  -23.7677  -54.1405 H         1 UNK         0.3800 
    243 H243       -0.9632  -23.1480  -54.4564 H         1 UNK         0.3800 
    244 H244        1.2573  -19.2480  -54.8922 H         1 UNK         0.0800 
    245 H245        0.2198  -19.6270  -56.2270 H         1 UNK         0.0800 
    246 H246        1.5052  -17.0379  -54.0351 H         1 UNK         0.0800 
    247 H247        0.2537  -15.8496  -53.7897 H         1 UNK         0.0800 
@<TRIPOS>BOND
     1    1    2 1    
     2    1  127 1    
     3    1  128 1    
     4    1  129 1    
     5    2    3 2    
     6    2    4 am   BACKBONE|DICT|INTERRES
     7    4    5 1    
     8    4  130 1    
     9    5    6 1    
    10    5   65 1    
    11    5  131 1    
    12    6    7 1    
    13    6  132 1    
    14    6  133 1    
    15    7    8 1    
    16    8    9 1    
    17    8  134 1    
    18    8  135 1    
    19    9   10 ar   
    20    9   14 ar   
    21   10   11 ar   
    22   10  136 1    
    23   11   12 ar   
    24   11  126 1    
    25   12   13 ar   
    26   12  137 1    
    27   13   14 ar   
    28   13   15 1    
    29   14  138 1    
    30   15   16 1    
    31   15  139 1    
    32   15  140 1    
    33   16   17 1    
    34   17   18 1    
    35   17  141 1    
    36   17  142 1    
    37   18   19 1    
    38   18   67 1    
    39   18  143 1    
    40   19   20 am   BACKBONE|DICT|INTERRES
    41   19  144 1    
    42   20   21 2    
    43   20   22 1    
    44   22   23 1    
    45   22   24 1    
    46   22  145 1    
    47   23  146 1    
    48   23  147 1    
    49   23  148 1    
    50   24   25 am   BACKBONE|DICT|INTERRES
    51   24  149 1    
    52   25   26 2    
    53   25   27 1    
    54   27   28 1    
    55   27   29 1    
    56   27  150 1    
    57   28  151 1    
    58   28  152 1    
    59   28  153 1    
    60   29   30 am   BACKBONE|DICT|INTERRES
    61   29  154 1    
    62   30   31 2    
    63   30   32 1    
    64   32   33 1    
    65   32   34 1    
    66   32  155 1    
    67   33  156 1    
    68   33  157 1    
    69   33  158 1    
    70   34   35 am   BACKBONE|DICT|INTERRES
    71   34  159 1    
    72   35   36 2    
    73   35   37 1    
    74   37   38 1    
    75   37   39 1    
    76   37  160 1    
    77   38  161 1    
    78   38  162 1    
    79   38  163 1    
    80   39   40 am   BACKBONE|DICT|INTERRES
    81   39  164 1    
    82   40   41 2    
    83   40   42 1    
    84   42   43 1    
    85   42   44 1    
    86   42  165 1    
    87   43  166 1    
    88   43  167 1    
    89   43  168 1    
    90   44   45 am   BACKBONE|DICT|INTERRES
    91   44  169 1    
    92   45   46 2    
    93   45   47 1    
    94   47   48 1    
    95   47   49 1    
    96   47  170 1    
    97   48  171 1    
    98   48  172 1    
    99   48  173 1    
   100   49   50 am   BACKBONE|DICT|INTERRES
   101   49  174 1    
   102   50   51 2    
   103   50   52 1    
   104   52   53 1    
   105   52   54 1    
   106   52  175 1    
   107   53  176 1    
   108   53  177 1    
   109   53  178 1    
   110   54   55 am   BACKBONE|DICT|INTERRES
   111   54  179 1    
   112   55   56 2    
   113   55   57 1    
   114   57   58 1    
   115   57   59 1    
   116   57  180 1    
   117   58  181 1    
   118   58  182 1    
   119   58  183 1    
   120   59   60 am   BACKBONE|DICT|INTERRES
   121   59  184 1    
   122   60   61 2    
   123   60   62 1    
   124   62   63 1    
   125   62   64 1    
   126   62  185 1    
   127   63  186 1    
   128   63  187 1    
   129   63  188 1    
   130   64   65 am   BACKBONE|DICT|INTERRES
   131   64  189 1    
   132   65   66 2    
   133   67   68 2    
   134   67   69 am   BACKBONE|DICT|INTERRES
   135   69   70 1    
   136   69  190 1    
   137   70   71 1    
   138   70   72 1    
   139   70  191 1    
   140   71  192 1    
   141   71  193 1    
   142   71  194 1    
   143   72   73 2    
   144   72   74 am   BACKBONE|DICT|INTERRES
   145   74   75 1    
   146   74  195 1    
   147   75   76 1    
   148   75   77 1    
   149   75  196 1    
   150   76  197 1    
   151   76  198 1    
   152   76  199 1    
   153   77   78 2    
   154   77   79 am   BACKBONE|DICT|INTERRES
   155   79   80 1    
   156   79  200 1    
   157   80   81 1    
   158   80   82 1    
   159   80  201 1    
   160   81  202 1    
   161   81  203 1    
   162   81  204 1    
   163   82   83 2    
   164   82   84 am   BACKBONE|DICT|INTERRES
   165   84   85 1    
   166   84  205 1    
   167   85   86 1    
   168   85   87 1    
   169   85  206 1    
   170   86  207 1    
   171   86  208 1    
   172   86  209 1    
   173   87   88 2    
   174   87   89 am   BACKBONE|DICT|INTERRES
   175   89   90 1    
   176   89  210 1    
   177   90   91 1    
   178   90   92 1    
   179   90  211 1    
   180   91  212 1    
   181   91  213 1    
   182   91  214 1    
   183   92   93 2    
   184   92   94 am   BACKBONE|DICT|INTERRES
   185   94   95 1    
   186   94  215 1    
   187   95   96 1    
   188   95   97 1    
   189   95  216 1    
   190   96  217 1    
   191   96  218 1    
   192   96  219 1    
   193   97   98 2    
   194   97   99 am   BACKBONE|DICT|INTERRES
   195   99  100 1    
   196   99  220 1    
   197  100  101 1    
   198  100  102 1    
   199  100  221 1    
   200  101  222 1    
   201  101  223 1    
   202  101  224 1    
   203  102  103 2    
   204  102  104 am   BACKBONE|DICT|INTERRES
   205  104  105 1    
   206  104  225 1    
   207  105  106 1    
   208  105  107 1    
   209  105  226 1    
   210  106  227 1    
   211  106  228 1    
   212  106  229 1    
   213  107  108 2    
   214  107  109 am   BACKBONE|DICT|INTERRES
   215  109  110 1    
   216  109  230 1    
   217  110  111 1    
   218  110  112 1    
   219  110  231 1    
   220  111  232 1    
   221  111  233 1    
   222  111  234 1    
   223  112  113 2    
   224  112  114 am   BACKBONE|DICT|INTERRES
   225  114  115 1    
   226  114  235 1    
   227  115  116 1    
   228  115  117 1    
   229  115  236 1    
   230  116  237 1    
   231  116  238 1    
   232  116  239 1    
   233  117  118 2    
   234  117  119 am   BACKBONE|DICT|INTERRES
   235  119  120 1    
   236  119  240 1    
   237  120  121 1    
   238  120  124 1    
   239  120  241 1    
   240  121  122 am   BACKBONE|DICT|INTERRES
   241  121  123 2    
   242  122  242 1    
   243  122  243 1    
   244  124  125 1    
   245  124  244 1    
   246  124  245 1    
   247  125  126 1    
   248  126  246 1    
   249  126  247 1    
@<TRIPOS>SUBSTRUCTURE
     1 UNK         1 GROUP             0       ****    0 ROOT    
