@<TRIPOS>MOLECULE
3R540
247   249    1
SMALL
USER_CHARGES


@<TRIPOS>ATOM
      1 CA         -1.2438  -14.2713  -38.5992 C.3       0 UNK        -0.1800 
      2 C          -1.0728  -13.5323  -39.9193 C.2       0 UNK         0.5000 
      3 O          -0.4249  -12.4856  -39.9558 O.2       0 UNK        -0.5000 
      4 N          -1.6578  -14.0666  -40.9984 N.am      1 UNK        -0.5000 
      5 CA         -1.5387  -13.5392  -42.3609 C.3       1 UNK         0.1400 
      6 C6         -2.6495  -14.1096  -43.2786 C.3       23 UNK        -0.0398 
      7 S7         -2.9662  -13.0399  -44.7211 S.3       23 UNK        -0.2404 
      8 C8         -4.5867  -13.6588  -45.2704 C.3       23 UNK        -0.0205 
      9 C9         -4.4812  -15.0069  -45.9682 C.ar      23 UNK        -0.0193 
     10 C10        -3.8418  -15.0963  -47.2056 C.ar      23 UNK        -0.1150 
     11 C11        -3.7742  -16.3144  -47.8816 C.ar      23 UNK        -0.0193 
     12 C12        -4.3751  -17.4441  -47.3250 C.ar      23 UNK        -0.1150 
     13 C13        -4.9885  -17.3871  -46.0658 C.ar      23 UNK        -0.0193 
     14 C14        -5.0372  -16.1570  -45.3980 C.ar      23 UNK        -0.1150 
     15 C15        -5.6168  -18.6092  -45.3851 C.3       23 UNK        -0.0205 
     16 S16        -5.3176  -20.2351  -46.1730 S.3       23 UNK        -0.2404 
     17 C17        -3.5060  -20.3796  -46.0337 C.3       23 UNK        -0.0398 
     18 CA         -3.0074  -21.8432  -45.9890 C.3       11 UNK         0.1400 
     19 N          -1.6581  -21.9736  -46.5477 N.am      11 UNK        -0.5000 
     20 C          -1.0316  -23.1303  -46.7977 C.2       10 UNK         0.5000 
     21 O          -1.5645  -24.2284  -46.6606 O.2       10 UNK        -0.5000 
     22 CA          0.4436  -23.0561  -47.2349 C.3       10 UNK         0.1400 
     23 CB          0.5637  -22.9482  -48.7590 C.3       10 UNK        -0.1800 
     24 N           1.1630  -21.9493  -46.6059 N.am      10 UNK        -0.5000 
     25 C           1.3990  -21.8609  -45.2893 C.2       9 UNK         0.5000 
     26 O           1.0986  -22.7413  -44.4835 O.2       9 UNK        -0.5000 
     27 CA          2.0077  -20.5426  -44.7811 C.3       9 UNK         0.1400 
     28 CB          3.5273  -20.5234  -44.9999 C.3       9 UNK        -0.1800 
     29 N           1.3907  -19.3694  -45.4065 N.am      9 UNK        -0.5000 
     30 C           0.1003  -19.0322  -45.2601 C.2       8 UNK         0.5000 
     31 O          -0.6774  -19.6415  -44.5257 O.2       8 UNK        -0.5000 
     32 CA         -0.4305  -17.8623  -46.1098 C.3       8 UNK         0.1400 
     33 CB         -0.1555  -16.5185  -45.4275 C.3       8 UNK        -0.1800 
     34 N           0.1257  -17.8449  -47.4609 N.am      8 UNK        -0.5000 
     35 C          -0.1228  -18.7682  -48.3984 C.2       7 UNK         0.5000 
     36 O          -0.8808  -19.7209  -48.2298 O.2       7 UNK        -0.5000 
     37 CA          0.6405  -18.6294  -49.7266 C.3       7 UNK         0.1400 
     38 CB          0.0210  -17.5445  -50.6209 C.3       7 UNK        -0.1800 
     39 N           2.0527  -18.3240  -49.5073 N.am      7 UNK        -0.5000 
     40 C           2.9378  -19.1712  -48.9652 C.2       6 UNK         0.5000 
     41 O           2.6591  -20.3119  -48.5961 O.2       6 UNK        -0.5000 
     42 CA          4.3683  -18.6350  -48.7758 C.3       6 UNK         0.1400 
     43 CB          5.1770  -18.7837  -50.0731 C.3       6 UNK        -0.1800 
     44 N           4.3947  -17.2355  -48.3436 N.am      6 UNK        -0.5000 
     45 C           3.9696  -16.8140  -47.1447 C.2       5 UNK         0.5000 
     46 O           3.5074  -17.5579  -46.2815 O.2       5 UNK        -0.5000 
     47 CA          4.0185  -15.2981  -46.8867 C.3       5 UNK         0.1400 
     48 CB          5.4461  -14.8401  -46.5550 C.3       5 UNK        -0.1800 
     49 N           3.4868  -14.4916  -47.9897 N.am      5 UNK        -0.5000 
     50 C           2.2453  -14.5943  -48.4806 C.2       4 UNK         0.5000 
     51 O           1.4301  -15.4378  -48.1050 O.2       4 UNK        -0.5000 
     52 CA          1.8532  -13.5982  -49.5834 C.3       4 UNK         0.1400 
     53 CB          2.3872  -14.0881  -50.9386 C.3       4 UNK        -0.1800 
     54 N           0.3964  -13.4804  -49.6843 N.am      4 UNK        -0.5000 
     55 C          -0.4476  -12.7646  -48.9258 C.2       3 UNK         0.5000 
     56 O          -1.6629  -12.8979  -49.0512 O.2       3 UNK        -0.5000 
     57 CA          0.0871  -11.7637  -47.8807 C.3       3 UNK         0.1400 
     58 CB         -0.9227  -10.6384  -47.5838 C.3       3 UNK        -0.1800 
     59 N           0.3815  -12.4604  -46.6308 N.am      3 UNK        -0.5000 
     60 C           1.4904  -12.2817  -45.9021 C.2       2 UNK         0.5000 
     61 O           2.4060  -11.5277  -46.2343 O.2       2 UNK        -0.5000 
     62 CA          1.5752  -13.0623  -44.5791 C.3       2 UNK         0.1400 
     63 CB          2.7603  -12.6304  -43.6913 C.3       2 UNK        -0.1800 
     64 N           0.3150  -12.9418  -43.8503 N.am      2 UNK        -0.5000 
     65 C          -0.1322  -13.8128  -42.9393 C.2       1 UNK         0.5000 
     66 O           0.4982  -14.8102  -42.5789 O.2       1 UNK        -0.5000 
     67 C          -3.0846  -22.4304  -44.5662 C.2       11 UNK         0.5000 
     68 O          -3.9645  -23.2462  -44.2912 O.2       11 UNK        -0.5000 
     69 N          -2.1200  -22.0576  -43.7122 N.am      12 UNK        -0.5000 
     70 CA         -1.9604  -22.5737  -42.3501 C.3       12 UNK         0.1400 
     71 CB         -0.8638  -21.7748  -41.6300 C.3       12 UNK        -0.1800 
     72 C          -1.6600  -24.0857  -42.3056 C.2       12 UNK         0.5000 
     73 O          -2.1416  -24.7754  -41.4065 O.2       12 UNK        -0.5000 
     74 N          -0.9072  -24.5785  -43.2984 N.am      13 UNK        -0.5000 
     75 CA         -0.6119  -25.9976  -43.5118 C.3       13 UNK         0.1400 
     76 CB          0.6316  -26.1120  -44.4081 C.3       13 UNK        -0.1800 
     77 C          -1.7861  -26.7973  -44.1193 C.2       13 UNK         0.5000 
     78 O          -1.6820  -28.0207  -44.2164 O.2       13 UNK        -0.5000 
     79 N          -2.8627  -26.1076  -44.5286 N.am      14 UNK        -0.5000 
     80 CA         -4.0600  -26.6270  -45.1988 C.3       14 UNK         0.1400 
     81 CB         -4.8374  -27.5958  -44.2833 C.3       14 UNK        -0.1800 
     82 C          -3.7697  -27.2117  -46.5987 C.2       14 UNK         0.5000 
     83 O          -4.4493  -28.1407  -47.0375 O.2       14 UNK        -0.5000 
     84 N          -2.7858  -26.6295  -47.2943 N.am      15 UNK        -0.5000 
     85 CA         -2.3524  -26.9794  -48.6460 C.3       15 UNK         0.1400 
     86 CB         -0.8134  -26.9833  -48.6834 C.3       15 UNK        -0.1800 
     87 C          -2.9708  -26.0189  -49.6827 C.2       15 UNK         0.5000 
     88 O          -2.2766  -25.5426  -50.5840 O.2       15 UNK        -0.5000 
     89 N          -4.2710  -25.7282  -49.5157 N.am      16 UNK        -0.5000 
     90 CA         -5.1432  -24.9484  -50.4064 C.3       16 UNK         0.1400 
     91 CB         -5.4314  -25.7565  -51.6893 C.3       16 UNK        -0.1800 
     92 C          -4.6362  -23.5242  -50.7231 C.2       16 UNK         0.5000 
     93 O          -4.9089  -23.0084  -51.8078 O.2       16 UNK        -0.5000 
     94 N          -3.8680  -22.9297  -49.7972 N.am      17 UNK        -0.5000 
     95 CA         -3.1713  -21.6437  -49.9404 C.3       17 UNK         0.1400 
     96 CB         -4.1780  -20.4766  -49.9563 C.3       17 UNK        -0.1800 
     97 C          -2.1985  -21.6162  -51.1405 C.2       17 UNK         0.5000 
     98 O          -2.0982  -20.6010  -51.8321 O.2       17 UNK        -0.5000 
     99 N          -1.5374  -22.7599  -51.3853 N.am      18 UNK        -0.5000 
    100 CA        -0.6504  -23.0468  -52.5173 C.3       18 UNK         0.1400 
    101 CB         0.6227  -22.1752  -52.4660 C.3       18 UNK        -0.1800 
    102 C         -1.4018  -22.9761  -53.8631 C.2       18 UNK         0.5000 
    103 O         -0.9000  -22.4002  -54.8289 O.2       18 UNK        -0.5000 
    104 N         -2.6118  -23.5569  -53.8738 N.am      19 UNK        -0.5000 
    105 CA        -3.6123  -23.5191  -54.9453 C.3       19 UNK         0.1400 
    106 CB        -3.1071  -24.2438  -56.2107 C.3       19 UNK        -0.1800 
    107 C         -4.1086  -22.0822  -55.2106 C.2       19 UNK         0.5000 
    108 O         -4.1335  -21.6326  -56.3579 O.2       19 UNK        -0.5000 
    109 N         -4.4881  -21.3977  -54.1207 N.am      20 UNK        -0.5000 
    110 CA        -4.9786  -20.0182  -54.0509 C.3       20 UNK         0.1400 
    111 CB        -6.3906  -19.9198  -54.6636 C.3       20 UNK        -0.1800 
    112 C         -3.9885  -18.9954  -54.6446 C.2       20 UNK         0.5000 
    113 O         -4.3819  -18.1413  -55.4421 O.2       20 UNK        -0.5000 
    114 N         -2.7135  -19.0940  -54.2422 N.am      21 UNK        -0.5000 
    115 CA        -1.6109  -18.2753  -54.7573 C.3       21 UNK         0.1400 
    116 CB        -0.2791  -18.8197  -54.2234 C.3       21 UNK        -0.1800 
    117 C         -1.7470  -16.7686  -54.4608 C.2       21 UNK         0.5000 
    118 O         -1.2226  -15.9557  -55.2232 O.2       21 UNK        -0.5000 
    119 N         -2.4666  -16.4238  -53.3860 N.am      22 UNK        -0.5000 
    120 CA        -2.8708  -15.0492  -53.0532 C.3       22 UNK         0.1400 
    121 C         -4.1549  -14.5532  -53.7857 C.2       22 UNK         0.5000 
    122 N         -4.8096  -15.3499  -54.6232 N.am      22 UNK        -0.7600 
    123 O         -4.5566  -13.4061  -53.6097 O.2       22 UNK        -0.5000 
    124 C124       -2.9298  -14.8192  -51.5218 C.3       23 UNK        -0.0398 
    125 S125       -4.0469  -15.9520  -50.6175 S.3       23 UNK        -0.2404 
    126 C126       -3.0154  -16.4167  -49.1914 C.3       23 UNK        -0.0205 
    127 H127       -1.8528  -15.1685  -38.7122 H         1 UNK         0.0600 
    128 H128       -1.7251  -13.6240  -37.8660 H         1 UNK         0.0600 
    129 H129       -0.2709  -14.5681  -38.2073 H         1 UNK         0.0600 
    130 H130       -2.1445  -14.9466  -40.9081 H         1 UNK         0.3000 
    131 H131       -1.6721  -12.4569  -42.2931 H         1 UNK         0.0600 
    132 H132       -2.4214  -15.1227  -43.6143 H         1 UNK         0.0800 
    133 H133       -3.5838  -14.1819  -42.7199 H         1 UNK         0.0800 
    134 H134       -5.0159  -12.9373  -45.9671 H         1 UNK         0.0800 
    135 H135       -5.2720  -13.7059  -44.4228 H         1 UNK         0.0800 
    136 H136       -3.3945  -14.2146  -47.6420 H         1 UNK         0.1150 
    137 H137       -4.3445  -18.3651  -47.8836 H         1 UNK         0.1150 
    138 H138       -5.5230  -16.0928  -44.4344 H         1 UNK         0.1150 
    139 H139       -5.2686  -18.6605  -44.3523 H         1 UNK         0.0800 
    140 H140       -6.6953  -18.4537  -45.3365 H         1 UNK         0.0800 
    141 H141       -3.1606  -19.8056  -45.1731 H         1 UNK         0.0800 
    142 H142       -3.0838  -19.8857  -46.9062 H         1 UNK         0.0800 
    143 H143       -3.6588  -22.4452  -46.6263 H         1 UNK         0.0600 
    144 H144       -1.1677  -21.1110  -46.7562 H         1 UNK         0.3000 
    145 H145        0.9255  -23.9857  -46.9281 H         1 UNK         0.0600 
    146 H146        1.6062  -22.9986  -49.0734 H         1 UNK         0.0600 
    147 H147        0.0366  -23.7638  -49.2540 H         1 UNK         0.0600 
    148 H148        0.1518  -22.0106  -49.1305 H         1 UNK         0.0600 
    149 H149        1.4866  -21.2068  -47.2183 H         1 UNK         0.3000 
    150 H150        1.8207  -20.4851  -43.7067 H         1 UNK         0.0600 
    151 H151        3.9989  -21.3944  -44.5431 H         1 UNK         0.0600 
    152 H152        3.9780  -19.6385  -44.5507 H         1 UNK         0.0600 
    153 H153        3.7829  -20.5290  -46.0595 H         1 UNK         0.0600 
    154 H154        1.9962  -18.7847  -45.9746 H         1 UNK         0.3000 
    155 H155       -1.5129  -17.9775  -46.1947 H         1 UNK         0.0600 
    156 H156        0.9142  -16.3238  -45.3459 H         1 UNK         0.0600 
    157 H157       -0.5713  -16.5093  -44.4203 H         1 UNK         0.0600 
    158 H158       -0.6097  -15.6942  -45.9781 H         1 UNK         0.0600 
    159 H159        0.7346  -17.0613  -47.6895 H         1 UNK         0.3000 
    160 H160        0.5770  -19.5835  -50.2550 H         1 UNK         0.0600 
    161 H161        0.6096  -17.3936  -51.5254 H         1 UNK         0.0600 
    162 H162       -0.0461  -16.5849  -50.1090 H         1 UNK         0.0600 
    163 H163       -0.9838  -17.8288  -50.9345 H         1 UNK         0.0600 
    164 H164        2.3570  -17.3890  -49.7303 H         1 UNK         0.3000 
    165 H165        4.8498  -19.2389  -48.0038 H         1 UNK         0.0600 
    166 H166        6.2141  -18.4807  -49.9278 H         1 UNK         0.0600 
    167 H167        5.1868  -19.8214  -50.4094 H         1 UNK         0.0600 
    168 H168        4.7606  -18.1807  -50.8810 H         1 UNK         0.0600 
    169 H169        4.7527  -16.5568  -48.9993 H         1 UNK         0.3000 
    170 H170        3.3983  -15.1068  -46.0110 H         1 UNK         0.0600 
    171 H171        5.8605  -15.4199  -45.7290 H         1 UNK         0.0600 
    172 H172        6.1168  -14.9560  -47.4071 H         1 UNK         0.0600 
    173 H173        5.4628  -13.7923  -46.2542 H         1 UNK         0.0600 
    174 H174        4.1020  -13.7801  -48.3578 H         1 UNK         0.3000 
    175 H175        2.3036  -12.6292  -49.3678 H         1 UNK         0.0600 
    176 H176        1.9874  -15.0682  -51.2025 H         1 UNK         0.0600 
    177 H177        2.1246  -13.3951  -51.7382 H         1 UNK         0.0600 
    178 H178        3.4749  -14.1696  -50.9288 H         1 UNK         0.0600 
    179 H179       -0.0196  -14.1260  -50.3345 H         1 UNK         0.3000 
    180 H180        0.9767  -11.2844  -48.2892 H         1 UNK         0.0600 
    181 H181       -1.8354  -11.0226  -47.1260 H         1 UNK         0.0600 
    182 H182       -1.2065  -10.1159  -48.4981 H         1 UNK         0.0600 
    183 H183       -0.4973   -9.8985  -46.9056 H         1 UNK         0.0600 
    184 H184       -0.3155  -13.1256  -46.3242 H         1 UNK         0.3000 
    185 H185        1.7149  -14.1087  -44.8508 H         1 UNK         0.0600 
    186 H186        3.7075  -12.7376  -44.2215 H         1 UNK         0.0600 
    187 H187        2.6689  -11.5884  -43.3829 H         1 UNK         0.0600 
    188 H188        2.8275  -13.2409  -42.7909 H         1 UNK         0.0600 
    189 H189       -0.2661  -12.1552  -44.1093 H         1 UNK         0.3000 
    190 H190       -1.4478  -21.3575  -44.0147 H         1 UNK         0.3000 
    191 H191       -2.9021  -22.4097  -41.8225 H         1 UNK         0.0600 
    192 H192       -0.7527  -22.1075  -40.5973 H         1 UNK         0.0600 
    193 H193       -1.1022  -20.7112  -41.6062 H         1 UNK         0.0600 
    194 H194        0.1047  -21.8884  -42.1174 H         1 UNK         0.0600 
    195 H195       -0.4839  -23.9257  -43.9495 H         1 UNK         0.3000 
    196 H196       -0.3762  -26.4488  -42.5459 H         1 UNK         0.0600 
    197 H197        0.9466  -27.1510  -44.5103 H         1 UNK         0.0600 
    198 H198        1.4732  -25.5572  -43.9929 H         1 UNK         0.0600 
    199 H199        0.4378  -25.7308  -45.4102 H         1 UNK         0.0600 
    200 H200       -2.8458  -25.1016  -44.4127 H         1 UNK         0.3000 
    201 H201       -4.7008  -25.7610  -45.3692 H         1 UNK         0.0600 
    202 H202       -5.0263  -27.1487  -43.3073 H         1 UNK         0.0600 
    203 H203       -4.2978  -28.5300  -44.1266 H         1 UNK         0.0600 
    204 H204       -5.8061  -27.8488  -44.7157 H         1 UNK         0.0600 
    205 H205       -2.3184  -25.8200  -46.8866 H         1 UNK         0.3000 
    206 H206       -2.6933  -27.9848  -48.9002 H         1 UNK         0.0600 
    207 H207       -0.4062  -27.6864  -47.9565 H         1 UNK         0.0600 
    208 H208       -0.4433  -27.2815  -49.6650 H         1 UNK         0.0600 
    209 H209       -0.4015  -25.9997  -48.4596 H         1 UNK         0.0600 
    210 H210       -4.7352  -26.1600  -48.7288 H         1 UNK         0.3000 
    211 H211       -6.0878  -24.8186  -49.8766 H         1 UNK         0.0600 
    212 H212       -4.5342  -25.8843  -52.2959 H         1 UNK         0.0600 
    213 H213       -6.1794  -25.2612  -52.3097 H         1 UNK         0.0600 
    214 H214       -5.8180  -26.7475  -51.4517 H         1 UNK         0.0600 
    215 H215       -3.6824  -23.4447  -48.9489 H         1 UNK         0.3000 
    216 H216       -2.5518  -21.5294  -49.0543 H         1 UNK         0.0600 
    217 H217       -3.6639  -19.5157  -49.9681 H         1 UNK         0.0600 
    218 H218       -4.8142  -20.4960  -49.0733 H         1 UNK         0.0600 
    219 H219       -4.8280  -20.5120  -50.8286 H         1 UNK         0.0600 
    220 H220       -1.7551  -23.5671  -50.8103 H         1 UNK         0.3000 
    221 H221       -0.3370  -24.0856  -52.4033 H         1 UNK         0.0600 
    222 H222        0.3966  -21.1143  -52.5564 H         1 UNK         0.0600 
    223 H223        1.1622  -22.3196  -51.5309 H         1 UNK         0.0600 
    224 H224        1.3068  -22.4334  -53.2749 H         1 UNK         0.0600 
    225 H225       -2.9299  -23.9691  -53.0079 H         1 UNK         0.3000 
    226 H226       -4.4752  -24.0748  -54.5751 H         1 UNK         0.0600 
    227 H227       -3.9003  -24.3222  -56.9549 H         1 UNK         0.0600 
    228 H228       -2.2741  -23.7186  -56.6785 H         1 UNK         0.0600 
    229 H229       -2.7780  -25.2567  -55.9794 H         1 UNK         0.0600 
    230 H230       -4.4668  -21.8938  -53.2321 H         1 UNK         0.3000 
    231 H231       -5.0647  -19.7726  -52.9929 H         1 UNK         0.0600 
    232 H232       -7.0733  -20.6277  -54.1936 H         1 UNK         0.0600 
    233 H233       -6.3824  -20.1224  -55.7351 H         1 UNK         0.0600 
    234 H234       -6.8099  -18.9230  -54.5217 H         1 UNK         0.0600 
    235 H235       -2.4730  -19.7866  -53.5368 H         1 UNK         0.3000 
    236 H236       -1.6039  -18.3836  -55.8438 H         1 UNK         0.0600 
    237 H237       -0.0844  -19.8192  -54.6108 H         1 UNK         0.0600 
    238 H238        0.5585  -18.1886  -54.5230 H         1 UNK         0.0600 
    239 H239       -0.2794  -18.8779  -53.1363 H         1 UNK         0.0600 
    240 H240       -2.8748  -17.1543  -52.8215 H         1 UNK         0.3000 
    241 H241       -2.0864  -14.3831  -53.4177 H         1 UNK         0.0600 
    242 H242       -5.6306  -14.9978  -55.0888 H         1 UNK         0.3800 
    243 H243       -4.4980  -16.2955  -54.8201 H         1 UNK         0.3800 
    244 H244       -1.9182  -14.9221  -51.1322 H         1 UNK         0.0800 
    245 H245       -3.2208  -13.7927  -51.2919 H         1 UNK         0.0800 
    246 H246       -2.1281  -15.7870  -49.1203 H         1 UNK         0.0800 
    247 H247       -2.6560  -17.4351  -49.3330 H         1 UNK         0.0800 
@<TRIPOS>BOND
     1    1    2 1    
     2    1  127 1    
     3    1  128 1    
     4    1  129 1    
     5    2    3 2    
     6    2    4 am   BACKBONE|DICT|INTERRES
     7    4    5 1    
     8    4  130 1    
     9    5    6 1    
    10    5   65 1    
    11    5  131 1    
    12    6    7 1    
    13    6  132 1    
    14    6  133 1    
    15    7    8 1    
    16    8    9 1    
    17    8  134 1    
    18    8  135 1    
    19    9   10 ar   
    20    9   14 ar   
    21   10   11 ar   
    22   10  136 1    
    23   11   12 ar   
    24   11  126 1    
    25   12   13 ar   
    26   12  137 1    
    27   13   14 ar   
    28   13   15 1    
    29   14  138 1    
    30   15   16 1    
    31   15  139 1    
    32   15  140 1    
    33   16   17 1    
    34   17   18 1    
    35   17  141 1    
    36   17  142 1    
    37   18   19 1    
    38   18   67 1    
    39   18  143 1    
    40   19   20 am   BACKBONE|DICT|INTERRES
    41   19  144 1    
    42   20   21 2    
    43   20   22 1    
    44   22   23 1    
    45   22   24 1    
    46   22  145 1    
    47   23  146 1    
    48   23  147 1    
    49   23  148 1    
    50   24   25 am   BACKBONE|DICT|INTERRES
    51   24  149 1    
    52   25   26 2    
    53   25   27 1    
    54   27   28 1    
    55   27   29 1    
    56   27  150 1    
    57   28  151 1    
    58   28  152 1    
    59   28  153 1    
    60   29   30 am   BACKBONE|DICT|INTERRES
    61   29  154 1    
    62   30   31 2    
    63   30   32 1    
    64   32   33 1    
    65   32   34 1    
    66   32  155 1    
    67   33  156 1    
    68   33  157 1    
    69   33  158 1    
    70   34   35 am   BACKBONE|DICT|INTERRES
    71   34  159 1    
    72   35   36 2    
    73   35   37 1    
    74   37   38 1    
    75   37   39 1    
    76   37  160 1    
    77   38  161 1    
    78   38  162 1    
    79   38  163 1    
    80   39   40 am   BACKBONE|DICT|INTERRES
    81   39  164 1    
    82   40   41 2    
    83   40   42 1    
    84   42   43 1    
    85   42   44 1    
    86   42  165 1    
    87   43  166 1    
    88   43  167 1    
    89   43  168 1    
    90   44   45 am   BACKBONE|DICT|INTERRES
    91   44  169 1    
    92   45   46 2    
    93   45   47 1    
    94   47   48 1    
    95   47   49 1    
    96   47  170 1    
    97   48  171 1    
    98   48  172 1    
    99   48  173 1    
   100   49   50 am   BACKBONE|DICT|INTERRES
   101   49  174 1    
   102   50   51 2    
   103   50   52 1    
   104   52   53 1    
   105   52   54 1    
   106   52  175 1    
   107   53  176 1    
   108   53  177 1    
   109   53  178 1    
   110   54   55 am   BACKBONE|DICT|INTERRES
   111   54  179 1    
   112   55   56 2    
   113   55   57 1    
   114   57   58 1    
   115   57   59 1    
   116   57  180 1    
   117   58  181 1    
   118   58  182 1    
   119   58  183 1    
   120   59   60 am   BACKBONE|DICT|INTERRES
   121   59  184 1    
   122   60   61 2    
   123   60   62 1    
   124   62   63 1    
   125   62   64 1    
   126   62  185 1    
   127   63  186 1    
   128   63  187 1    
   129   63  188 1    
   130   64   65 am   BACKBONE|DICT|INTERRES
   131   64  189 1    
   132   65   66 2    
   133   67   68 2    
   134   67   69 am   BACKBONE|DICT|INTERRES
   135   69   70 1    
   136   69  190 1    
   137   70   71 1    
   138   70   72 1    
   139   70  191 1    
   140   71  192 1    
   141   71  193 1    
   142   71  194 1    
   143   72   73 2    
   144   72   74 am   BACKBONE|DICT|INTERRES
   145   74   75 1    
   146   74  195 1    
   147   75   76 1    
   148   75   77 1    
   149   75  196 1    
   150   76  197 1    
   151   76  198 1    
   152   76  199 1    
   153   77   78 2    
   154   77   79 am   BACKBONE|DICT|INTERRES
   155   79   80 1    
   156   79  200 1    
   157   80   81 1    
   158   80   82 1    
   159   80  201 1    
   160   81  202 1    
   161   81  203 1    
   162   81  204 1    
   163   82   83 2    
   164   82   84 am   BACKBONE|DICT|INTERRES
   165   84   85 1    
   166   84  205 1    
   167   85   86 1    
   168   85   87 1    
   169   85  206 1    
   170   86  207 1    
   171   86  208 1    
   172   86  209 1    
   173   87   88 2    
   174   87   89 am   BACKBONE|DICT|INTERRES
   175   89   90 1    
   176   89  210 1    
   177   90   91 1    
   178   90   92 1    
   179   90  211 1    
   180   91  212 1    
   181   91  213 1    
   182   91  214 1    
   183   92   93 2    
   184   92   94 am   BACKBONE|DICT|INTERRES
   185   94   95 1    
   186   94  215 1    
   187   95   96 1    
   188   95   97 1    
   189   95  216 1    
   190   96  217 1    
   191   96  218 1    
   192   96  219 1    
   193   97   98 2    
   194   97   99 am   BACKBONE|DICT|INTERRES
   195   99  100 1    
   196   99  220 1    
   197  100  101 1    
   198  100  102 1    
   199  100  221 1    
   200  101  222 1    
   201  101  223 1    
   202  101  224 1    
   203  102  103 2    
   204  102  104 am   BACKBONE|DICT|INTERRES
   205  104  105 1    
   206  104  225 1    
   207  105  106 1    
   208  105  107 1    
   209  105  226 1    
   210  106  227 1    
   211  106  228 1    
   212  106  229 1    
   213  107  108 2    
   214  107  109 am   BACKBONE|DICT|INTERRES
   215  109  110 1    
   216  109  230 1    
   217  110  111 1    
   218  110  112 1    
   219  110  231 1    
   220  111  232 1    
   221  111  233 1    
   222  111  234 1    
   223  112  113 2    
   224  112  114 am   BACKBONE|DICT|INTERRES
   225  114  115 1    
   226  114  235 1    
   227  115  116 1    
   228  115  117 1    
   229  115  236 1    
   230  116  237 1    
   231  116  238 1    
   232  116  239 1    
   233  117  118 2    
   234  117  119 am   BACKBONE|DICT|INTERRES
   235  119  120 1    
   236  119  240 1    
   237  120  121 1    
   238  120  124 1    
   239  120  241 1    
   240  121  122 am   BACKBONE|DICT|INTERRES
   241  121  123 2    
   242  122  242 1    
   243  122  243 1    
   244  124  125 1    
   245  124  244 1    
   246  124  245 1    
   247  125  126 1    
   248  126  246 1    
   249  126  247 1    
@<TRIPOS>SUBSTRUCTURE
     1 UNK         1 GROUP             0       ****    0 ROOT    
