@<TRIPOS>MOLECULE
3R540
247   249    1
SMALL
USER_CHARGES


@<TRIPOS>ATOM
      1 CA          2.0689  -17.0406  -47.7894 C.3       0 UNK        -0.1800 
      2 C           2.2896  -16.3075  -49.1047 C.2       0 UNK         0.5000 
      3 O           3.1717  -15.4538  -49.1880 O.2       0 UNK        -0.5000 
      4 N           1.4815  -16.6296  -50.1251 N.am      1 UNK        -0.5000 
      5 CA          1.4466  -15.9875  -51.4502 C.3       1 UNK         0.1400 
      6 C6          2.8042  -16.0818  -52.2106 C.3       23 UNK        -0.0398 
      7 S7          2.6132  -16.5624  -53.9620 S.3       23 UNK        -0.2404 
      8 C8          2.9887  -18.3483  -53.9175 C.3       23 UNK        -0.0205 
      9 C9          1.8478  -19.1676  -53.3278 C.ar      23 UNK        -0.0193 
     10 C10         0.8631  -19.7123  -54.1584 C.ar      23 UNK        -0.1150 
     11 C11        -0.1932  -20.4512  -53.6172 C.ar      23 UNK        -0.0193 
     12 C12        -0.2564  -20.6501  -52.2354 C.ar      23 UNK        -0.1150 
     13 C13         0.7231  -20.1173  -51.3935 C.ar      23 UNK        -0.0193 
     14 C14         1.7779  -19.3868  -51.9495 C.ar      23 UNK        -0.1150 
     15 C15         0.5871  -20.2677  -49.8852 C.3       23 UNK        -0.0205 
     16 S16         2.1148  -20.8058  -49.0543 S.3       23 UNK        -0.2404 
     17 C17         1.6042  -20.6336  -47.3080 C.3       23 UNK        -0.0398 
     18 CA          1.3078  -21.9783  -46.6070 C.3       11 UNK         0.1400 
     19 N           1.1721  -21.8127  -45.1601 N.am      11 UNK        -0.5000 
     20 C           1.1396  -22.8202  -44.2769 C.2       10 UNK         0.5000 
     21 O           1.2758  -24.0052  -44.5832 O.2       10 UNK        -0.5000 
     22 CA          0.8682  -22.4393  -42.8093 C.3       10 UNK         0.1400 
     23 CB          2.1381  -21.8944  -42.1386 C.3       10 UNK        -0.1800 
     24 N          -0.2106  -21.4601  -42.6742 N.am      10 UNK        -0.5000 
     25 C          -1.4833  -21.6733  -43.0383 C.2       9 UNK         0.5000 
     26 O          -1.9009  -22.7399  -43.4918 O.2       9 UNK        -0.5000 
     27 CA         -2.4366  -20.4700  -42.9245 C.3       9 UNK         0.1400 
     28 CB         -2.9347  -20.2934  -41.4820 C.3       9 UNK        -0.1800 
     29 N          -1.8220  -19.2248  -43.3910 N.am      9 UNK        -0.5000 
     30 C          -1.4527  -19.0019  -44.6598 C.2       8 UNK         0.5000 
     31 O          -1.5889  -19.8239  -45.5605 O.2       8 UNK        -0.5000 
     32 CA         -0.7613  -17.6658  -44.9683 C.3       8 UNK         0.1400 
     33 CB         -1.7801  -16.5230  -45.0683 C.3       8 UNK        -0.1800 
     34 N           0.2583  -17.3354  -43.9772 N.am      8 UNK        -0.5000 
     35 C           1.3898  -18.0294  -43.7943 C.2       7 UNK         0.5000 
     36 O           1.7168  -19.0003  -44.4761 O.2       7 UNK        -0.5000 
     37 CA          2.2772  -17.5922  -42.6144 C.3       7 UNK         0.1400 
     38 CB          3.2700  -16.5094  -43.0626 C.3       7 UNK        -0.1800 
     39 N           1.5154  -17.1085  -41.4562 N.am      7 UNK        -0.5000 
     40 C           0.6313  -17.8508  -40.7701 C.2       6 UNK         0.5000 
     41 O           0.3412  -19.0101  -41.0684 O.2       6 UNK        -0.5000 
     42 CA         -0.0691  -17.1885  -39.5768 C.3       6 UNK         0.1400 
     43 CB          0.7797  -17.3212  -38.3006 C.3       6 UNK        -0.1800 
     44 N          -0.3867  -15.7803  -39.8328 N.am      6 UNK        -0.5000 
     45 C          -1.4234  -15.1341  -39.2831 C.2       5 UNK         0.5000 
     46 O          -2.2298  -15.6656  -38.5182 O.2       5 UNK        -0.5000 
     47 CA         -1.5909  -13.6389  -39.6199 C.3       5 UNK         0.1400 
     48 CB         -0.9871  -12.7734  -38.5025 C.3       5 UNK        -0.1800 
     49 N          -1.0076  -13.2289  -40.9011 N.am      5 UNK        -0.5000 
     50 C          -1.5132  -13.5405  -42.1006 C.2       4 UNK         0.5000 
     51 O          -2.4720  -14.2991  -42.2668 O.2       4 UNK        -0.5000 
     52 CA         -0.8328  -12.8924  -43.3158 C.3       4 UNK         0.1400 
     53 CB          0.5306  -13.5472  -43.6109 C.3       4 UNK        -0.1800 
     54 N          -1.7174  -13.0164  -44.4709 N.am      4 UNK        -0.5000 
     55 C          -1.6318  -12.3108  -45.6021 C.2       3 UNK         0.5000 
     56 O          -0.7893  -11.4313  -45.7998 O.2       3 UNK        -0.5000 
     57 CA         -2.6792  -12.6224  -46.6900 C.3       3 UNK         0.1400 
     58 CB         -3.8675  -11.6534  -46.5975 C.3       3 UNK        -0.1800 
     59 N          -2.0873  -12.5274  -48.0253 N.am      3 UNK        -0.5000 
     60 C          -1.2407  -13.4352  -48.5231 C.2       2 UNK         0.5000 
     61 O          -0.9919  -14.5096  -47.9646 O.2       2 UNK        -0.5000 
     62 CA         -0.5459  -13.0827  -49.8513 C.3       2 UNK         0.1400 
     63 CB          0.4953  -11.9661  -49.6321 C.3       2 UNK        -0.1800 
     64 N           0.0926  -14.3068  -50.3089 N.am      2 UNK        -0.5000 
     65 C           0.8536  -14.5551  -51.3800 C.2       1 UNK         0.5000 
     66 O           1.0979  -13.7242  -52.2566 O.2       1 UNK        -0.5000 
     67 C           0.0811  -22.6903  -47.2107 C.2       11 UNK         0.5000 
     68 O           0.2589  -23.6384  -47.9719 O.2       11 UNK        -0.5000 
     69 N          -1.1342  -22.2556  -46.8457 N.am      12 UNK        -0.5000 
     70 CA         -2.4002  -22.8131  -47.3289 C.3       12 UNK         0.1400 
     71 CB         -3.5803  -22.0128  -46.7565 C.3       12 UNK        -0.1800 
     72 C          -2.5704  -24.3080  -47.0141 C.2       12 UNK         0.5000 
     73 O          -3.0475  -25.0566  -47.8673 O.2       12 UNK        -0.5000 
     74 N          -2.1340  -24.7209  -45.8161 N.am      13 UNK        -0.5000 
     75 CA         -2.1161  -26.1154  -45.3747 C.3       13 UNK         0.1400 
     76 CB         -1.7346  -26.1678  -43.8877 C.3       13 UNK        -0.1800 
     77 C          -1.1765  -27.0099  -46.2083 C.2       13 UNK         0.5000 
     78 O          -1.4850  -28.1853  -46.4080 O.2       13 UNK        -0.5000 
     79 N          -0.0603  -26.4431  -46.6854 N.am      14 UNK        -0.5000 
     80 CA          0.9049  -27.1215  -47.5488 C.3       14 UNK         0.1400 
     81 CB          2.2859  -26.4689  -47.3772 C.3       14 UNK        -0.1800 
     82 C           0.4679  -27.1027  -49.0248 C.2       14 UNK         0.5000 
     83 O           0.5743  -28.1246  -49.7038 O.2       14 UNK        -0.5000 
     84 N          -0.0075  -25.9416  -49.4946 N.am      15 UNK        -0.5000 
     85 CA         -0.4235  -25.6955  -50.8757 C.3       15 UNK         0.1400 
     86 CB         -0.5509  -24.1785  -51.0979 C.3       15 UNK        -0.1800 
     87 C          -1.7390  -26.3950  -51.2600 C.2       15 UNK         0.5000 
     88 O          -1.9226  -26.7159  -52.4348 O.2       15 UNK        -0.5000 
     89 N          -2.6297  -26.5914  -50.2754 N.am      16 UNK        -0.5000 
     90 CA         -4.0047  -27.0861  -50.4102 C.3       16 UNK         0.1400 
     91 CB         -4.0290  -28.5500  -50.8976 C.3       16 UNK        -0.1800 
     92 C          -4.8775  -26.1374  -51.2611 C.2       16 UNK         0.5000 
     93 O          -5.6912  -26.5874  -52.0702 O.2       16 UNK        -0.5000 
     94 N          -4.6752  -24.8312  -51.0615 N.am      17 UNK        -0.5000 
     95 CA         -5.3377  -23.7317  -51.7515 C.3       17 UNK         0.1400 
     96 CB         -4.6117  -23.4424  -53.0778 C.3       17 UNK        -0.1800 
     97 C          -5.3034  -22.5047  -50.8320 C.2       17 UNK         0.5000 
     98 O          -4.4640  -22.4457  -49.9308 O.2       17 UNK        -0.5000 
     99 N          -6.2027  -21.5434  -51.0733 N.am      18 UNK        -0.5000 
    100 CA        -6.2611  -20.2738  -50.3497 C.3       18 UNK         0.1400 
    101 CB        -7.5665  -19.5436  -50.7027 C.3       18 UNK        -0.1800 
    102 C         -5.0286  -19.4077  -50.6657 C.2       18 UNK         0.5000 
    103 O         -4.8755  -18.9573  -51.8007 O.2       18 UNK        -0.5000 
    104 N         -4.1761  -19.1963  -49.6564 N.am      19 UNK        -0.5000 
    105 CA        -2.8599  -18.5605  -49.7643 C.3       19 UNK         0.1400 
    106 CB        -2.1791  -18.6172  -48.3913 C.3       19 UNK        -0.1800 
    107 C         -2.8452  -17.1170  -50.2962 C.2       19 UNK         0.5000 
    108 O         -1.8030  -16.6787  -50.7762 O.2       19 UNK        -0.5000 
    109 N         -3.9748  -16.4075  -50.1896 N.am      20 UNK        -0.5000 
    110 CA        -4.1482  -15.0501  -50.7052 C.3       20 UNK         0.1400 
    111 CB        -5.0354  -14.2659  -49.7251 C.3       20 UNK        -0.1800 
    112 C         -4.7464  -15.0205  -52.1269 C.2       20 UNK         0.5000 
    113 O         -4.7455  -13.9566  -52.7472 O.2       20 UNK        -0.5000 
    114 N         -5.2597  -16.1579  -52.6201 N.am      21 UNK        -0.5000 
    115 CA        -5.9015  -16.2785  -53.9338 C.3       21 UNK         0.1400 
    116 CB        -7.0354  -17.3120  -53.8419 C.3       21 UNK        -0.1800 
    117 C         -4.9126  -16.6654  -55.0505 C.2       21 UNK         0.5000 
    118 O         -5.2859  -16.6321  -56.2242 O.2       21 UNK        -0.5000 
    119 N         -3.6818  -17.0242  -54.6792 N.am      22 UNK        -0.5000 
    120 CA        -2.5900  -17.4214  -55.5728 C.3       22 UNK         0.1400 
    121 C         -1.2206  -16.9209  -55.0470 C.2       22 UNK         0.5000 
    122 N         -0.1767  -16.9840  -55.8625 N.am      22 UNK        -0.7600 
    123 O         -1.0937  -16.4508  -53.9204 O.2       22 UNK        -0.5000 
    124 C124       -2.6131  -18.9398  -55.9123 C.3       23 UNK        -0.0398 
    125 S125       -2.8016  -20.0656  -54.4794 S.3       23 UNK        -0.2404 
    126 C126       -1.2672  -21.0469  -54.5137 C.3       23 UNK        -0.0205 
    127 H127        2.9343  -17.6585  -47.5506 H         1 UNK         0.0600 
    128 H128        1.1910  -17.6824  -47.8324 H         1 UNK         0.0600 
    129 H129        1.9225  -16.3262  -46.9789 H         1 UNK         0.0600 
    130 H130        0.7611  -17.3229  -49.9889 H         1 UNK         0.3000 
    131 H131        0.7091  -16.5717  -52.0013 H         1 UNK         0.0600 
    132 H132        3.4628  -16.8098  -51.7369 H         1 UNK         0.0800 
    133 H133        3.3551  -15.1412  -52.1616 H         1 UNK         0.0800 
    134 H134        3.1903  -18.6846  -54.9355 H         1 UNK         0.0800 
    135 H135        3.9094  -18.5217  -53.3583 H         1 UNK         0.0800 
    136 H136        0.9127  -19.5506  -55.2257 H         1 UNK         0.1150 
    137 H137       -1.0839  -21.2062  -51.8172 H         1 UNK         0.1150 
    138 H138        2.5357  -18.9686  -51.3033 H         1 UNK         0.1150 
    139 H139        0.2937  -19.3004  -49.4852 H         1 UNK         0.0800 
    140 H140       -0.2127  -20.9685  -49.6407 H         1 UNK         0.0800 
    141 H141        0.7506  -19.9600  -47.2208 H         1 UNK         0.0800 
    142 H142        2.4267  -20.1346  -46.7943 H         1 UNK         0.0800 
    143 H143        2.1696  -22.6296  -46.7696 H         1 UNK         0.0600 
    144 H144        1.0981  -20.8588  -44.8203 H         1 UNK         0.3000 
    145 H145        0.5641  -23.3453  -42.2810 H         1 UNK         0.0600 
    146 H146        1.9647  -21.6771  -41.0845 H         1 UNK         0.0600 
    147 H147        2.9504  -22.6202  -42.1933 H         1 UNK         0.0600 
    148 H148        2.4841  -20.9770  -42.6154 H         1 UNK         0.0600 
    149 H149        0.0338  -20.5581  -42.2765 H         1 UNK         0.3000 
    150 H150       -3.3027  -20.6727  -43.5577 H         1 UNK         0.0600 
    151 H151       -3.4301  -21.1988  -41.1291 H         1 UNK         0.0600 
    152 H152       -3.6567  -19.4798  -41.4109 H         1 UNK         0.0600 
    153 H153       -2.1179  -20.0783  -40.7928 H         1 UNK         0.0600 
    154 H154       -1.6202  -18.5267  -42.6918 H         1 UNK         0.3000 
    155 H155       -0.2722  -17.7653  -45.9384 H         1 UNK         0.0600 
    156 H156       -1.3003  -15.6095  -45.4170 H         1 UNK         0.0600 
    157 H157       -2.5711  -16.7589  -45.7803 H         1 UNK         0.0600 
    158 H158       -2.2540  -16.3164  -44.1086 H         1 UNK         0.0600 
    159 H159        0.0593  -16.5703  -43.3524 H         1 UNK         0.3000 
    160 H160        2.8482  -18.4661  -42.2941 H         1 UNK         0.0600 
    161 H161        2.7617  -15.5953  -43.3703 H         1 UNK         0.0600 
    162 H162        3.8653  -16.8533  -43.9098 H         1 UNK         0.0600 
    163 H163        3.9649  -16.2549  -42.2622 H         1 UNK         0.0600 
    164 H164        1.7577  -16.1907  -41.1172 H         1 UNK         0.3000 
    165 H165       -0.9998  -17.7406  -39.4269 H         1 UNK         0.0600 
    166 H166        0.2382  -16.9588  -37.4267 H         1 UNK         0.0600 
    167 H167        1.0401  -18.3633  -38.1101 H         1 UNK         0.0600 
    168 H168        1.7098  -16.7568  -38.3756 H         1 UNK         0.0600 
    169 H169        0.2075  -15.2745  -40.4706 H         1 UNK         0.3000 
    170 H170       -2.6636  -13.4366  -39.6588 H         1 UNK         0.0600 
    171 H171       -1.4204  -13.0260  -37.5337 H         1 UNK         0.0600 
    172 H172        0.0921  -12.9117  -38.4248 H         1 UNK         0.0600 
    173 H173       -1.1796  -11.7144  -38.6751 H         1 UNK         0.0600 
    174 H174       -0.2176  -12.6014  -40.8505 H         1 UNK         0.3000 
    175 H175       -0.6881  -11.8329  -43.0941 H         1 UNK         0.0600 
    176 H176        1.1871  -13.5118  -42.7410 H         1 UNK         0.0600 
    177 H177        0.4196  -14.5902  -43.9012 H         1 UNK         0.0600 
    178 H178        1.0488  -13.0347  -44.4213 H         1 UNK         0.0600 
    179 H179       -2.4682  -13.6827  -44.3354 H         1 UNK         0.3000 
    180 H180       -3.0514  -13.6391  -46.5434 H         1 UNK         0.0600 
    181 H181       -3.5554  -10.6182  -46.7415 H         1 UNK         0.0600 
    182 H182       -4.3487  -11.7183  -45.6208 H         1 UNK         0.0600 
    183 H183       -4.6240  -11.8840  -47.3479 H         1 UNK         0.0600 
    184 H184       -2.2139  -11.6512  -48.5101 H         1 UNK         0.3000 
    185 H185       -1.2940  -12.7730  -50.5826 H         1 UNK         0.0600 
    186 H186        1.2754  -12.2794  -48.9369 H         1 UNK         0.0600 
    187 H187        0.0322  -11.0684  -49.2211 H         1 UNK         0.0600 
    188 H188        0.9762  -11.6742  -50.5652 H         1 UNK         0.0600 
    189 H189       -0.0724  -15.0757  -49.6681 H         1 UNK         0.3000 
    190 H190       -1.2112  -21.4463  -46.2320 H         1 UNK         0.3000 
    191 H191       -2.4016  -22.7035  -48.4139 H         1 UNK         0.0600 
    192 H192       -3.5885  -22.0334  -45.6667 H         1 UNK         0.0600 
    193 H193       -4.5317  -22.4203  -47.1009 H         1 UNK         0.0600 
    194 H194       -3.5451  -20.9716  -47.0719 H         1 UNK         0.0600 
    195 H195       -1.7950  -24.0282  -45.1567 H         1 UNK         0.3000 
    196 H196       -3.1281  -26.5112  -45.4816 H         1 UNK         0.0600 
    197 H197       -1.7312  -27.1946  -43.5198 H         1 UNK         0.0600 
    198 H198       -2.4435  -25.6061  -43.2792 H         1 UNK         0.0600 
    199 H199       -0.7418  -25.7515  -43.7130 H         1 UNK         0.0600 
    200 H200        0.1090  -25.4640  -46.4945 H         1 UNK         0.3000 
    201 H201        0.9898  -28.1648  -47.2370 H         1 UNK         0.0600 
    202 H202        2.6205  -26.5241  -46.3411 H         1 UNK         0.0600 
    203 H203        2.2789  -25.4181  -47.6683 H         1 UNK         0.0600 
    204 H204        3.0342  -26.9738  -47.9892 H         1 UNK         0.0600 
    205 H205       -0.0082  -25.1319  -48.8752 H         1 UNK         0.3000 
    206 H206        0.3588  -26.0728  -51.5374 H         1 UNK         0.0600 
    207 H207        0.3904  -23.6672  -50.8940 H         1 UNK         0.0600 
    208 H208       -0.8254  -23.9541  -52.1294 H         1 UNK         0.0600 
    209 H209       -1.3141  -23.7406  -50.4532 H         1 UNK         0.0600 
    210 H210       -2.4020  -26.2283  -49.3550 H         1 UNK         0.3000 
    211 H211       -4.4307  -27.0697  -49.4061 H         1 UNK         0.0600 
    212 H212       -3.6850  -28.6435  -51.9279 H         1 UNK         0.0600 
    213 H213       -5.0397  -28.9573  -50.8543 H         1 UNK         0.0600 
    214 H214       -3.3974  -29.1826  -50.2739 H         1 UNK         0.0600 
    215 H215       -4.0408  -24.5335  -50.3292 H         1 UNK         0.3000 
    216 H216       -6.3797  -23.9946  -51.9451 H         1 UNK         0.0600 
    217 H217       -3.5661  -23.1794  -52.9115 H         1 UNK         0.0600 
    218 H218       -5.0773  -22.6119  -53.6098 H         1 UNK         0.0600 
    219 H219       -4.6366  -24.3078  -53.7403 H         1 UNK         0.0600 
    220 H220       -6.8361  -21.6452  -51.8525 H         1 UNK         0.3000 
    221 H221       -6.2778  -20.4895  -49.2790 H         1 UNK         0.0600 
    222 H222       -8.4357  -20.1127  -50.3726 H         1 UNK         0.0600 
    223 H223       -7.6629  -19.3834  -51.7763 H         1 UNK         0.0600 
    224 H224       -7.6142  -18.5675  -50.2181 H         1 UNK         0.0600 
    225 H225       -4.3863  -19.6165  -48.7634 H         1 UNK         0.3000 
    226 H226       -2.2691  -19.1525  -50.4662 H         1 UNK         0.0600 
    227 H227       -1.8813  -19.6373  -48.1532 H         1 UNK         0.0600 
    228 H228       -1.2816  -17.9990  -48.3538 H         1 UNK         0.0600 
    229 H229       -2.8435  -18.2660  -47.6022 H         1 UNK         0.0600 
    230 H230       -4.7795  -16.8427  -49.7638 H         1 UNK         0.3000 
    231 H231       -3.1805  -14.5473  -50.7545 H         1 UNK         0.0600 
    232 H232       -6.0327  -14.7004  -49.6479 H         1 UNK         0.0600 
    233 H233       -5.1513  -13.2293  -50.0441 H         1 UNK         0.0600 
    234 H234       -4.5979  -14.2489  -48.7267 H         1 UNK         0.0600 
    235 H235       -5.1579  -17.0234  -52.0991 H         1 UNK         0.3000 
    236 H236       -6.3475  -15.3207  -54.2097 H         1 UNK         0.0600 
    237 H237       -7.7236  -17.0769  -53.0299 H         1 UNK         0.0600 
    238 H238       -7.6168  -17.3342  -54.7644 H         1 UNK         0.0600 
    239 H239       -6.6483  -18.3180  -53.6795 H         1 UNK         0.0600 
    240 H240       -3.4336  -16.9978  -53.6996 H         1 UNK         0.3000 
    241 H241       -2.7293  -16.8784  -56.5097 H         1 UNK         0.0600 
    242 H242        0.7152  -16.6683  -55.5109 H         1 UNK         0.3800 
    243 H243       -0.2490  -17.3275  -56.8067 H         1 UNK         0.3800 
    244 H244       -1.7356  -19.2195  -56.4960 H         1 UNK         0.0800 
    245 H245       -3.4615  -19.1319  -56.5700 H         1 UNK         0.0800 
    246 H246       -1.4970  -22.0554  -54.1667 H         1 UNK         0.0800 
    247 H247       -0.9057  -21.1604  -55.5365 H         1 UNK         0.0800 
@<TRIPOS>BOND
     1    1    2 1    
     2    1  127 1    
     3    1  128 1    
     4    1  129 1    
     5    2    3 2    
     6    2    4 am   BACKBONE|DICT|INTERRES
     7    4    5 1    
     8    4  130 1    
     9    5    6 1    
    10    5   65 1    
    11    5  131 1    
    12    6    7 1    
    13    6  132 1    
    14    6  133 1    
    15    7    8 1    
    16    8    9 1    
    17    8  134 1    
    18    8  135 1    
    19    9   10 ar   
    20    9   14 ar   
    21   10   11 ar   
    22   10  136 1    
    23   11   12 ar   
    24   11  126 1    
    25   12   13 ar   
    26   12  137 1    
    27   13   14 ar   
    28   13   15 1    
    29   14  138 1    
    30   15   16 1    
    31   15  139 1    
    32   15  140 1    
    33   16   17 1    
    34   17   18 1    
    35   17  141 1    
    36   17  142 1    
    37   18   19 1    
    38   18   67 1    
    39   18  143 1    
    40   19   20 am   BACKBONE|DICT|INTERRES
    41   19  144 1    
    42   20   21 2    
    43   20   22 1    
    44   22   23 1    
    45   22   24 1    
    46   22  145 1    
    47   23  146 1    
    48   23  147 1    
    49   23  148 1    
    50   24   25 am   BACKBONE|DICT|INTERRES
    51   24  149 1    
    52   25   26 2    
    53   25   27 1    
    54   27   28 1    
    55   27   29 1    
    56   27  150 1    
    57   28  151 1    
    58   28  152 1    
    59   28  153 1    
    60   29   30 am   BACKBONE|DICT|INTERRES
    61   29  154 1    
    62   30   31 2    
    63   30   32 1    
    64   32   33 1    
    65   32   34 1    
    66   32  155 1    
    67   33  156 1    
    68   33  157 1    
    69   33  158 1    
    70   34   35 am   BACKBONE|DICT|INTERRES
    71   34  159 1    
    72   35   36 2    
    73   35   37 1    
    74   37   38 1    
    75   37   39 1    
    76   37  160 1    
    77   38  161 1    
    78   38  162 1    
    79   38  163 1    
    80   39   40 am   BACKBONE|DICT|INTERRES
    81   39  164 1    
    82   40   41 2    
    83   40   42 1    
    84   42   43 1    
    85   42   44 1    
    86   42  165 1    
    87   43  166 1    
    88   43  167 1    
    89   43  168 1    
    90   44   45 am   BACKBONE|DICT|INTERRES
    91   44  169 1    
    92   45   46 2    
    93   45   47 1    
    94   47   48 1    
    95   47   49 1    
    96   47  170 1    
    97   48  171 1    
    98   48  172 1    
    99   48  173 1    
   100   49   50 am   BACKBONE|DICT|INTERRES
   101   49  174 1    
   102   50   51 2    
   103   50   52 1    
   104   52   53 1    
   105   52   54 1    
   106   52  175 1    
   107   53  176 1    
   108   53  177 1    
   109   53  178 1    
   110   54   55 am   BACKBONE|DICT|INTERRES
   111   54  179 1    
   112   55   56 2    
   113   55   57 1    
   114   57   58 1    
   115   57   59 1    
   116   57  180 1    
   117   58  181 1    
   118   58  182 1    
   119   58  183 1    
   120   59   60 am   BACKBONE|DICT|INTERRES
   121   59  184 1    
   122   60   61 2    
   123   60   62 1    
   124   62   63 1    
   125   62   64 1    
   126   62  185 1    
   127   63  186 1    
   128   63  187 1    
   129   63  188 1    
   130   64   65 am   BACKBONE|DICT|INTERRES
   131   64  189 1    
   132   65   66 2    
   133   67   68 2    
   134   67   69 am   BACKBONE|DICT|INTERRES
   135   69   70 1    
   136   69  190 1    
   137   70   71 1    
   138   70   72 1    
   139   70  191 1    
   140   71  192 1    
   141   71  193 1    
   142   71  194 1    
   143   72   73 2    
   144   72   74 am   BACKBONE|DICT|INTERRES
   145   74   75 1    
   146   74  195 1    
   147   75   76 1    
   148   75   77 1    
   149   75  196 1    
   150   76  197 1    
   151   76  198 1    
   152   76  199 1    
   153   77   78 2    
   154   77   79 am   BACKBONE|DICT|INTERRES
   155   79   80 1    
   156   79  200 1    
   157   80   81 1    
   158   80   82 1    
   159   80  201 1    
   160   81  202 1    
   161   81  203 1    
   162   81  204 1    
   163   82   83 2    
   164   82   84 am   BACKBONE|DICT|INTERRES
   165   84   85 1    
   166   84  205 1    
   167   85   86 1    
   168   85   87 1    
   169   85  206 1    
   170   86  207 1    
   171   86  208 1    
   172   86  209 1    
   173   87   88 2    
   174   87   89 am   BACKBONE|DICT|INTERRES
   175   89   90 1    
   176   89  210 1    
   177   90   91 1    
   178   90   92 1    
   179   90  211 1    
   180   91  212 1    
   181   91  213 1    
   182   91  214 1    
   183   92   93 2    
   184   92   94 am   BACKBONE|DICT|INTERRES
   185   94   95 1    
   186   94  215 1    
   187   95   96 1    
   188   95   97 1    
   189   95  216 1    
   190   96  217 1    
   191   96  218 1    
   192   96  219 1    
   193   97   98 2    
   194   97   99 am   BACKBONE|DICT|INTERRES
   195   99  100 1    
   196   99  220 1    
   197  100  101 1    
   198  100  102 1    
   199  100  221 1    
   200  101  222 1    
   201  101  223 1    
   202  101  224 1    
   203  102  103 2    
   204  102  104 am   BACKBONE|DICT|INTERRES
   205  104  105 1    
   206  104  225 1    
   207  105  106 1    
   208  105  107 1    
   209  105  226 1    
   210  106  227 1    
   211  106  228 1    
   212  106  229 1    
   213  107  108 2    
   214  107  109 am   BACKBONE|DICT|INTERRES
   215  109  110 1    
   216  109  230 1    
   217  110  111 1    
   218  110  112 1    
   219  110  231 1    
   220  111  232 1    
   221  111  233 1    
   222  111  234 1    
   223  112  113 2    
   224  112  114 am   BACKBONE|DICT|INTERRES
   225  114  115 1    
   226  114  235 1    
   227  115  116 1    
   228  115  117 1    
   229  115  236 1    
   230  116  237 1    
   231  116  238 1    
   232  116  239 1    
   233  117  118 2    
   234  117  119 am   BACKBONE|DICT|INTERRES
   235  119  120 1    
   236  119  240 1    
   237  120  121 1    
   238  120  124 1    
   239  120  241 1    
   240  121  122 am   BACKBONE|DICT|INTERRES
   241  121  123 2    
   242  122  242 1    
   243  122  243 1    
   244  124  125 1    
   245  124  244 1    
   246  124  245 1    
   247  125  126 1    
   248  126  246 1    
   249  126  247 1    
@<TRIPOS>SUBSTRUCTURE
     1 UNK         1 GROUP             0       ****    0 ROOT    
