@<TRIPOS>MOLECULE
3R540
247   249    1
SMALL
USER_CHARGES


@<TRIPOS>ATOM
      1 CA         -6.4867  -13.2479  -44.2836 C.3       0 UNK        -0.1800 
      2 C          -5.2046  -12.4651  -44.0363 C.2       0 UNK         0.5000 
      3 O          -5.1564  -11.6337  -43.1292 O.2       0 UNK        -0.5000 
      4 N          -4.1714  -12.7226  -44.8452 N.am      1 UNK        -0.5000 
      5 CA         -2.8297  -12.1496  -44.7163 C.3       1 UNK         0.1400 
      6 C6         -2.0096  -12.2870  -46.0280 C.3       23 UNK        -0.0398 
      7 S7         -2.0034  -13.9664  -46.7567 S.3       23 UNK        -0.2404 
      8 C8         -3.2400  -13.7459  -48.0744 C.3       23 UNK        -0.0205 
      9 C9         -3.8470  -15.0653  -48.5241 C.ar      23 UNK        -0.0193 
     10 C10        -3.6785  -15.5101  -49.8383 C.ar      23 UNK        -0.1150 
     11 C11        -4.2969  -16.6861  -50.2713 C.ar      23 UNK        -0.0193 
     12 C12        -5.0843  -17.4193  -49.3798 C.ar      23 UNK        -0.1150 
     13 C13        -5.2517  -16.9930  -48.0583 C.ar      23 UNK        -0.0193 
     14 C14        -4.6307  -15.8132  -47.6395 C.ar      23 UNK        -0.1150 
     15 C15        -6.1335  -17.7727  -47.0882 C.3       23 UNK        -0.0205 
     16 S16        -5.8053  -19.5651  -47.0854 S.3       23 UNK        -0.2404 
     17 C17        -4.0667  -19.5993  -46.5407 C.3       23 UNK        -0.0398 
     18 CA         -3.5791  -21.0340  -46.2372 C.3       11 UNK         0.1400 
     19 N          -2.1205  -21.1528  -46.3030 N.am      11 UNK        -0.5000 
     20 C          -1.4595  -22.3157  -46.3731 C.2       10 UNK         0.5000 
     21 O          -2.0242  -23.4022  -46.4895 O.2       10 UNK        -0.5000 
     22 CA          0.0766  -22.2710  -46.2811 C.3       10 UNK         0.1400 
     23 CB          0.6997  -21.9826  -47.6511 C.3       10 UNK        -0.1800 
     24 N           0.5485  -21.2887  -45.3083 N.am      10 UNK        -0.5000 
     25 C           0.3227  -21.3731  -43.9903 C.2       9 UNK         0.5000 
     26 O          -0.2475  -22.3232  -43.4570 O.2       9 UNK        -0.5000 
     27 CA          0.7516  -20.1728  -43.1332 C.3       9 UNK         0.1400 
     28 CB          2.1827  -20.3506  -42.6040 C.3       9 UNK        -0.1800 
     29 N           0.6366  -18.9126  -43.8678 N.am      9 UNK        -0.5000 
     30 C          -0.5307  -18.3201  -44.1515 C.2       8 UNK         0.5000 
     31 O          -1.6279  -18.7938  -43.8489 O.2       8 UNK        -0.5000 
     32 CA         -0.4530  -16.9874  -44.9156 C.3       8 UNK         0.1400 
     33 CB          0.2179  -15.9019  -44.0587 C.3       8 UNK        -0.1800 
     34 N           0.2419  -17.0732  -46.2004 N.am      8 UNK        -0.5000 
     35 C          -0.1345  -17.8290  -47.2409 C.2       7 UNK         0.5000 
     36 O          -1.0068  -18.6915  -47.1798 O.2       7 UNK        -0.5000 
     37 CA          0.5967  -17.5917  -48.5702 C.3       7 UNK         0.1400 
     38 CB          0.3184  -16.1794  -49.1115 C.3       7 UNK        -0.1800 
     39 N           2.0318  -17.7720  -48.3824 N.am      7 UNK        -0.5000 
     40 C           2.7241  -18.8454  -48.7878 C.2       6 UNK         0.5000 
     41 O           2.2609  -19.7337  -49.5007 O.2       6 UNK        -0.5000 
     42 CA          4.1817  -18.9724  -48.2995 C.3       6 UNK         0.1400 
     43 CB          5.1528  -18.4670  -49.3771 C.3       6 UNK        -0.1800 
     44 N           4.4568  -18.2677  -47.0459 N.am      6 UNK        -0.5000 
     45 C           3.8410  -18.4893  -45.8761 C.2       5 UNK         0.5000 
     46 O           2.9788  -19.3506  -45.7043 O.2       5 UNK        -0.5000 
     47 CA          4.1947  -17.5350  -44.7197 C.3       5 UNK         0.1400 
     48 CB          5.3254  -18.1244  -43.8647 C.3       5 UNK        -0.1800 
     49 N           4.5658  -16.1811  -45.1490 N.am      5 UNK        -0.5000 
     50 C           3.7982  -15.3563  -45.8744 C.2       4 UNK         0.5000 
     51 O           2.6907  -15.6625  -46.3223 O.2       4 UNK        -0.5000 
     52 CA          4.3865  -13.9676  -46.1711 C.3       4 UNK         0.1400 
     53 CB          5.2987  -14.0436  -47.4050 C.3       4 UNK        -0.1800 
     54 N           3.3396  -12.9765  -46.4298 N.am      4 UNK        -0.5000 
     55 C           2.5077  -12.3996  -45.5511 C.2       3 UNK         0.5000 
     56 O           1.6215  -11.6299  -45.9275 O.2       3 UNK        -0.5000 
     57 CA          2.6691  -12.6498  -44.0372 C.3       3 UNK         0.1400 
     58 CB          3.7508  -11.7329  -43.4334 C.3       3 UNK        -0.1800 
     59 N           1.3891  -12.3674  -43.3990 N.am      3 UNK        -0.5000 
     60 C           0.9815  -12.8012  -42.2011 C.2       2 UNK         0.5000 
     61 O           1.6555  -13.5321  -41.4749 O.2       2 UNK        -0.5000 
     62 CA         -0.4086  -12.3349  -41.7268 C.3       2 UNK         0.1400 
     63 CB         -0.2685  -11.1567  -40.7500 C.3       2 UNK        -0.1800 
     64 N          -1.2686  -11.9247  -42.8407 N.am      2 UNK        -0.5000 
     65 C          -2.0842  -12.7520  -43.5064 C.2       1 UNK         0.5000 
     66 O          -2.2484  -13.9373  -43.2093 O.2       1 UNK        -0.5000 
     67 C          -4.1317  -21.5696  -44.9011 C.2       11 UNK         0.5000 
     68 O          -5.1306  -22.2885  -44.9117 O.2       11 UNK        -0.5000 
     69 N          -3.4426  -21.2831  -43.7854 N.am      12 UNK        -0.5000 
     70 CA         -3.7645  -21.8253  -42.4594 C.3       12 UNK         0.1400 
     71 CB         -2.8844  -21.1515  -41.3964 C.3       12 UNK        -0.1800 
     72 C          -3.6385  -23.3627  -42.3885 C.2       12 UNK         0.5000 
     73 O          -4.4434  -24.0106  -41.7192 O.2       12 UNK        -0.5000 
     74 N          -2.6648  -23.9177  -43.1226 N.am      13 UNK        -0.5000 
     75 CA         -2.4584  -25.3537  -43.3253 C.3       13 UNK         0.1400 
     76 CB         -0.9984  -25.5811  -43.7509 C.3       13 UNK        -0.1800 
     77 C          -3.4255  -25.9849  -44.3528 C.2       13 UNK         0.5000 
     78 O          -3.3789  -27.2006  -44.5433 O.2       13 UNK        -0.5000 
     79 N          -4.2642  -25.1636  -45.0037 N.am      14 UNK        -0.5000 
     80 CA         -5.2488  -25.5059  -46.0375 C.3       14 UNK         0.1400 
     81 CB         -6.3111  -26.4862  -45.4973 C.3       14 UNK        -0.1800 
     82 C          -4.6310  -25.9676  -47.3755 C.2       14 UNK         0.5000 
     83 O          -5.3288  -26.5739  -48.1903 O.2       14 UNK        -0.5000 
     84 N          -3.3499  -25.6492  -47.6012 N.am      15 UNK        -0.5000 
     85 CA         -2.6451  -25.8752  -48.8626 C.3       15 UNK         0.1400 
     86 CB         -1.1483  -26.0740  -48.5777 C.3       15 UNK        -0.1800 
     87 C          -2.8496  -24.7053  -49.8403 C.2       15 UNK         0.5000 
     88 O          -2.8723  -24.9301  -51.0512 O.2       15 UNK        -0.5000 
     89 N          -2.9747  -23.4834  -49.2948 N.am      16 UNK        -0.5000 
     90 CA         -3.1923  -22.2069  -49.9896 C.3       16 UNK         0.1400 
     91 CB         -4.6357  -22.1298  -50.5260 C.3       16 UNK        -0.1800 
     92 C          -2.1347  -21.9406  -51.0781 C.2       16 UNK         0.5000 
     93 O          -2.4778  -21.7427  -52.2421 O.2       16 UNK        -0.5000 
     94 N          -0.8559  -22.0163  -50.6837 N.am      17 UNK        -0.5000 
     95 CA          0.3347  -21.8625  -51.5338 C.3       17 UNK         0.1400 
     96 CB          0.4077  -20.4337  -52.1099 C.3       17 UNK        -0.1800 
     97 C           0.4522  -22.9373  -52.6388 C.2       17 UNK         0.5000 
     98 O           1.1213  -22.7006  -53.6432 O.2       17 UNK        -0.5000 
     99 N          -0.1942  -24.0920  -52.4216 N.am      18 UNK        -0.5000 
    100 CA        -0.4252  -25.1909  -53.3593 C.3       18 UNK         0.1400 
    101 CB         0.8788  -25.7271  -53.9893 C.3       18 UNK        -0.1800 
    102 C         -1.5012  -24.8078  -54.3931 C.2       18 UNK         0.5000 
    103 O         -1.1875  -24.5062  -55.5456 O.2       18 UNK        -0.5000 
    104 N         -2.7604  -24.8521  -53.9376 N.am      19 UNK        -0.5000 
    105 CA        -3.9971  -24.7328  -54.7166 C.3       19 UNK         0.1400 
    106 CB        -4.0993  -25.8549  -55.7727 C.3       19 UNK        -0.1800 
    107 C         -4.2393  -23.3246  -55.2955 C.2       19 UNK         0.5000 
    108 O         -4.5310  -23.1787  -56.4840 O.2       19 UNK        -0.5000 
    109 N         -4.1543  -22.3182  -54.4170 N.am      20 UNK        -0.5000 
    110 CA        -4.4911  -20.9071  -54.6301 C.3       20 UNK         0.1400 
    111 CB        -5.9727  -20.7333  -55.0251 C.3       20 UNK        -0.1800 
    112 C         -3.5215  -20.1656  -55.5692 C.2       20 UNK         0.5000 
    113 O         -3.9072  -19.1715  -56.1884 O.2       20 UNK        -0.5000 
    114 N         -2.2570  -20.6114  -55.6172 N.am      21 UNK        -0.5000 
    115 CA        -1.1733  -19.9661  -56.3721 C.3       21 UNK         0.1400 
    116 CB         0.0667  -20.8683  -56.3511 C.3       21 UNK        -0.1800 
    117 C         -0.8223  -18.5542  -55.8531 C.2       21 UNK         0.5000 
    118 O         -0.2601  -17.7496  -56.5965 O.2       21 UNK        -0.5000 
    119 N         -1.1954  -18.2776  -54.5985 N.am      22 UNK        -0.5000 
    120 CA        -1.2209  -16.9561  -53.9593 C.3       22 UNK         0.1400 
    121 C         -2.2468  -15.9520  -54.5682 C.2       22 UNK         0.5000 
    122 N         -3.2043  -16.3737  -55.3878 N.am      22 UNK        -0.7600 
    123 O         -2.1677  -14.7587  -54.2913 O.2       22 UNK        -0.5000 
    124 C124       -1.3953  -17.0821  -52.4186 C.3       23 UNK        -0.0398 
    125 S125       -2.7143  -18.2491  -51.9137 S.3       23 UNK        -0.2404 
    126 C126       -4.1497  -17.1535  -51.7088 C.3       23 UNK        -0.0205 
    127 H127       -6.7398  -13.8402  -43.4043 H         1 UNK         0.0600 
    128 H128       -6.3920  -13.9246  -45.1335 H         1 UNK         0.0600 
    129 H129       -7.3114  -12.5642  -44.4847 H         1 UNK         0.0600 
    130 H130       -4.2510  -13.4534  -45.5359 H         1 UNK         0.3000 
    131 H131       -2.9512  -11.0813  -44.5235 H         1 UNK         0.0600 
    132 H132       -2.3972  -11.5842  -46.7666 H         1 UNK         0.0800 
    133 H133       -0.9758  -11.9805  -45.8692 H         1 UNK         0.0800 
    134 H134       -2.7711  -13.2263  -48.9115 H         1 UNK         0.0800 
    135 H135       -4.0476  -13.1000  -47.7277 H         1 UNK         0.0800 
    136 H136       -3.0851  -14.9305  -50.5308 H         1 UNK         0.1150 
    137 H137       -5.5714  -18.3234  -49.7173 H         1 UNK         0.1150 
    138 H138       -4.7677  -15.4662  -46.6255 H         1 UNK         0.1150 
    139 H139       -6.0173  -17.3961  -46.0707 H         1 UNK         0.0800 
    140 H140       -7.1769  -17.6087  -47.3600 H         1 UNK         0.0800 
    141 H141       -3.9193  -18.9350  -45.6870 H         1 UNK         0.0800 
    142 H142       -3.4846  -19.1778  -47.3600 H         1 UNK         0.0800 
    143 H143       -3.9758  -21.6846  -47.0194 H         1 UNK         0.0600 
    144 H144       -1.5972  -20.2807  -46.2988 H         1 UNK         0.3000 
    145 H145        0.4201  -23.2545  -45.9542 H         1 UNK         0.0600 
    146 H146        1.7855  -21.9101  -47.5834 H         1 UNK         0.0600 
    147 H147        0.4758  -22.7864  -48.3519 H         1 UNK         0.0600 
    148 H148        0.3301  -21.0475  -48.0739 H         1 UNK         0.0600 
    149 H149        1.0643  -20.4908  -45.6592 H         1 UNK         0.3000 
    150 H150        0.0842  -20.1225  -42.2706 H         1 UNK         0.0600 
    151 H151        2.2420  -21.2163  -41.9433 H         1 UNK         0.0600 
    152 H152        2.5056  -19.4817  -42.0304 H         1 UNK         0.0600 
    153 H153        2.9004  -20.5114  -43.4075 H         1 UNK         0.0600 
    154 H154        1.4886  -18.5293  -44.2496 H         1 UNK         0.3000 
    155 H155       -1.4775  -16.6687  -45.1191 H         1 UNK         0.0600 
    156 H156        1.2712  -16.1134  -43.8763 H         1 UNK         0.0600 
    157 H157       -0.2698  -15.8120  -43.0874 H         1 UNK         0.0600 
    158 H158        0.1555  -14.9280  -44.5445 H         1 UNK         0.0600 
    159 H159        1.0167  -16.4271  -46.3262 H         1 UNK         0.3000 
    160 H160        0.2062  -18.3087  -49.2953 H         1 UNK         0.0600 
    161 H161        0.7818  -16.0360  -50.0874 H         1 UNK         0.0600 
    162 H162        0.6975  -15.4030  -48.4456 H         1 UNK         0.0600 
    163 H163       -0.7531  -16.0140  -49.2315 H         1 UNK         0.0600 
    164 H164        2.4876  -17.1047  -47.7710 H         1 UNK         0.3000 
    165 H165        4.3751  -20.0337  -48.1304 H         1 UNK         0.0600 
    166 H166        6.1896  -18.6356  -49.0856 H         1 UNK         0.0600 
    167 H167        4.9937  -18.9883  -50.3222 H         1 UNK         0.0600 
    168 H168        5.0244  -17.4002  -49.5650 H         1 UNK         0.0600 
    169 H169        5.1443  -17.5305  -47.0867 H         1 UNK         0.3000 
    170 H170        3.3086  -17.4457  -44.0896 H         1 UNK         0.0600 
    171 H171        5.0714  -19.1256  -43.5141 H         1 UNK         0.0600 
    172 H172        6.2572  -18.2005  -44.4265 H         1 UNK         0.0600 
    173 H173        5.5133  -17.5123  -42.9824 H         1 UNK         0.0600 
    174 H174        5.4707  -15.8556  -44.8393 H         1 UNK         0.3000 
    175 H175        4.9878  -13.6494  -45.3193 H         1 UNK         0.0600 
    176 H176        4.7529  -14.3718  -48.2910 H         1 UNK         0.0600 
    177 H177        5.7431  -13.0730  -47.6266 H         1 UNK         0.0600 
    178 H178        6.1196  -14.7444  -47.2475 H         1 UNK         0.0600 
    179 H179        3.1760  -12.7864  -47.4066 H         1 UNK         0.3000 
    180 H180        2.9203  -13.6941  -43.8533 H         1 UNK         0.0600 
    181 H181        3.4872  -10.6804  -43.5450 H         1 UNK         0.0600 
    182 H182        4.7182  -11.8761  -43.9136 H         1 UNK         0.0600 
    183 H183        3.8884  -11.9297  -42.3701 H         1 UNK         0.0600 
    184 H184        0.7703  -11.8038  -43.9670 H         1 UNK         0.3000 
    185 H185       -0.8709  -13.1655  -41.1889 H         1 UNK         0.0600 
    186 H186        0.3459  -11.4319  -39.8917 H         1 UNK         0.0600 
    187 H187        0.1982  -10.2922  -41.2238 H         1 UNK         0.0600 
    188 H188       -1.2403  -10.8460  -40.3658 H         1 UNK         0.0600 
    189 H189       -1.2096  -10.9555  -43.1193 H         1 UNK         0.3000 
    190 H190       -2.6493  -20.6541  -43.8450 H         1 UNK         0.3000 
    191 H191       -4.8045  -21.5703  -42.2455 H         1 UNK         0.0600 
    192 H192       -3.1792  -21.4650  -40.3942 H         1 UNK         0.0600 
    193 H193       -2.9734  -20.0657  -41.4378 H         1 UNK         0.0600 
    194 H194       -1.8330  -21.4076  -41.5201 H         1 UNK         0.0600 
    195 H195       -1.9908  -23.3024  -43.5668 H         1 UNK         0.3000 
    196 H196       -2.6185  -25.8648  -42.3739 H         1 UNK         0.0600 
    197 H197       -0.7775  -26.6445  -43.8498 H         1 UNK         0.0600 
    198 H198       -0.3048  -25.1740  -43.0149 H         1 UNK         0.0600 
    199 H199       -0.7821  -25.1109  -44.7103 H         1 UNK         0.0600 
    200 H200       -4.2261  -24.1776  -44.7742 H         1 UNK         0.3000 
    201 H201       -5.7646  -24.5729  -46.2673 H         1 UNK         0.0600 
    202 H202       -6.7324  -26.1315  -44.5566 H         1 UNK         0.0600 
    203 H203       -5.8988  -27.4810  -45.3280 H         1 UNK         0.0600 
    204 H204       -7.1379  -26.5934  -46.2003 H         1 UNK         0.0600 
    205 H205       -2.8604  -25.0978  -46.9029 H         1 UNK         0.3000 
    206 H206       -3.0238  -26.7826  -49.3378 H         1 UNK         0.0600 
    207 H207       -0.9853  -26.9255  -47.9168 H         1 UNK         0.0600 
    208 H208       -0.5974  -26.2678  -49.4990 H         1 UNK         0.0600 
    209 H209       -0.7028  -25.1973  -48.1065 H         1 UNK         0.0600 
    210 H210       -2.8906  -23.4290  -48.2859 H         1 UNK         0.3000 
    211 H211       -3.0724  -21.4128  -49.2517 H         1 UNK         0.0600 
    212 H212       -4.8322  -22.8972  -51.2753 H         1 UNK         0.0600 
    213 H213       -4.8292  -21.1606  -50.9880 H         1 UNK         0.0600 
    214 H214       -5.3598  -22.2542  -49.7207 H         1 UNK         0.0600 
    215 H215       -0.6708  -22.2081  -49.7114 H         1 UNK         0.3000 
    216 H216        1.1971  -21.9995  -50.8801 H         1 UNK         0.0600 
    217 H217        1.3809  -20.2409  -52.5621 H         1 UNK         0.0600 
    218 H218        0.2586  -19.6872  -51.3313 H         1 UNK         0.0600 
    219 H219       -0.3477  -20.2730  -52.8774 H         1 UNK         0.0600 
    220 H220       -0.7510  -24.1438  -51.5802 H         1 UNK         0.3000 
    221 H221       -0.8360  -26.0069  -52.7623 H         1 UNK         0.0600 
    222 H222        1.3292  -25.0196  -54.6852 H         1 UNK         0.0600 
    223 H223        1.6182  -25.9645  -53.2246 H         1 UNK         0.0600 
    224 H224        0.6835  -26.6423  -54.5488 H         1 UNK         0.0600 
    225 H225       -2.8912  -25.0179  -52.9415 H         1 UNK         0.3000 
    226 H226       -4.8066  -24.8978  -54.0039 H         1 UNK         0.0600 
    227 H227       -5.0782  -25.8487  -56.2535 H         1 UNK         0.0600 
    228 H228       -3.3513  -25.7457  -56.5584 H         1 UNK         0.0600 
    229 H229       -3.9689  -26.8371  -55.3186 H         1 UNK         0.0600 
    230 H230       -3.7734  -22.5134  -53.4958 H         1 UNK         0.3000 
    231 H231       -4.3688  -20.4289  -53.6574 H         1 UNK         0.0600 
    232 H232       -6.6299  -21.2565  -54.3305 H         1 UNK         0.0600 
    233 H233       -6.1734  -21.1098  -56.0283 H         1 UNK         0.0600 
    234 H234       -6.2600  -19.6813  -55.0095 H         1 UNK         0.0600 
    235 H235       -2.0166  -21.4277  -55.0719 H         1 UNK         0.3000 
    236 H236       -1.5058  -19.8649  -57.4071 H         1 UNK         0.0600 
    237 H237       -0.1705  -21.8859  -56.6629 H         1 UNK         0.0600 
    238 H238        0.8346  -20.4892  -57.0263 H         1 UNK         0.0600 
    239 H239        0.5045  -20.9123  -55.3550 H         1 UNK         0.0600 
    240 H240       -1.6528  -19.0085  -54.0730 H         1 UNK         0.3000 
    241 H241       -0.2422  -16.5064  -54.1360 H         1 UNK         0.0600 
    242 H242       -3.8497  -15.7028  -55.7725 H         1 UNK         0.3800 
    243 H243       -3.3044  -17.3533  -55.6314 H         1 UNK         0.3800 
    244 H244       -0.4638  -17.4539  -51.9916 H         1 UNK         0.0800 
    245 H245       -1.5522  -16.1098  -51.9498 H         1 UNK         0.0800 
    246 H246       -5.0448  -17.6988  -52.0117 H         1 UNK         0.0800 
    247 H247       -4.0821  -16.2971  -52.3799 H         1 UNK         0.0800 
@<TRIPOS>BOND
     1    1    2 1    
     2    1  127 1    
     3    1  128 1    
     4    1  129 1    
     5    2    3 2    
     6    2    4 am   BACKBONE|DICT|INTERRES
     7    4    5 1    
     8    4  130 1    
     9    5    6 1    
    10    5   65 1    
    11    5  131 1    
    12    6    7 1    
    13    6  132 1    
    14    6  133 1    
    15    7    8 1    
    16    8    9 1    
    17    8  134 1    
    18    8  135 1    
    19    9   10 ar   
    20    9   14 ar   
    21   10   11 ar   
    22   10  136 1    
    23   11   12 ar   
    24   11  126 1    
    25   12   13 ar   
    26   12  137 1    
    27   13   14 ar   
    28   13   15 1    
    29   14  138 1    
    30   15   16 1    
    31   15  139 1    
    32   15  140 1    
    33   16   17 1    
    34   17   18 1    
    35   17  141 1    
    36   17  142 1    
    37   18   19 1    
    38   18   67 1    
    39   18  143 1    
    40   19   20 am   BACKBONE|DICT|INTERRES
    41   19  144 1    
    42   20   21 2    
    43   20   22 1    
    44   22   23 1    
    45   22   24 1    
    46   22  145 1    
    47   23  146 1    
    48   23  147 1    
    49   23  148 1    
    50   24   25 am   BACKBONE|DICT|INTERRES
    51   24  149 1    
    52   25   26 2    
    53   25   27 1    
    54   27   28 1    
    55   27   29 1    
    56   27  150 1    
    57   28  151 1    
    58   28  152 1    
    59   28  153 1    
    60   29   30 am   BACKBONE|DICT|INTERRES
    61   29  154 1    
    62   30   31 2    
    63   30   32 1    
    64   32   33 1    
    65   32   34 1    
    66   32  155 1    
    67   33  156 1    
    68   33  157 1    
    69   33  158 1    
    70   34   35 am   BACKBONE|DICT|INTERRES
    71   34  159 1    
    72   35   36 2    
    73   35   37 1    
    74   37   38 1    
    75   37   39 1    
    76   37  160 1    
    77   38  161 1    
    78   38  162 1    
    79   38  163 1    
    80   39   40 am   BACKBONE|DICT|INTERRES
    81   39  164 1    
    82   40   41 2    
    83   40   42 1    
    84   42   43 1    
    85   42   44 1    
    86   42  165 1    
    87   43  166 1    
    88   43  167 1    
    89   43  168 1    
    90   44   45 am   BACKBONE|DICT|INTERRES
    91   44  169 1    
    92   45   46 2    
    93   45   47 1    
    94   47   48 1    
    95   47   49 1    
    96   47  170 1    
    97   48  171 1    
    98   48  172 1    
    99   48  173 1    
   100   49   50 am   BACKBONE|DICT|INTERRES
   101   49  174 1    
   102   50   51 2    
   103   50   52 1    
   104   52   53 1    
   105   52   54 1    
   106   52  175 1    
   107   53  176 1    
   108   53  177 1    
   109   53  178 1    
   110   54   55 am   BACKBONE|DICT|INTERRES
   111   54  179 1    
   112   55   56 2    
   113   55   57 1    
   114   57   58 1    
   115   57   59 1    
   116   57  180 1    
   117   58  181 1    
   118   58  182 1    
   119   58  183 1    
   120   59   60 am   BACKBONE|DICT|INTERRES
   121   59  184 1    
   122   60   61 2    
   123   60   62 1    
   124   62   63 1    
   125   62   64 1    
   126   62  185 1    
   127   63  186 1    
   128   63  187 1    
   129   63  188 1    
   130   64   65 am   BACKBONE|DICT|INTERRES
   131   64  189 1    
   132   65   66 2    
   133   67   68 2    
   134   67   69 am   BACKBONE|DICT|INTERRES
   135   69   70 1    
   136   69  190 1    
   137   70   71 1    
   138   70   72 1    
   139   70  191 1    
   140   71  192 1    
   141   71  193 1    
   142   71  194 1    
   143   72   73 2    
   144   72   74 am   BACKBONE|DICT|INTERRES
   145   74   75 1    
   146   74  195 1    
   147   75   76 1    
   148   75   77 1    
   149   75  196 1    
   150   76  197 1    
   151   76  198 1    
   152   76  199 1    
   153   77   78 2    
   154   77   79 am   BACKBONE|DICT|INTERRES
   155   79   80 1    
   156   79  200 1    
   157   80   81 1    
   158   80   82 1    
   159   80  201 1    
   160   81  202 1    
   161   81  203 1    
   162   81  204 1    
   163   82   83 2    
   164   82   84 am   BACKBONE|DICT|INTERRES
   165   84   85 1    
   166   84  205 1    
   167   85   86 1    
   168   85   87 1    
   169   85  206 1    
   170   86  207 1    
   171   86  208 1    
   172   86  209 1    
   173   87   88 2    
   174   87   89 am   BACKBONE|DICT|INTERRES
   175   89   90 1    
   176   89  210 1    
   177   90   91 1    
   178   90   92 1    
   179   90  211 1    
   180   91  212 1    
   181   91  213 1    
   182   91  214 1    
   183   92   93 2    
   184   92   94 am   BACKBONE|DICT|INTERRES
   185   94   95 1    
   186   94  215 1    
   187   95   96 1    
   188   95   97 1    
   189   95  216 1    
   190   96  217 1    
   191   96  218 1    
   192   96  219 1    
   193   97   98 2    
   194   97   99 am   BACKBONE|DICT|INTERRES
   195   99  100 1    
   196   99  220 1    
   197  100  101 1    
   198  100  102 1    
   199  100  221 1    
   200  101  222 1    
   201  101  223 1    
   202  101  224 1    
   203  102  103 2    
   204  102  104 am   BACKBONE|DICT|INTERRES
   205  104  105 1    
   206  104  225 1    
   207  105  106 1    
   208  105  107 1    
   209  105  226 1    
   210  106  227 1    
   211  106  228 1    
   212  106  229 1    
   213  107  108 2    
   214  107  109 am   BACKBONE|DICT|INTERRES
   215  109  110 1    
   216  109  230 1    
   217  110  111 1    
   218  110  112 1    
   219  110  231 1    
   220  111  232 1    
   221  111  233 1    
   222  111  234 1    
   223  112  113 2    
   224  112  114 am   BACKBONE|DICT|INTERRES
   225  114  115 1    
   226  114  235 1    
   227  115  116 1    
   228  115  117 1    
   229  115  236 1    
   230  116  237 1    
   231  116  238 1    
   232  116  239 1    
   233  117  118 2    
   234  117  119 am   BACKBONE|DICT|INTERRES
   235  119  120 1    
   236  119  240 1    
   237  120  121 1    
   238  120  124 1    
   239  120  241 1    
   240  121  122 am   BACKBONE|DICT|INTERRES
   241  121  123 2    
   242  122  242 1    
   243  122  243 1    
   244  124  125 1    
   245  124  244 1    
   246  124  245 1    
   247  125  126 1    
   248  126  246 1    
   249  126  247 1    
@<TRIPOS>SUBSTRUCTURE
     1 UNK         1 GROUP             0       ****    0 ROOT    
