@<TRIPOS>MOLECULE
3R540
247   249    1
SMALL
USER_CHARGES


@<TRIPOS>ATOM
      1 CA          5.1208  -13.6655  -46.5254 C.3       0 UNK        -0.1800 
      2 C           4.7857  -14.4289  -47.7991 C.2       0 UNK         0.5000 
      3 O           5.6856  -14.7818  -48.5607 O.2       0 UNK        -0.5000 
      4 N           3.4931  -14.6892  -48.0287 N.am      1 UNK        -0.5000 
      5 CA          2.9691  -15.4703  -49.1581 C.3       1 UNK         0.1400 
      6 C6          1.5180  -15.0590  -49.5189 C.3       23 UNK        -0.0398 
      7 S7          0.3624  -15.0586  -48.1015 S.3       23 UNK        -0.2404 
      8 C8         -1.0277  -14.0780  -48.7482 C.3       23 UNK        -0.0205 
      9 C9         -2.1243  -14.9510  -49.3428 C.ar      23 UNK        -0.0193 
     10 C10        -1.9432  -15.5695  -50.5837 C.ar      23 UNK        -0.1150 
     11 C11        -2.9571  -16.3503  -51.1449 C.ar      23 UNK        -0.0193 
     12 C12        -4.1708  -16.4884  -50.4672 C.ar      23 UNK        -0.1150 
     13 C13        -4.3744  -15.8591  -49.2360 C.ar      23 UNK        -0.0193 
     14 C14        -3.3407  -15.1079  -48.6689 C.ar      23 UNK        -0.1150 
     15 C15        -5.7351  -15.9440  -48.5607 C.3       23 UNK        -0.0205 
     16 S16        -6.0983  -17.6155  -47.9438 S.3       23 UNK        -0.2404 
     17 C17        -5.4269  -17.5676  -46.2429 C.3       23 UNK        -0.0398 
     18 CA         -4.0297  -18.2182  -46.0259 C.3       11 UNK         0.1400 
     19 N          -3.6260  -18.2225  -44.6119 N.am      11 UNK        -0.5000 
     20 C          -4.2557  -18.7846  -43.5671 C.2       10 UNK         0.5000 
     21 O          -5.2727  -19.4706  -43.6771 O.2       10 UNK        -0.5000 
     22 CA         -3.6636  -18.5659  -42.1602 C.3       10 UNK         0.1400 
     23 CB         -3.0106  -19.8582  -41.6456 C.3       10 UNK        -0.1800 
     24 N          -2.6961  -17.4700  -42.0899 N.am      10 UNK        -0.5000 
     25 C          -3.0046  -16.1688  -42.1835 C.2       9 UNK         0.5000 
     26 O          -4.1574  -15.7454  -42.2746 O.2       9 UNK        -0.5000 
     27 CA         -1.8279  -15.1741  -42.2154 C.3       9 UNK         0.1400 
     28 CB         -1.4543  -14.7348  -40.7919 C.3       9 UNK        -0.1800 
     29 N          -0.6387  -15.7007  -42.8904 N.am      9 UNK        -0.5000 
     30 C          -0.5822  -16.0515  -44.1841 C.2       8 UNK         0.5000 
     31 O          -1.5311  -15.9533  -44.9616 O.2       8 UNK        -0.5000 
     32 CA          0.7360  -16.6809  -44.6678 C.3       8 UNK         0.1400 
     33 CB          1.8389  -15.6215  -44.8250 C.3       8 UNK        -0.1800 
     34 N           1.2007  -17.7268  -43.7596 N.am      8 UNK        -0.5000 
     35 C           0.5632  -18.8811  -43.5201 C.2       7 UNK         0.5000 
     36 O          -0.4678  -19.2287  -44.0962 O.2       7 UNK        -0.5000 
     37 CA          1.1617  -19.7748  -42.4175 C.3       7 UNK         0.1400 
     38 CB          2.2900  -20.6656  -42.9611 C.3       7 UNK        -0.1800 
     39 N           1.6743  -18.9895  -41.2947 N.am      7 UNK        -0.5000 
     40 C           0.9105  -18.3067  -40.4309 C.2       6 UNK         0.5000 
     41 O          -0.3186  -18.2907  -40.4689 O.2       6 UNK        -0.5000 
     42 CA          1.6515  -17.4687  -39.3735 C.3       6 UNK         0.1400 
     43 CB          2.0564  -18.3411  -38.1760 C.3       6 UNK        -0.1800 
     44 N           2.8396  -16.8102  -39.9192 N.am      6 UNK        -0.5000 
     45 C           2.8047  -15.8279  -40.8307 C.2       5 UNK         0.5000 
     46 O           1.7633  -15.3443  -41.2723 O.2       5 UNK        -0.5000 
     47 CA          4.1603  -15.3418  -41.3766 C.3       5 UNK         0.1400 
     48 CB          4.7466  -14.2475  -40.4726 C.3       5 UNK        -0.1800 
     49 N           5.1389  -16.4221  -41.5335 N.am      5 UNK        -0.5000 
     50 C           4.9969  -17.4570  -42.3712 C.2       4 UNK         0.5000 
     51 O           4.0101  -17.6261  -43.0923 O.2       4 UNK        -0.5000 
     52 CA          6.1183  -18.5015  -42.3651 C.3       4 UNK         0.1400 
     53 CB          5.9061  -19.5232  -41.2352 C.3       4 UNK        -0.1800 
     54 N           6.1201  -19.1916  -43.6493 N.am      4 UNK        -0.5000 
     55 C           7.2066  -19.6271  -44.2953 C.2       3 UNK         0.5000 
     56 O           8.3459  -19.5518  -43.8321 O.2       3 UNK        -0.5000 
     57 CA          7.0064  -20.2604  -45.6901 C.3       3 UNK         0.1400 
     58 CB          7.2229  -21.7808  -45.6205 C.3       3 UNK        -0.1800 
     59 N           5.7033  -20.0056  -46.3154 N.am      3 UNK        -0.5000 
     60 C           5.2527  -18.8105  -46.7182 C.2       2 UNK         0.5000 
     61 O           5.8712  -17.7566  -46.5496 O.2       2 UNK        -0.5000 
     62 CA          3.8788  -18.8024  -47.4131 C.3       2 UNK         0.1400 
     63 CB          2.7875  -19.3768  -46.4949 C.3       2 UNK        -0.1800 
     64 N           3.5332  -17.4287  -47.7652 N.am      2 UNK        -0.5000 
     65 C           3.1162  -16.9995  -48.9620 C.2       1 UNK         0.5000 
     66 O           2.8681  -17.7533  -49.9039 O.2       1 UNK        -0.5000 
     67 C          -3.8770  -19.5972  -46.7071 C.2       11 UNK         0.5000 
     68 O          -3.3280  -19.6635  -47.8057 O.2       11 UNK        -0.5000 
     69 N          -4.3439  -20.6713  -46.0571 N.am      12 UNK        -0.5000 
     70 CA         -4.4342  -22.0335  -46.5893 C.3       12 UNK         0.1400 
     71 CB         -5.0369  -22.9527  -45.5175 C.3       12 UNK        -0.1800 
     72 C          -3.1096  -22.6178  -47.1128 C.2       12 UNK         0.5000 
     73 O          -3.1300  -23.3631  -48.0923 O.2       12 UNK        -0.5000 
     74 N          -1.9874  -22.2575  -46.4763 N.am      13 UNK        -0.5000 
     75 CA         -0.6454  -22.6632  -46.8944 C.3       13 UNK         0.1400 
     76 CB          0.3422  -22.3956  -45.7525 C.3       13 UNK        -0.1800 
     77 C          -0.1872  -21.9443  -48.1757 C.2       13 UNK         0.5000 
     78 O           0.4237  -22.5729  -49.0393 O.2       13 UNK        -0.5000 
     79 N          -0.5113  -20.6490  -48.2840 N.am      14 UNK        -0.5000 
     80 CA         -0.2125  -19.8097  -49.4445 C.3       14 UNK         0.1400 
     81 CB         -0.3864  -18.3368  -49.0576 C.3       14 UNK        -0.1800 
     82 C          -1.1087  -20.1567  -50.6442 C.2       14 UNK         0.5000 
     83 O          -0.6294  -20.2126  -51.7760 O.2       14 UNK        -0.5000 
     84 N          -2.3891  -20.4210  -50.3565 N.am      15 UNK        -0.5000 
     85 CA         -3.4054  -20.8595  -51.3090 C.3       15 UNK         0.1400 
     86 CB         -4.7885  -20.6130  -50.6857 C.3       15 UNK        -0.1800 
     87 C          -3.2603  -22.3346  -51.7331 C.2       15 UNK         0.5000 
     88 O          -4.0003  -22.7710  -52.6141 O.2       15 UNK        -0.5000 
     89 N          -2.3544  -23.0850  -51.0874 N.am      16 UNK        -0.5000 
     90 CA         -2.0496  -24.5031  -51.3063 C.3       16 UNK         0.1400 
     91 CB         -1.3573  -24.6948  -52.6719 C.3       16 UNK        -0.1800 
     92 C          -3.2919  -25.4009  -51.1350 C.2       16 UNK         0.5000 
     93 O          -3.6139  -26.1914  -52.0216 O.2       16 UNK        -0.5000 
     94 N          -4.0101  -25.2077  -50.0191 N.am      17 UNK        -0.5000 
     95 CA         -5.3005  -25.8285  -49.6881 C.3       17 UNK         0.1400 
     96 CB         -5.1367  -27.3425  -49.4408 C.3       17 UNK        -0.1800 
     97 C          -6.4009  -25.4967  -50.7227 C.2       17 UNK         0.5000 
     98 O          -7.2455  -26.3387  -51.0305 O.2       17 UNK        -0.5000 
     99 N          -6.3403  -24.2634  -51.2446 N.am      18 UNK        -0.5000 
    100 CA        -7.1816  -23.6612  -52.2829 C.3       18 UNK         0.1400 
    101 CB        -8.6743  -23.6801  -51.8943 C.3       18 UNK        -0.1800 
    102 C         -6.9288  -24.1948  -53.7094 C.2       18 UNK         0.5000 
    103 O         -7.6821  -23.8415  -54.6180 O.2       18 UNK        -0.5000 
    104 N         -5.8644  -24.9858  -53.9148 N.am      19 UNK        -0.5000 
    105 CA        -5.4400  -25.4561  -55.2376 C.3       19 UNK         0.1400 
    106 CB        -4.5037  -26.6630  -55.0796 C.3       19 UNK        -0.1800 
    107 C         -4.7565  -24.3566  -56.0757 C.2       19 UNK         0.5000 
    108 O         -4.7412  -24.4574  -57.3031 O.2       19 UNK        -0.5000 
    109 N         -4.2118  -23.3324  -55.4087 N.am      20 UNK        -0.5000 
    110 CA        -3.5430  -22.1788  -56.0030 C.3       20 UNK         0.1400 
    111 CB        -2.0182  -22.3748  -55.9104 C.3       20 UNK        -0.1800 
    112 C         -4.0297  -20.8985  -55.3019 C.2       20 UNK         0.5000 
    113 O         -3.2188  -20.0583  -54.9091 O.2       20 UNK        -0.5000 
    114 N         -5.3540  -20.7965  -55.1163 N.am      21 UNK        -0.5000 
    115 CA        -6.0286  -19.6834  -54.4492 C.3       21 UNK         0.1400 
    116 CB        -7.5275  -20.0001  -54.3346 C.3       21 UNK        -0.1800 
    117 C         -5.8134  -18.3367  -55.1662 C.2       21 UNK         0.5000 
    118 O         -5.8351  -18.2829  -56.3984 O.2       21 UNK        -0.5000 
    119 N         -5.6328  -17.2793  -54.3693 N.am      22 UNK        -0.5000 
    120 CA        -5.3766  -15.9051  -54.8318 C.3       22 UNK         0.1400 
    121 C         -6.6689  -15.0702  -55.0771 C.2       22 UNK         0.5000 
    122 N         -7.8628  -15.5875  -54.8126 N.am      22 UNK        -0.7600 
    123 O         -6.5894  -13.9322  -55.5315 O.2       22 UNK        -0.5000 
    124 C124       -4.4023  -15.1681  -53.8753 C.3       23 UNK        -0.0398 
    125 S125       -2.7189  -15.8823  -53.8858 S.3       23 UNK        -0.2404 
    126 C126       -2.7412  -17.0448  -52.4813 C.3       23 UNK        -0.0205 
    127 H127        5.7676  -14.2689  -45.8881 H         1 UNK         0.0600 
    128 H128        4.2257  -13.4120  -45.9566 H         1 UNK         0.0600 
    129 H129        5.6441  -12.7405  -46.7676 H         1 UNK         0.0600 
    130 H130        2.7913  -14.3578  -47.3819 H         1 UNK         0.3000 
    131 H131        3.5807  -15.2348  -50.0318 H         1 UNK         0.0600 
    132 H132        1.1223  -15.6938  -50.3118 H         1 UNK         0.0800 
    133 H133        1.5396  -14.0514  -49.9358 H         1 UNK         0.0800 
    134 H134       -0.6790  -13.3633  -49.4946 H         1 UNK         0.0800 
    135 H135       -1.4294  -13.4810  -47.9282 H         1 UNK         0.0800 
    136 H136       -1.0136  -15.4438  -51.1186 H         1 UNK         0.1150 
    137 H137       -4.9678  -17.0750  -50.9006 H         1 UNK         0.1150 
    138 H138       -3.4928  -14.6204  -47.7161 H         1 UNK         0.1150 
    139 H139       -5.8237  -15.2131  -47.7559 H         1 UNK         0.0800 
    140 H140       -6.4998  -15.6753  -49.2909 H         1 UNK         0.0800 
    141 H141       -6.1722  -18.0638  -45.6217 H         1 UNK         0.0800 
    142 H142       -5.4021  -16.5358  -45.8910 H         1 UNK         0.0800 
    143 H143       -3.3053  -17.5688  -46.5212 H         1 UNK         0.0600 
    144 H144       -2.7773  -17.7037  -44.4194 H         1 UNK         0.3000 
    145 H145       -4.4958  -18.3235  -41.4961 H         1 UNK         0.0600 
    146 H146       -2.6572  -19.7410  -40.6211 H         1 UNK         0.0600 
    147 H147       -3.7221  -20.6850  -41.6482 H         1 UNK         0.0600 
    148 H148       -2.1628  -20.1557  -42.2617 H         1 UNK         0.0600 
    149 H149       -1.7279  -17.7300  -41.9406 H         1 UNK         0.3000 
    150 H150       -2.1579  -14.2925  -42.7685 H         1 UNK         0.0600 
    151 H151       -2.3175  -14.3192  -40.2707 H         1 UNK         0.0600 
    152 H152       -0.6822  -13.9654  -40.8067 H         1 UNK         0.0600 
    153 H153       -1.0823  -15.5706  -40.1985 H         1 UNK         0.0600 
    154 H154        0.2026  -15.7779  -42.3253 H         1 UNK         0.3000 
    155 H155        0.5539  -17.1345  -45.6445 H         1 UNK         0.0600 
    156 H156        2.1126  -15.1778  -43.8697 H         1 UNK         0.0600 
    157 H157        1.5154  -14.8064  -45.4707 H         1 UNK         0.0600 
    158 H158        2.7400  -16.0531  -45.2598 H         1 UNK         0.0600 
    159 H159        2.0855  -17.5587  -43.2908 H         1 UNK         0.3000 
    160 H160        0.3661  -20.4235  -42.0453 H         1 UNK         0.0600 
    161 H161        2.6912  -21.3113  -42.1800 H         1 UNK         0.0600 
    162 H162        3.1152  -20.0812  -43.3655 H         1 UNK         0.0600 
    163 H163        1.9313  -21.3146  -43.7571 H         1 UNK         0.0600 
    164 H164        2.6764  -18.9091  -41.2186 H         1 UNK         0.3000 
    165 H165        0.9654  -16.6969  -39.0180 H         1 UNK         0.0600 
    166 H166        2.5165  -17.7420  -37.3900 H         1 UNK         0.0600 
    167 H167        1.1856  -18.8331  -37.7404 H         1 UNK         0.0600 
    168 H168        2.7643  -19.1197  -38.4631 H         1 UNK         0.0600 
    169 H169        3.7376  -17.1465  -39.6048 H         1 UNK         0.3000 
    170 H170        3.9833  -14.9073  -42.3624 H         1 UNK         0.0600 
    171 H171        4.0442  -13.4211  -40.3552 H         1 UNK         0.0600 
    172 H172        4.9769  -14.6268  -39.4763 H         1 UNK         0.0600 
    173 H173        5.6628  -13.8354  -40.8959 H         1 UNK         0.0600 
    174 H174        5.9731  -16.3584  -40.9677 H         1 UNK         0.3000 
    175 H175        7.0674  -17.9817  -42.2177 H         1 UNK         0.0600 
    176 H176        4.9645  -20.0614  -41.3500 H         1 UNK         0.0600 
    177 H177        6.7096  -20.2596  -41.2167 H         1 UNK         0.0600 
    178 H178        5.8917  -19.0359  -40.2597 H         1 UNK         0.0600 
    179 H179        5.2250  -19.2113  -44.1187 H         1 UNK         0.3000 
    180 H180        7.7734  -19.8380  -46.3425 H         1 UNK         0.0600 
    181 H181        6.4697  -22.2649  -44.9975 H         1 UNK         0.0600 
    182 H182        8.2001  -22.0199  -45.1987 H         1 UNK         0.0600 
    183 H183        7.1817  -22.2323  -46.6119 H         1 UNK         0.0600 
    184 H184        5.1316  -20.8206  -46.4832 H         1 UNK         0.3000 
    185 H185        3.9561  -19.4181  -48.3114 H         1 UNK         0.0600 
    186 H186        2.9315  -20.4430  -46.3195 H         1 UNK         0.0600 
    187 H187        2.7984  -18.8801  -45.5271 H         1 UNK         0.0600 
    188 H188        1.7945  -19.2551  -46.9247 H         1 UNK         0.0600 
    189 H189        3.8191  -16.7346  -47.0892 H         1 UNK         0.3000 
    190 H190       -4.7747  -20.5042  -45.1516 H         1 UNK         0.3000 
    191 H191       -5.1253  -22.0006  -47.4334 H         1 UNK         0.0600 
    192 H192       -5.1417  -23.9731  -45.8891 H         1 UNK         0.0600 
    193 H193       -6.0291  -22.6131  -45.2194 H         1 UNK         0.0600 
    194 H194       -4.4130  -22.9895  -44.6236 H         1 UNK         0.0600 
    195 H195       -2.0570  -21.6324  -45.6862 H         1 UNK         0.3000 
    196 H196       -0.6544  -23.7371  -47.0936 H         1 UNK         0.0600 
    197 H197        1.3451  -22.7348  -46.0149 H         1 UNK         0.0600 
    198 H198        0.0484  -22.9172  -44.8415 H         1 UNK         0.0600 
    199 H199        0.4038  -21.3311  -45.5282 H         1 UNK         0.0600 
    200 H200       -1.0869  -20.2316  -47.5660 H         1 UNK         0.3000 
    201 H201        0.8289  -19.9690  -49.7326 H         1 UNK         0.0600 
    202 H202        0.2440  -18.0702  -48.2108 H         1 UNK         0.0600 
    203 H203       -1.4168  -18.0956  -48.7946 H         1 UNK         0.0600 
    204 H204       -0.1044  -17.6924  -49.8892 H         1 UNK         0.0600 
    205 H205       -2.7022  -20.2788  -49.3972 H         1 UNK         0.3000 
    206 H206       -3.3179  -20.2509  -52.2099 H         1 UNK         0.0600 
    207 H207       -4.9139  -19.5670  -50.4055 H         1 UNK         0.0600 
    208 H208       -5.5885  -20.8593  -51.3829 H         1 UNK         0.0600 
    209 H209       -4.9359  -21.2155  -49.7890 H         1 UNK         0.0600 
    210 H210       -1.8300  -22.6395  -50.3478 H         1 UNK         0.3000 
    211 H211       -1.3431  -24.7938  -50.5275 H         1 UNK         0.0600 
    212 H212       -0.4826  -24.0512  -52.7642 H         1 UNK         0.0600 
    213 H213       -2.0278  -24.4699  -53.5018 H         1 UNK         0.0600 
    214 H214       -1.0192  -25.7241  -52.7964 H         1 UNK         0.0600 
    215 H215       -3.6657  -24.5236  -49.3449 H         1 UNK         0.3000 
    216 H216       -5.6221  -25.3757  -48.7491 H         1 UNK         0.0600 
    217 H217       -6.0607  -27.7779  -49.0589 H         1 UNK         0.0600 
    218 H218       -4.3579  -27.5388  -48.7040 H         1 UNK         0.0600 
    219 H219       -4.8774  -27.8781  -50.3544 H         1 UNK         0.0600 
    220 H220       -5.5576  -23.6924  -50.9594 H         1 UNK         0.3000 
    221 H221       -6.8776  -22.6156  -52.3164 H         1 UNK         0.0600 
    222 H222       -9.0918  -24.6864  -51.9302 H         1 UNK         0.0600 
    223 H223       -8.8261  -23.2868  -50.8893 H         1 UNK         0.0600 
    224 H224       -9.2621  -23.0624  -52.5742 H         1 UNK         0.0600 
    225 H225       -5.2663  -25.2272  -53.1334 H         1 UNK         0.3000 
    226 H226       -6.3251  -25.7885  -55.7840 H         1 UNK         0.0600 
    227 H227       -4.2869  -27.1148  -56.0482 H         1 UNK         0.0600 
    228 H228       -3.5499  -26.3765  -54.6355 H         1 UNK         0.0600 
    229 H229       -4.9504  -27.4344  -54.4520 H         1 UNK         0.0600 
    230 H230       -4.2768  -23.3110  -54.3924 H         1 UNK         0.3000 
    231 H231       -3.8169  -22.0818  -57.0553 H         1 UNK         0.0600 
    232 H232       -1.7079  -23.2975  -56.4008 H         1 UNK         0.0600 
    233 H233       -1.6832  -22.4167  -54.8731 H         1 UNK         0.0600 
    234 H234       -1.4879  -21.5543  -56.3950 H         1 UNK         0.0600 
    235 H235       -5.9451  -21.5299  -55.4794 H         1 UNK         0.3000 
    236 H236       -5.6134  -19.6100  -53.4428 H         1 UNK         0.0600 
    237 H237       -7.6990  -20.9260  -53.7872 H         1 UNK         0.0600 
    238 H238       -8.0562  -19.2085  -53.8025 H         1 UNK         0.0600 
    239 H239       -7.9915  -20.1029  -55.3164 H         1 UNK         0.0600 
    240 H240       -5.6700  -17.4033  -53.3696 H         1 UNK         0.3000 
    241 H241       -4.8876  -15.9580  -55.8065 H         1 UNK         0.0600 
    242 H242       -7.9504  -16.5239  -54.4535 H         1 UNK         0.3800 
    243 H243       -8.6900  -15.0369  -54.9834 H         1 UNK         0.3800 
    244 H244       -4.2907  -14.1250  -54.1762 H         1 UNK         0.0800 
    245 H245       -4.8008  -15.1393  -52.8612 H         1 UNK         0.0800 
    246 H246       -1.7878  -17.5744  -52.4541 H         1 UNK         0.0800 
    247 H247       -3.4988  -17.8095  -52.6515 H         1 UNK         0.0800 
@<TRIPOS>BOND
     1    1    2 1    
     2    1  127 1    
     3    1  128 1    
     4    1  129 1    
     5    2    3 2    
     6    2    4 am   BACKBONE|DICT|INTERRES
     7    4    5 1    
     8    4  130 1    
     9    5    6 1    
    10    5   65 1    
    11    5  131 1    
    12    6    7 1    
    13    6  132 1    
    14    6  133 1    
    15    7    8 1    
    16    8    9 1    
    17    8  134 1    
    18    8  135 1    
    19    9   10 ar   
    20    9   14 ar   
    21   10   11 ar   
    22   10  136 1    
    23   11   12 ar   
    24   11  126 1    
    25   12   13 ar   
    26   12  137 1    
    27   13   14 ar   
    28   13   15 1    
    29   14  138 1    
    30   15   16 1    
    31   15  139 1    
    32   15  140 1    
    33   16   17 1    
    34   17   18 1    
    35   17  141 1    
    36   17  142 1    
    37   18   19 1    
    38   18   67 1    
    39   18  143 1    
    40   19   20 am   BACKBONE|DICT|INTERRES
    41   19  144 1    
    42   20   21 2    
    43   20   22 1    
    44   22   23 1    
    45   22   24 1    
    46   22  145 1    
    47   23  146 1    
    48   23  147 1    
    49   23  148 1    
    50   24   25 am   BACKBONE|DICT|INTERRES
    51   24  149 1    
    52   25   26 2    
    53   25   27 1    
    54   27   28 1    
    55   27   29 1    
    56   27  150 1    
    57   28  151 1    
    58   28  152 1    
    59   28  153 1    
    60   29   30 am   BACKBONE|DICT|INTERRES
    61   29  154 1    
    62   30   31 2    
    63   30   32 1    
    64   32   33 1    
    65   32   34 1    
    66   32  155 1    
    67   33  156 1    
    68   33  157 1    
    69   33  158 1    
    70   34   35 am   BACKBONE|DICT|INTERRES
    71   34  159 1    
    72   35   36 2    
    73   35   37 1    
    74   37   38 1    
    75   37   39 1    
    76   37  160 1    
    77   38  161 1    
    78   38  162 1    
    79   38  163 1    
    80   39   40 am   BACKBONE|DICT|INTERRES
    81   39  164 1    
    82   40   41 2    
    83   40   42 1    
    84   42   43 1    
    85   42   44 1    
    86   42  165 1    
    87   43  166 1    
    88   43  167 1    
    89   43  168 1    
    90   44   45 am   BACKBONE|DICT|INTERRES
    91   44  169 1    
    92   45   46 2    
    93   45   47 1    
    94   47   48 1    
    95   47   49 1    
    96   47  170 1    
    97   48  171 1    
    98   48  172 1    
    99   48  173 1    
   100   49   50 am   BACKBONE|DICT|INTERRES
   101   49  174 1    
   102   50   51 2    
   103   50   52 1    
   104   52   53 1    
   105   52   54 1    
   106   52  175 1    
   107   53  176 1    
   108   53  177 1    
   109   53  178 1    
   110   54   55 am   BACKBONE|DICT|INTERRES
   111   54  179 1    
   112   55   56 2    
   113   55   57 1    
   114   57   58 1    
   115   57   59 1    
   116   57  180 1    
   117   58  181 1    
   118   58  182 1    
   119   58  183 1    
   120   59   60 am   BACKBONE|DICT|INTERRES
   121   59  184 1    
   122   60   61 2    
   123   60   62 1    
   124   62   63 1    
   125   62   64 1    
   126   62  185 1    
   127   63  186 1    
   128   63  187 1    
   129   63  188 1    
   130   64   65 am   BACKBONE|DICT|INTERRES
   131   64  189 1    
   132   65   66 2    
   133   67   68 2    
   134   67   69 am   BACKBONE|DICT|INTERRES
   135   69   70 1    
   136   69  190 1    
   137   70   71 1    
   138   70   72 1    
   139   70  191 1    
   140   71  192 1    
   141   71  193 1    
   142   71  194 1    
   143   72   73 2    
   144   72   74 am   BACKBONE|DICT|INTERRES
   145   74   75 1    
   146   74  195 1    
   147   75   76 1    
   148   75   77 1    
   149   75  196 1    
   150   76  197 1    
   151   76  198 1    
   152   76  199 1    
   153   77   78 2    
   154   77   79 am   BACKBONE|DICT|INTERRES
   155   79   80 1    
   156   79  200 1    
   157   80   81 1    
   158   80   82 1    
   159   80  201 1    
   160   81  202 1    
   161   81  203 1    
   162   81  204 1    
   163   82   83 2    
   164   82   84 am   BACKBONE|DICT|INTERRES
   165   84   85 1    
   166   84  205 1    
   167   85   86 1    
   168   85   87 1    
   169   85  206 1    
   170   86  207 1    
   171   86  208 1    
   172   86  209 1    
   173   87   88 2    
   174   87   89 am   BACKBONE|DICT|INTERRES
   175   89   90 1    
   176   89  210 1    
   177   90   91 1    
   178   90   92 1    
   179   90  211 1    
   180   91  212 1    
   181   91  213 1    
   182   91  214 1    
   183   92   93 2    
   184   92   94 am   BACKBONE|DICT|INTERRES
   185   94   95 1    
   186   94  215 1    
   187   95   96 1    
   188   95   97 1    
   189   95  216 1    
   190   96  217 1    
   191   96  218 1    
   192   96  219 1    
   193   97   98 2    
   194   97   99 am   BACKBONE|DICT|INTERRES
   195   99  100 1    
   196   99  220 1    
   197  100  101 1    
   198  100  102 1    
   199  100  221 1    
   200  101  222 1    
   201  101  223 1    
   202  101  224 1    
   203  102  103 2    
   204  102  104 am   BACKBONE|DICT|INTERRES
   205  104  105 1    
   206  104  225 1    
   207  105  106 1    
   208  105  107 1    
   209  105  226 1    
   210  106  227 1    
   211  106  228 1    
   212  106  229 1    
   213  107  108 2    
   214  107  109 am   BACKBONE|DICT|INTERRES
   215  109  110 1    
   216  109  230 1    
   217  110  111 1    
   218  110  112 1    
   219  110  231 1    
   220  111  232 1    
   221  111  233 1    
   222  111  234 1    
   223  112  113 2    
   224  112  114 am   BACKBONE|DICT|INTERRES
   225  114  115 1    
   226  114  235 1    
   227  115  116 1    
   228  115  117 1    
   229  115  236 1    
   230  116  237 1    
   231  116  238 1    
   232  116  239 1    
   233  117  118 2    
   234  117  119 am   BACKBONE|DICT|INTERRES
   235  119  120 1    
   236  119  240 1    
   237  120  121 1    
   238  120  124 1    
   239  120  241 1    
   240  121  122 am   BACKBONE|DICT|INTERRES
   241  121  123 2    
   242  122  242 1    
   243  122  243 1    
   244  124  125 1    
   245  124  244 1    
   246  124  245 1    
   247  125  126 1    
   248  126  246 1    
   249  126  247 1    
@<TRIPOS>SUBSTRUCTURE
     1 UNK         1 GROUP             0       ****    0 ROOT    
