@<TRIPOS>MOLECULE
3R540
247   249    1
SMALL
USER_CHARGES


@<TRIPOS>ATOM
      1 CA          5.4085  -14.4618  -43.9283 C.3       0 UNK        -0.1800 
      2 C           4.9699  -13.5341  -45.0495 C.2       0 UNK         0.5000 
      3 O           5.8193  -12.9591  -45.7302 O.2       0 UNK        -0.5000 
      4 N           3.6501  -13.3879  -45.2370 N.am      1 UNK        -0.5000 
      5 CA          3.0053  -12.5623  -46.2714 C.3       1 UNK         0.1400 
      6 C6          3.3077  -13.0452  -47.7192 C.3       23 UNK        -0.0398 
      7 S7          2.7305  -14.7520  -48.0172 S.3       23 UNK        -0.2404 
      8 C8          2.0314  -14.6006  -49.6903 C.3       23 UNK        -0.0205 
      9 C9          1.1272  -15.7724  -50.0424 C.ar      23 UNK        -0.0193 
     10 C10        -0.2559  -15.5854  -50.1316 C.ar      23 UNK        -0.1150 
     11 C11        -1.0934  -16.6406  -50.5010 C.ar      23 UNK        -0.0193 
     12 C12        -0.5376  -17.8893  -50.7878 C.ar      23 UNK        -0.1150 
     13 C13         0.8404  -18.0998  -50.6747 C.ar      23 UNK        -0.0193 
     14 C14         1.6689  -17.0348  -50.3065 C.ar      23 UNK        -0.1150 
     15 C15         1.4304  -19.4745  -50.9631 C.3       23 UNK        -0.0205 
     16 S16         1.4779  -20.5333  -49.4787 S.3       23 UNK        -0.2404 
     17 C17        -0.3004  -20.7140  -49.1295 C.3       23 UNK        -0.0398 
     18 CA         -0.6390  -21.8842  -48.1790 C.3       11 UNK         0.1400 
     19 N          -0.1844  -21.6703  -46.8018 N.am      11 UNK        -0.5000 
     20 C          -0.3057  -22.5673  -45.8102 C.2       10 UNK         0.5000 
     21 O          -0.7358  -23.7107  -45.9695 O.2       10 UNK        -0.5000 
     22 CA          0.0466  -22.0875  -44.3895 C.3       10 UNK         0.1400 
     23 CB          1.5649  -22.0948  -44.1589 C.3       10 UNK        -0.1800 
     24 N          -0.4959  -20.7588  -44.0999 N.am      10 UNK        -0.5000 
     25 C          -1.8038  -20.4653  -44.0596 C.2       9 UNK         0.5000 
     26 O          -2.6955  -21.3008  -44.1983 O.2       9 UNK        -0.5000 
     27 CA         -2.1829  -18.9841  -43.8919 C.3       9 UNK         0.1400 
     28 CB         -2.1794  -18.5679  -42.4133 C.3       9 UNK        -0.1800 
     29 N          -1.3015  -18.1075  -44.6607 N.am      9 UNK        -0.5000 
     30 C          -1.3047  -18.0240  -45.9992 C.2       8 UNK         0.5000 
     31 O          -2.0816  -18.6474  -46.7223 O.2       8 UNK        -0.5000 
     32 CA         -0.2317  -17.1219  -46.6336 C.3       8 UNK         0.1400 
     33 CB         -0.7214  -15.6663  -46.6751 C.3       8 UNK        -0.1800 
     34 N           1.0516  -17.2003  -45.9309 N.am      8 UNK        -0.5000 
     35 C           1.8065  -18.3082  -45.8784 C.2       7 UNK         0.5000 
     36 O           1.4946  -19.3673  -46.4174 O.2       7 UNK        -0.5000 
     37 CA          3.0833  -18.2574  -45.0179 C.3       7 UNK         0.1400 
     38 CB          4.2529  -17.6625  -45.8155 C.3       7 UNK        -0.1800 
     39 N           2.9088  -17.5051  -43.7755 N.am      7 UNK        -0.5000 
     40 C           2.0033  -17.7768  -42.8271 C.2       6 UNK         0.5000 
     41 O           1.2558  -18.7541  -42.8593 O.2       6 UNK        -0.5000 
     42 CA          1.8639  -16.7567  -41.6801 C.3       6 UNK         0.1400 
     43 CB          3.1921  -16.0775  -41.2902 C.3       6 UNK        -0.1800 
     44 N           0.8402  -15.7394  -41.9451 N.am      6 UNK        -0.5000 
     45 C           0.7167  -14.9495  -43.0244 C.2       5 UNK         0.5000 
     46 O           1.4525  -14.9866  -44.0127 O.2       5 UNK        -0.5000 
     47 CA         -0.3990  -13.8931  -42.9545 C.3       5 UNK         0.1400 
     48 CB         -1.7883  -14.5404  -42.8176 C.3       5 UNK        -0.1800 
     49 N          -0.1814  -12.9555  -41.8515 N.am      5 UNK        -0.5000 
     50 C           0.8688  -12.1293  -41.7591 C.2       4 UNK         0.5000 
     51 O           1.7443  -12.0341  -42.6253 O.2       4 UNK        -0.5000 
     52 CA          0.9577  -11.2787  -40.4821 C.3       4 UNK         0.1400 
     53 CB          1.4505  -12.1204  -39.2934 C.3       4 UNK        -0.1800 
     54 N           1.9016  -10.1975  -40.7254 N.am      4 UNK        -0.5000 
     55 C           1.7707   -8.9151  -40.3829 C.2       3 UNK         0.5000 
     56 O           0.8611   -8.4891  -39.6701 O.2       3 UNK        -0.5000 
     57 CA          2.8047   -7.9275  -40.9687 C.3       3 UNK         0.1400 
     58 CB          4.0649   -7.8463  -40.0856 C.3       3 UNK        -0.1800 
     59 N           3.1415   -8.1718  -42.3833 N.am      3 UNK        -0.5000 
     60 C           3.7979   -9.2088  -42.9225 C.2       2 UNK         0.5000 
     61 O           4.2997  -10.1266  -42.2686 O.2       2 UNK        -0.5000 
     62 CA          3.8749   -9.2563  -44.4519 C.3       2 UNK         0.1400 
     63 CB          5.2632   -8.8134  -44.9484 C.3       2 UNK        -0.1800 
     64 N           3.5936  -10.6281  -44.8583 N.am      2 UNK        -0.5000 
     65 C           3.2660  -11.0446  -46.0862 C.2       1 UNK         0.5000 
     66 O           3.1507  -10.2779  -47.0445 O.2       1 UNK        -0.5000 
     67 C          -2.1519  -22.1615  -48.2329 C.2       11 UNK         0.5000 
     68 O          -2.5513  -23.1375  -48.8631 O.2       11 UNK        -0.5000 
     69 N          -2.9597  -21.3248  -47.5644 N.am      12 UNK        -0.5000 
     70 CA         -4.4166  -21.4577  -47.5008 C.3       12 UNK         0.1400 
     71 CB         -5.0207  -20.2367  -46.7929 C.3       12 UNK        -0.1800 
     72 C          -4.8822  -22.7666  -46.8369 C.2       12 UNK         0.5000 
     73 O          -5.8036  -23.4026  -47.3476 O.2       12 UNK        -0.5000 
     74 N          -4.2124  -23.1734  -45.7492 N.am      13 UNK        -0.5000 
     75 CA         -4.4561  -24.4311  -45.0372 C.3       13 UNK         0.1400 
     76 CB         -3.6326  -24.4532  -43.7407 C.3       13 UNK        -0.1800 
     77 C          -4.1575  -25.6784  -45.8914 C.2       13 UNK         0.5000 
     78 O          -4.8956  -26.6609  -45.8131 O.2       13 UNK        -0.5000 
     79 N          -3.1043  -25.6032  -46.7153 N.am      14 UNK        -0.5000 
     80 CA         -2.7298  -26.6292  -47.6919 C.3       14 UNK         0.1400 
     81 CB         -1.2238  -26.4977  -47.9727 C.3       14 UNK        -0.1800 
     82 C          -3.5240  -26.5310  -49.0119 C.2       14 UNK         0.5000 
     83 O          -3.3444  -27.3803  -49.8877 O.2       14 UNK        -0.5000 
     84 N          -4.3216  -25.4623  -49.1682 N.am      15 UNK        -0.5000 
     85 CA         -5.0167  -25.0205  -50.3829 C.3       15 UNK         0.1400 
     86 CB         -6.1856  -25.9720  -50.7084 C.3       15 UNK        -0.1800 
     87 C          -4.0652  -24.8203  -51.5826 C.2       15 UNK         0.5000 
     88 O          -4.4784  -25.0072  -52.7262 O.2       15 UNK        -0.5000 
     89 N          -2.7954  -24.4974  -51.2965 N.am      16 UNK        -0.5000 
     90 CA         -1.6450  -24.4525  -52.2042 C.3       16 UNK         0.1400 
     91 CB         -1.6600  -23.1458  -53.0153 C.3       16 UNK        -0.1800 
     92 C          -1.5070  -25.7201  -53.0787 C.2       16 UNK         0.5000 
     93 O          -1.2558  -25.6172  -54.2798 O.2       16 UNK        -0.5000 
     94 N          -1.7095  -26.8898  -52.4508 N.am      17 UNK        -0.5000 
     95 CA         -1.7533  -28.2247  -53.0573 C.3       17 UNK         0.1400 
     96 CB         -0.3968  -28.6057  -53.6881 C.3       17 UNK        -0.1800 
     97 C          -2.9503  -28.3835  -54.0187 C.2       17 UNK         0.5000 
     98 O          -2.7860  -28.8256  -55.1572 O.2       17 UNK        -0.5000 
     99 N          -4.1382  -28.0144  -53.5172 N.am      18 UNK        -0.5000 
    100 CA        -5.4504  -28.0820  -54.1739 C.3       18 UNK         0.1400 
    101 CB        -5.8370  -29.5414  -54.4943 C.3       18 UNK        -0.1800 
    102 C         -5.6040  -27.1352  -55.3854 C.2       18 UNK         0.5000 
    103 O         -6.3900  -27.4166  -56.2918 O.2       18 UNK        -0.5000 
    104 N         -4.8837  -26.0078  -55.3587 N.am      19 UNK        -0.5000 
    105 CA        -5.0147  -24.8969  -56.3050 C.3       19 UNK         0.1400 
    106 CB        -3.6177  -24.3192  -56.5782 C.3       19 UNK        -0.1800 
    107 C         -5.9695  -23.7985  -55.7862 C.2       19 UNK         0.5000 
    108 O         -6.2899  -22.8790  -56.5389 O.2       19 UNK        -0.5000 
    109 N         -6.3893  -23.9100  -54.5158 N.am      20 UNK        -0.5000 
    110 CA        -7.2460  -23.0054  -53.7368 C.3       20 UNK         0.1400 
    111 CB        -8.5804  -22.7067  -54.4513 C.3       20 UNK        -0.1800 
    112 C         -6.5288  -21.7293  -53.2485 C.2       20 UNK         0.5000 
    113 O         -7.1917  -20.8140  -52.7554 O.2       20 UNK        -0.5000 
    114 N         -5.1908  -21.7047  -53.3522 N.am      21 UNK        -0.5000 
    115 CA        -4.2864  -20.6303  -52.9298 C.3       21 UNK         0.1400 
    116 CB        -4.1386  -20.6418  -51.3900 C.3       21 UNK        -0.1800 
    117 C         -4.6859  -19.2644  -53.5283 C.2       21 UNK         0.5000 
    118 O         -4.7167  -19.1346  -54.7534 O.2       21 UNK        -0.5000 
    119 N         -4.9921  -18.2888  -52.6672 N.am      22 UNK        -0.5000 
    120 CA        -5.4794  -16.9519  -53.0423 C.3       22 UNK         0.1400 
    121 C         -7.0327  -16.8592  -53.1378 C.2       22 UNK         0.5000 
    122 N         -7.7885  -17.9395  -52.9742 N.am      22 UNK        -0.7600 
    123 O         -7.5703  -15.7819  -53.3800 O.2       22 UNK        -0.5000 
    124 C124       -4.8928  -15.8531  -52.1168 C.3       23 UNK        -0.0398 
    125 S125       -3.0707  -15.7690  -52.2124 S.3       23 UNK        -0.2404 
    126 C126       -2.5967  -16.4346  -50.5886 C.3       23 UNK        -0.0205 
    127 H127        5.2986  -13.9660  -42.9638 H         1 UNK         0.0600 
    128 H128        6.4543  -14.7447  -44.0498 H         1 UNK         0.0600 
    129 H129        4.8155  -15.3738  -43.9281 H         1 UNK         0.0600 
    130 H130        2.9977  -13.8907  -44.6422 H         1 UNK         0.3000 
    131 H131        1.9331  -12.6826  -46.1077 H         1 UNK         0.0600 
    132 H132        4.3749  -12.9932  -47.9369 H         1 UNK         0.0800 
    133 H133        2.8253  -12.3878  -48.4434 H         1 UNK         0.0800 
    134 H134        2.8444  -14.5353  -50.4148 H         1 UNK         0.0800 
    135 H135        1.4713  -13.6679  -49.7709 H         1 UNK         0.0800 
    136 H136       -0.6837  -14.6149  -49.9227 H         1 UNK         0.1150 
    137 H137       -1.1826  -18.7017  -51.0891 H         1 UNK         0.1150 
    138 H138        2.7364  -17.1856  -50.2266 H         1 UNK         0.1150 
    139 H139        0.8609  -19.9726  -51.7493 H         1 UNK         0.0800 
    140 H140        2.4454  -19.3669  -51.3485 H         1 UNK         0.0800 
    141 H141       -0.8030  -20.8536  -50.0887 H         1 UNK         0.0800 
    142 H142       -0.6692  -19.7740  -48.7178 H         1 UNK         0.0800 
    143 H143       -0.1362  -22.7797  -48.5505 H         1 UNK         0.0600 
    144 H144        0.2522  -20.7727  -46.6039 H         1 UNK         0.3000 
    145 H145       -0.4039  -22.7874  -43.6826 H         1 UNK         0.0600 
    146 H146        2.0840  -21.4332  -44.8513 H         1 UNK         0.0600 
    147 H147        1.8118  -21.7785  -43.1452 H         1 UNK         0.0600 
    148 H148        1.9731  -23.0966  -44.2972 H         1 UNK         0.0600 
    149 H149        0.1742  -20.0174  -43.9214 H         1 UNK         0.3000 
    150 H150       -3.1994  -18.8571  -44.2699 H         1 UNK         0.0600 
    151 H151       -2.8594  -19.1939  -41.8341 H         1 UNK         0.0600 
    152 H152       -2.5093  -17.5363  -42.2936 H         1 UNK         0.0600 
    153 H153       -1.1914  -18.6589  -41.9632 H         1 UNK         0.0600 
    154 H154       -0.5786  -17.6256  -44.1480 H         1 UNK         0.3000 
    155 H155       -0.0738  -17.4602  -47.6596 H         1 UNK         0.0600 
    156 H156       -1.6654  -15.5897  -47.2161 H         1 UNK         0.0600 
    157 H157       -0.0087  -15.0191  -47.1821 H         1 UNK         0.0600 
    158 H158       -0.8809  -15.2625  -45.6773 H         1 UNK         0.0600 
    159 H159        1.3560  -16.3723  -45.4284 H         1 UNK         0.3000 
    160 H160        3.3415  -19.2832  -44.7484 H         1 UNK         0.0600 
    161 H161        5.1852  -17.7220  -45.2539 H         1 UNK         0.0600 
    162 H162        4.0777  -16.6161  -46.0660 H         1 UNK         0.0600 
    163 H163        4.4017  -18.2026  -46.7515 H         1 UNK         0.0600 
    164 H164        3.4321  -16.6479  -43.6913 H         1 UNK         0.3000 
    165 H165        1.5236  -17.3259  -40.8136 H         1 UNK         0.0600 
    166 H166        3.4891  -15.3178  -42.0104 H         1 UNK         0.0600 
    167 H167        3.1001  -15.5824  -40.3235 H         1 UNK         0.0600 
    168 H168        4.0036  -16.8015  -41.2050 H         1 UNK         0.0600 
    169 H169        0.1710  -15.6104  -41.2002 H         1 UNK         0.3000 
    170 H170       -0.3783  -13.3295  -43.8899 H         1 UNK         0.0600 
    171 H171       -1.9179  -15.0331  -41.8536 H         1 UNK         0.0600 
    172 H172       -2.5767  -13.7939  -42.9154 H         1 UNK         0.0600 
    173 H173       -1.9576  -15.2892  -43.5916 H         1 UNK         0.0600 
    174 H174       -0.8576  -12.9733  -41.1019 H         1 UNK         0.3000 
    175 H175       -0.0332  -10.8740  -40.2658 H         1 UNK         0.0600 
    176 H176        2.4275  -12.5627  -39.4931 H         1 UNK         0.0600 
    177 H177        1.5362  -11.5140  -38.3915 H         1 UNK         0.0600 
    178 H178        0.7593  -12.9345  -39.0727 H         1 UNK         0.0600 
    179 H179        2.6721  -10.4437  -41.3434 H         1 UNK         0.3000 
    180 H180        2.3347   -6.9429  -40.9490 H         1 UNK         0.0600 
    181 H181        4.5754   -8.8065  -40.0084 H         1 UNK         0.0600 
    182 H182        3.8068   -7.5363  -39.0723 H         1 UNK         0.0600 
    183 H183        4.7750   -7.1183  -40.4775 H         1 UNK         0.0600 
    184 H184        2.7547   -7.4894  -43.0210 H         1 UNK         0.3000 
    185 H185        3.1103   -8.5993  -44.8715 H         1 UNK         0.0600 
    186 H186        5.3141   -8.8055  -46.0371 H         1 UNK         0.0600 
    187 H187        5.4963   -7.8045  -44.6062 H         1 UNK         0.0600 
    188 H188        6.0485   -9.4761  -44.5822 H         1 UNK         0.0600 
    189 H189        3.6166  -11.3038  -44.1024 H         1 UNK         0.3000 
    190 H190       -2.5599  -20.5162  -47.0970 H         1 UNK         0.3000 
    191 H191       -4.7875  -21.4657  -48.5275 H         1 UNK         0.0600 
    192 H192       -4.6708  -20.1540  -45.7642 H         1 UNK         0.0600 
    193 H193       -4.7617  -19.3130  -47.3106 H         1 UNK         0.0600 
    194 H194       -6.1092  -20.3000  -46.7656 H         1 UNK         0.0600 
    195 H195       -3.5025  -22.5602  -45.3555 H         1 UNK         0.3000 
    196 H196       -5.5139  -24.4609  -44.7682 H         1 UNK         0.0600 
    197 H197       -3.9040  -23.6235  -43.0878 H         1 UNK         0.0600 
    198 H198       -2.5632  -24.3832  -43.9424 H         1 UNK         0.0600 
    199 H199       -3.8034  -25.3750  -43.1833 H         1 UNK         0.0600 
    200 H200       -2.5232  -24.7723  -46.6877 H         1 UNK         0.3000 
    201 H201       -2.9158  -27.6177  -47.2675 H         1 UNK         0.0600 
    202 H202       -0.8810  -27.2700  -48.6625 H         1 UNK         0.0600 
    203 H203       -0.6423  -26.6007  -47.0563 H         1 UNK         0.0600 
    204 H204       -0.9808  -25.5299  -48.4135 H         1 UNK         0.0600 
    205 H205       -4.3731  -24.8127  -48.3940 H         1 UNK         0.3000 
    206 H206       -5.4338  -24.0373  -50.1612 H         1 UNK         0.0600 
    207 H207       -6.8600  -26.0666  -49.8574 H         1 UNK         0.0600 
    208 H208       -5.8348  -26.9710  -50.9678 H         1 UNK         0.0600 
    209 H209       -6.7764  -25.6033  -51.5472 H         1 UNK         0.0600 
    210 H210       -2.5970  -24.2672  -50.3251 H         1 UNK         0.3000 
    211 H211       -0.7572  -24.4313  -51.5706 H         1 UNK         0.0600 
    212 H212       -1.6390  -22.2799  -52.3542 H         1 UNK         0.0600 
    213 H213       -0.7893  -23.0727  -53.6679 H         1 UNK         0.0600 
    214 H214       -2.5486  -23.0776  -53.6394 H         1 UNK         0.0600 
    215 H215       -1.9762  -26.8598  -51.4733 H         1 UNK         0.3000 
    216 H216       -1.9324  -28.9211  -52.2365 H         1 UNK         0.0600 
    217 H217       -0.3991  -29.6474  -54.0105 H         1 UNK         0.0600 
    218 H218       -0.1648  -27.9972  -54.5624 H         1 UNK         0.0600 
    219 H219        0.4170  -28.4897  -52.9724 H         1 UNK         0.0600 
    220 H220       -4.1440  -27.6284  -52.5830 H         1 UNK         0.3000 
    221 H221       -6.1648  -27.7185  -53.4342 H         1 UNK         0.0600 
    222 H222       -5.2178  -29.9609  -55.2876 H         1 UNK         0.0600 
    223 H223       -5.7354  -30.1785  -53.6158 H         1 UNK         0.0600 
    224 H224       -6.8749  -29.6087  -54.8222 H         1 UNK         0.0600 
    225 H225       -4.3022  -25.8377  -54.5446 H         1 UNK         0.3000 
    226 H226       -5.4198  -25.2598  -57.2517 H         1 UNK         0.0600 
    227 H227       -2.9500  -25.0808  -56.9815 H         1 UNK         0.0600 
    228 H228       -3.6620  -23.5071  -57.3049 H         1 UNK         0.0600 
    229 H229       -3.1608  -23.9257  -55.6716 H         1 UNK         0.0600 
    230 H230       -5.9710  -24.6582  -53.9731 H         1 UNK         0.3000 
    231 H231       -7.4915  -23.5581  -52.8294 H         1 UNK         0.0600 
    232 H232       -9.2801  -22.2117  -53.7769 H         1 UNK         0.0600 
    233 H233       -9.0584  -23.6233  -54.7968 H         1 UNK         0.0600 
    234 H234       -8.4447  -22.0506  -55.3111 H         1 UNK         0.0600 
    235 H235       -4.7530  -22.5043  -53.7852 H         1 UNK         0.3000 
    236 H236       -3.3101  -20.8535  -53.3581 H         1 UNK         0.0600 
    237 H237       -3.7887  -21.6137  -51.0422 H         1 UNK         0.0600 
    238 H238       -3.4085  -19.9052  -51.0536 H         1 UNK         0.0600 
    239 H239       -5.0830  -20.4366  -50.8849 H         1 UNK         0.0600 
    240 H240       -4.9825  -18.4956  -51.6803 H         1 UNK         0.3000 
    241 H241       -5.1283  -16.7284  -54.0515 H         1 UNK         0.0600 
    242 H242       -7.3853  -18.8589  -52.8191 H         1 UNK         0.3800 
    243 H243       -8.7894  -17.8503  -53.0456 H         1 UNK         0.3800 
    244 H244       -5.2706  -14.8700  -52.4028 H         1 UNK         0.0800 
    245 H245       -5.2096  -16.0088  -51.0844 H         1 UNK         0.0800 
    246 H246       -2.9254  -15.7510  -49.8043 H         1 UNK         0.0800 
    247 H247       -3.1135  -17.3789  -50.4121 H         1 UNK         0.0800 
@<TRIPOS>BOND
     1    1    2 1    
     2    1  127 1    
     3    1  128 1    
     4    1  129 1    
     5    2    3 2    
     6    2    4 am   BACKBONE|DICT|INTERRES
     7    4    5 1    
     8    4  130 1    
     9    5    6 1    
    10    5   65 1    
    11    5  131 1    
    12    6    7 1    
    13    6  132 1    
    14    6  133 1    
    15    7    8 1    
    16    8    9 1    
    17    8  134 1    
    18    8  135 1    
    19    9   10 ar   
    20    9   14 ar   
    21   10   11 ar   
    22   10  136 1    
    23   11   12 ar   
    24   11  126 1    
    25   12   13 ar   
    26   12  137 1    
    27   13   14 ar   
    28   13   15 1    
    29   14  138 1    
    30   15   16 1    
    31   15  139 1    
    32   15  140 1    
    33   16   17 1    
    34   17   18 1    
    35   17  141 1    
    36   17  142 1    
    37   18   19 1    
    38   18   67 1    
    39   18  143 1    
    40   19   20 am   BACKBONE|DICT|INTERRES
    41   19  144 1    
    42   20   21 2    
    43   20   22 1    
    44   22   23 1    
    45   22   24 1    
    46   22  145 1    
    47   23  146 1    
    48   23  147 1    
    49   23  148 1    
    50   24   25 am   BACKBONE|DICT|INTERRES
    51   24  149 1    
    52   25   26 2    
    53   25   27 1    
    54   27   28 1    
    55   27   29 1    
    56   27  150 1    
    57   28  151 1    
    58   28  152 1    
    59   28  153 1    
    60   29   30 am   BACKBONE|DICT|INTERRES
    61   29  154 1    
    62   30   31 2    
    63   30   32 1    
    64   32   33 1    
    65   32   34 1    
    66   32  155 1    
    67   33  156 1    
    68   33  157 1    
    69   33  158 1    
    70   34   35 am   BACKBONE|DICT|INTERRES
    71   34  159 1    
    72   35   36 2    
    73   35   37 1    
    74   37   38 1    
    75   37   39 1    
    76   37  160 1    
    77   38  161 1    
    78   38  162 1    
    79   38  163 1    
    80   39   40 am   BACKBONE|DICT|INTERRES
    81   39  164 1    
    82   40   41 2    
    83   40   42 1    
    84   42   43 1    
    85   42   44 1    
    86   42  165 1    
    87   43  166 1    
    88   43  167 1    
    89   43  168 1    
    90   44   45 am   BACKBONE|DICT|INTERRES
    91   44  169 1    
    92   45   46 2    
    93   45   47 1    
    94   47   48 1    
    95   47   49 1    
    96   47  170 1    
    97   48  171 1    
    98   48  172 1    
    99   48  173 1    
   100   49   50 am   BACKBONE|DICT|INTERRES
   101   49  174 1    
   102   50   51 2    
   103   50   52 1    
   104   52   53 1    
   105   52   54 1    
   106   52  175 1    
   107   53  176 1    
   108   53  177 1    
   109   53  178 1    
   110   54   55 am   BACKBONE|DICT|INTERRES
   111   54  179 1    
   112   55   56 2    
   113   55   57 1    
   114   57   58 1    
   115   57   59 1    
   116   57  180 1    
   117   58  181 1    
   118   58  182 1    
   119   58  183 1    
   120   59   60 am   BACKBONE|DICT|INTERRES
   121   59  184 1    
   122   60   61 2    
   123   60   62 1    
   124   62   63 1    
   125   62   64 1    
   126   62  185 1    
   127   63  186 1    
   128   63  187 1    
   129   63  188 1    
   130   64   65 am   BACKBONE|DICT|INTERRES
   131   64  189 1    
   132   65   66 2    
   133   67   68 2    
   134   67   69 am   BACKBONE|DICT|INTERRES
   135   69   70 1    
   136   69  190 1    
   137   70   71 1    
   138   70   72 1    
   139   70  191 1    
   140   71  192 1    
   141   71  193 1    
   142   71  194 1    
   143   72   73 2    
   144   72   74 am   BACKBONE|DICT|INTERRES
   145   74   75 1    
   146   74  195 1    
   147   75   76 1    
   148   75   77 1    
   149   75  196 1    
   150   76  197 1    
   151   76  198 1    
   152   76  199 1    
   153   77   78 2    
   154   77   79 am   BACKBONE|DICT|INTERRES
   155   79   80 1    
   156   79  200 1    
   157   80   81 1    
   158   80   82 1    
   159   80  201 1    
   160   81  202 1    
   161   81  203 1    
   162   81  204 1    
   163   82   83 2    
   164   82   84 am   BACKBONE|DICT|INTERRES
   165   84   85 1    
   166   84  205 1    
   167   85   86 1    
   168   85   87 1    
   169   85  206 1    
   170   86  207 1    
   171   86  208 1    
   172   86  209 1    
   173   87   88 2    
   174   87   89 am   BACKBONE|DICT|INTERRES
   175   89   90 1    
   176   89  210 1    
   177   90   91 1    
   178   90   92 1    
   179   90  211 1    
   180   91  212 1    
   181   91  213 1    
   182   91  214 1    
   183   92   93 2    
   184   92   94 am   BACKBONE|DICT|INTERRES
   185   94   95 1    
   186   94  215 1    
   187   95   96 1    
   188   95   97 1    
   189   95  216 1    
   190   96  217 1    
   191   96  218 1    
   192   96  219 1    
   193   97   98 2    
   194   97   99 am   BACKBONE|DICT|INTERRES
   195   99  100 1    
   196   99  220 1    
   197  100  101 1    
   198  100  102 1    
   199  100  221 1    
   200  101  222 1    
   201  101  223 1    
   202  101  224 1    
   203  102  103 2    
   204  102  104 am   BACKBONE|DICT|INTERRES
   205  104  105 1    
   206  104  225 1    
   207  105  106 1    
   208  105  107 1    
   209  105  226 1    
   210  106  227 1    
   211  106  228 1    
   212  106  229 1    
   213  107  108 2    
   214  107  109 am   BACKBONE|DICT|INTERRES
   215  109  110 1    
   216  109  230 1    
   217  110  111 1    
   218  110  112 1    
   219  110  231 1    
   220  111  232 1    
   221  111  233 1    
   222  111  234 1    
   223  112  113 2    
   224  112  114 am   BACKBONE|DICT|INTERRES
   225  114  115 1    
   226  114  235 1    
   227  115  116 1    
   228  115  117 1    
   229  115  236 1    
   230  116  237 1    
   231  116  238 1    
   232  116  239 1    
   233  117  118 2    
   234  117  119 am   BACKBONE|DICT|INTERRES
   235  119  120 1    
   236  119  240 1    
   237  120  121 1    
   238  120  124 1    
   239  120  241 1    
   240  121  122 am   BACKBONE|DICT|INTERRES
   241  121  123 2    
   242  122  242 1    
   243  122  243 1    
   244  124  125 1    
   245  124  244 1    
   246  124  245 1    
   247  125  126 1    
   248  126  246 1    
   249  126  247 1    
@<TRIPOS>SUBSTRUCTURE
     1 UNK         1 GROUP             0       ****    0 ROOT    
