@<TRIPOS>MOLECULE
3R540
247   249    1
SMALL
USER_CHARGES


@<TRIPOS>ATOM
      1 CA          3.1423  -15.8071  -48.6193 C.3       0 UNK        -0.1800 
      2 C           1.9584  -15.0536  -48.0336 C.2       0 UNK         0.5000 
      3 O           2.0506  -14.5314  -46.9229 O.2       0 UNK        -0.5000 
      4 N           0.8410  -14.9846  -48.7666 N.am      1 UNK        -0.5000 
      5 CA         -0.3153  -14.1666  -48.3982 C.3       1 UNK         0.1400 
      6 C6         -1.6291  -14.6436  -49.0664 C.3       23 UNK        -0.0398 
      7 S7         -1.5778  -14.7923  -50.8886 S.3       23 UNK        -0.2404 
      8 C8         -2.0073  -16.5446  -51.1352 C.3       23 UNK        -0.0205 
      9 C9         -0.7733  -17.4077  -51.3553 C.ar      23 UNK        -0.0193 
     10 C10        -0.4238  -17.7908  -52.6533 C.ar      23 UNK        -0.1150 
     11 C11         0.7029  -18.5837  -52.8815 C.ar      23 UNK        -0.0193 
     12 C12         1.4956  -18.9794  -51.8025 C.ar      23 UNK        -0.1150 
     13 C13         1.1591  -18.6059  -50.4990 C.ar      23 UNK        -0.0193 
     14 C14         0.0138  -17.8315  -50.2780 C.ar      23 UNK        -0.1150 
     15 C15         2.0562  -19.0232  -49.3424 C.3       23 UNK        -0.0205 
     16 S16         1.9624  -20.8063  -49.0027 S.3       23 UNK        -0.2404 
     17 C17         0.2759  -20.9121  -48.3308 C.3       23 UNK        -0.0398 
     18 CA          0.0097  -22.2435  -47.5978 C.3       11 UNK         0.1400 
     19 N           0.9508  -22.4885  -46.5024 N.am      11 UNK        -0.5000 
     20 C           1.1197  -23.6783  -45.9113 C.2       10 UNK         0.5000 
     21 O           0.4806  -24.6862  -46.2092 O.2       10 UNK        -0.5000 
     22 CA          2.1340  -23.7363  -44.7581 C.3       10 UNK         0.1400 
     23 CB          3.5656  -23.8619  -45.2992 C.3       10 UNK        -0.1800 
     24 N           2.0514  -22.5768  -43.8708 N.am      10 UNK        -0.5000 
     25 C           0.9776  -22.2184  -43.1585 C.2       9 UNK         0.5000 
     26 O          -0.0953  -22.8210  -43.2003 O.2       9 UNK        -0.5000 
     27 CA          1.1076  -20.9724  -42.2666 C.3       9 UNK         0.1400 
     28 CB          1.8681  -21.2886  -40.9662 C.3       9 UNK        -0.1800 
     29 N           1.6616  -19.7892  -42.9346 N.am      9 UNK        -0.5000 
     30 C           2.8906  -19.5682  -43.4255 C.2       8 UNK         0.5000 
     31 O           3.7785  -20.4224  -43.4482 O.2       8 UNK        -0.5000 
     32 CA          3.1969  -18.1479  -43.9519 C.3       8 UNK         0.1400 
     33 CB          4.0567  -18.1602  -45.2341 C.3       8 UNK        -0.1800 
     34 N           2.0099  -17.2966  -44.1008 N.am      8 UNK        -0.5000 
     35 C           1.0387  -17.3916  -45.0203 C.2       7 UNK         0.5000 
     36 O           1.0338  -18.2143  -45.9360 O.2       7 UNK        -0.5000 
     37 CA         -0.1530  -16.4263  -44.8301 C.3       7 UNK         0.1400 
     38 CB         -1.3390  -16.7512  -45.7635 C.3       7 UNK        -0.1800 
     39 N          -0.5962  -16.3438  -43.4301 N.am      7 UNK        -0.5000 
     40 C          -0.9996  -17.3736  -42.6681 C.2       6 UNK         0.5000 
     41 O          -1.0702  -18.5321  -43.0787 O.2       6 UNK        -0.5000 
     42 CA         -1.3279  -17.0670  -41.1914 C.3       6 UNK         0.1400 
     43 CB         -1.5487  -18.3452  -40.3554 C.3       6 UNK        -0.1800 
     44 N          -0.3367  -16.2111  -40.5310 N.am      6 UNK        -0.5000 
     45 C           0.9901  -16.3885  -40.4473 C.2       5 UNK         0.5000 
     46 O           1.5918  -17.3091  -41.0003 O.2       5 UNK        -0.5000 
     47 CA          1.7750  -15.3386  -39.6270 C.3       5 UNK         0.1400 
     48 CB          3.2999  -15.5108  -39.7535 C.3       5 UNK        -0.1800 
     49 N           1.4284  -13.9691  -40.0102 N.am      5 UNK        -0.5000 
     50 C           0.3148  -13.3110  -39.6616 C.2       4 UNK         0.5000 
     51 O          -0.5322  -13.7686  -38.8936 O.2       4 UNK        -0.5000 
     52 CA          0.0745  -11.9441  -40.3291 C.3       4 UNK         0.1400 
     53 CB          0.5408  -10.8072  -39.4072 C.3       4 UNK        -0.1800 
     54 N           0.7200  -11.7956  -41.6380 N.am      4 UNK        -0.5000 
     55 C           0.4629  -12.5396  -42.7228 C.2       3 UNK         0.5000 
     56 O          -0.3070  -13.5050  -42.7393 O.2       3 UNK        -0.5000 
     57 CA          1.2390  -12.1606  -43.9971 C.3       3 UNK         0.1400 
     58 CB          2.4910  -13.0412  -44.1273 C.3       3 UNK        -0.1800 
     59 N           0.4194  -12.2890  -45.2050 N.am      3 UNK        -0.5000 
     60 C          -0.6886  -11.5676  -45.4412 C.2       2 UNK         0.5000 
     61 O          -1.0786  -10.6654  -44.6973 O.2       2 UNK        -0.5000 
     62 CA         -1.4638  -11.8824  -46.7353 C.3       2 UNK         0.1400 
     63 CB         -2.6833  -10.9636  -46.9352 C.3       2 UNK        -0.1800 
     64 N          -0.5780  -11.7248  -47.8897 N.am      2 UNK        -0.5000 
     65 C          -0.0242  -12.6674  -48.6638 C.2       1 UNK         0.5000 
     66 O           0.7196  -12.3559  -49.5954 O.2       1 UNK        -0.5000 
     67 C          -1.4551  -22.3017  -47.1277 C.2       11 UNK         0.5000 
     68 O          -2.3183  -22.6941  -47.9119 O.2       11 UNK        -0.5000 
     69 N          -1.7179  -21.9242  -45.8693 N.am      12 UNK        -0.5000 
     70 CA         -3.0357  -22.0382  -45.2476 C.3       12 UNK         0.1400 
     71 CB         -3.1112  -21.1318  -44.0104 C.3       12 UNK        -0.1800 
     72 C          -3.3631  -23.4996  -44.8981 C.2       12 UNK         0.5000 
     73 O          -4.4740  -23.9514  -45.1741 O.2       12 UNK        -0.5000 
     74 N          -2.3776  -24.2227  -44.3463 N.am      13 UNK        -0.5000 
     75 CA         -2.4686  -25.6435  -44.0024 C.3       13 UNK         0.1400 
     76 CB         -1.2169  -26.0575  -43.2138 C.3       13 UNK        -0.1800 
     77 C          -2.6653  -26.5511  -45.2318 C.2       13 UNK         0.5000 
     78 O          -3.4799  -27.4732  -45.1832 O.2       13 UNK        -0.5000 
     79 N          -1.9403  -26.2556  -46.3194 N.am      14 UNK        -0.5000 
     80 CA         -2.0451  -26.9478  -47.6068 C.3       14 UNK         0.1400 
     81 CB         -0.7695  -26.6709  -48.4192 C.3       14 UNK        -0.1800 
     82 C          -3.2875  -26.5430  -48.4263 C.2       14 UNK         0.5000 
     83 O          -3.5929  -27.2092  -49.4154 O.2       14 UNK        -0.5000 
     84 N          -3.9478  -25.4436  -48.0309 N.am      15 UNK        -0.5000 
     85 CA         -5.0693  -24.7704  -48.6990 C.3       15 UNK         0.1400 
     86 CB         -6.2983  -25.6937  -48.8188 C.3       15 UNK        -0.1800 
     87 C          -4.6895  -24.1121  -50.0435 C.2       15 UNK         0.5000 
     88 O          -5.5735  -23.6986  -50.7950 O.2       15 UNK        -0.5000 
     89 N          -3.3836  -23.9608  -50.3006 N.am      16 UNK        -0.5000 
     90 CA         -2.8191  -23.2506  -51.4462 C.3       16 UNK         0.1400 
     91 CB         -1.2987  -23.4653  -51.4808 C.3       16 UNK        -0.1800 
     92 C          -3.1511  -21.7500  -51.4180 C.2       16 UNK         0.5000 
     93 O          -3.4178  -21.1734  -52.4707 O.2       16 UNK        -0.5000 
     94 N          -3.1842  -21.1604  -50.2134 N.am      17 UNK        -0.5000 
     95 CA         -3.5802  -19.7687  -49.9953 C.3       17 UNK         0.1400 
     96 CB         -3.1766  -19.3224  -48.5800 C.3       17 UNK        -0.1800 
     97 C          -5.0836  -19.5308  -50.2209 C.2       17 UNK         0.5000 
     98 O          -5.4637  -18.4444  -50.6567 O.2       17 UNK        -0.5000 
     99 N          -5.9047  -20.5477  -49.9233 N.am      18 UNK        -0.5000 
    100 CA        -7.3504  -20.5299  -50.1402 C.3       18 UNK         0.1400 
    101 CB        -8.0153  -21.6151  -49.2786 C.3       18 UNK        -0.1800 
    102 C         -7.7014  -20.7082  -51.6271 C.2       18 UNK         0.5000 
    103 O         -8.5825  -20.0101  -52.1299 O.2       18 UNK        -0.5000 
    104 N         -6.9954  -21.6256  -52.3037 N.am      19 UNK        -0.5000 
    105 CA        -7.1190  -21.8733  -53.7394 C.3       19 UNK         0.1400 
    106 CB        -6.3851  -23.1763  -54.0948 C.3       19 UNK        -0.1800 
    107 C         -6.5858  -20.7031  -54.5856 C.2       19 UNK         0.5000 
    108 O         -7.2380  -20.3061  -55.5514 O.2       19 UNK        -0.5000 
    109 N         -5.4048  -20.1895  -54.2070 N.am      20 UNK        -0.5000 
    110 CA        -4.6514  -19.0943  -54.8302 C.3       20 UNK         0.1400 
    111 CB        -5.4185  -17.7626  -54.7064 C.3       20 UNK        -0.1800 
    112 C         -4.1916  -19.3859  -56.2763 C.2       20 UNK         0.5000 
    113 O         -3.8368  -18.4575  -57.0049 O.2       20 UNK        -0.5000 
    114 N         -4.1738  -20.6701  -56.6647 N.am      21 UNK        -0.5000 
    115 CA        -3.8372  -21.1563  -58.0071 C.3       21 UNK         0.1400 
    116 CB        -4.1220  -22.6646  -58.0727 C.3       21 UNK        -0.1800 
    117 C         -2.3864  -20.8587  -58.4327 C.2       21 UNK         0.5000 
    118 O         -2.1147  -20.7261  -59.6266 O.2       21 UNK        -0.5000 
    119 N         -1.4938  -20.7368  -57.4451 N.am      22 UNK        -0.5000 
    120 CA        -0.1070  -20.2779  -57.5949 C.3       22 UNK         0.1400 
    121 C          0.0537  -18.7414  -57.8067 C.2       22 UNK         0.5000 
    122 N         -0.9944  -17.9298  -57.7171 N.am      22 UNK        -0.7600 
    123 O          1.1581  -18.2744  -58.0711 O.2       22 UNK        -0.5000 
    124 C124        0.7890  -20.8086  -56.4440 C.3       23 UNK        -0.0398 
    125 S125        0.1234  -20.4959  -54.7696 S.3       23 UNK        -0.2404 
    126 C126        1.0609  -19.0138  -54.2929 C.3       23 UNK        -0.0205 
    127 H127        3.4040  -16.6492  -47.9792 H         1 UNK         0.0600 
    128 H128        4.0078  -15.1481  -48.6850 H         1 UNK         0.0600 
    129 H129        2.9267  -16.1837  -49.6193 H         1 UNK         0.0600 
    130 H130        0.8161  -15.3806  -49.6959 H         1 UNK         0.3000 
    131 H131       -0.4409  -14.3096  -47.3259 H         1 UNK         0.0600 
    132 H132       -2.4514  -13.9734  -48.8109 H         1 UNK         0.0800 
    133 H133       -1.9085  -15.6037  -48.6351 H         1 UNK         0.0800 
    134 H134       -2.6687  -16.6149  -52.0004 H         1 UNK         0.0800 
    135 H135       -2.5903  -16.9184  -50.2946 H         1 UNK         0.0800 
    136 H136       -1.0328  -17.4787  -53.4903 H         1 UNK         0.1150 
    137 H137        2.3734  -19.5867  -51.9741 H         1 UNK         0.1150 
    138 H138       -0.2559  -17.5467  -49.2709 H         1 UNK         0.1150 
    139 H139        1.8066  -18.4688  -48.4377 H         1 UNK         0.0800 
    140 H140        3.0894  -18.7689  -49.5821 H         1 UNK         0.0800 
    141 H141       -0.4129  -20.7935  -49.1690 H         1 UNK         0.0800 
    142 H142        0.1083  -20.0668  -47.6610 H         1 UNK         0.0800 
    143 H143        0.1388  -23.0501  -48.3227 H         1 UNK         0.0600 
    144 H144        1.5152  -21.7065  -46.2035 H         1 UNK         0.3000 
    145 H145        1.9117  -24.6255  -44.1648 H         1 UNK         0.0600 
    146 H146        3.8597  -22.9801  -45.8701 H         1 UNK         0.0600 
    147 H147        3.6606  -24.7272  -45.9566 H         1 UNK         0.0600 
    148 H148        4.2830  -23.9897  -44.4883 H         1 UNK         0.0600 
    149 H149        2.8788  -21.9903  -43.7873 H         1 UNK         0.3000 
    150 H150        0.0918  -20.6955  -41.9824 H         1 UNK         0.0600 
    151 H151        2.9012  -21.5805  -41.1562 H         1 UNK         0.0600 
    152 H152        1.3915  -22.1081  -40.4269 H         1 UNK         0.0600 
    153 H153        1.8804  -20.4246  -40.3012 H         1 UNK         0.0600 
    154 H154        1.0033  -19.0219  -43.0014 H         1 UNK         0.3000 
    155 H155        3.7922  -17.6736  -43.1705 H         1 UNK         0.0600 
    156 H156        3.5811  -18.7181  -46.0411 H         1 UNK         0.0600 
    157 H157        5.0252  -18.6257  -45.0489 H         1 UNK         0.0600 
    158 H158        4.2475  -17.1479  -45.5905 H         1 UNK         0.0600 
    159 H159        1.8680  -16.6420  -43.3439 H         1 UNK         0.3000 
    160 H160        0.2134  -15.4343  -45.0950 H         1 UNK         0.0600 
    161 H161       -1.7759  -17.7258  -45.5435 H         1 UNK         0.0600 
    162 H162       -1.0187  -16.7735  -46.8048 H         1 UNK         0.0600 
    163 H163       -2.1259  -16.0022  -45.6776 H         1 UNK         0.0600 
    164 H164       -0.5531  -15.4168  -43.0125 H         1 UNK         0.3000 
    165 H165       -2.2650  -16.5087  -41.1992 H         1 UNK         0.0600 
    166 H166       -2.3415  -18.9627  -40.7798 H         1 UNK         0.0600 
    167 H167       -0.6463  -18.9556  -40.3072 H         1 UNK         0.0600 
    168 H168       -1.8415  -18.1015  -39.3342 H         1 UNK         0.0600 
    169 H169       -0.7116  -15.4018  -40.0470 H         1 UNK         0.3000 
    170 H170        1.5087  -15.4883  -38.5787 H         1 UNK         0.0600 
    171 H171        3.8311  -14.7842  -39.1385 H         1 UNK         0.0600 
    172 H172        3.6117  -16.5021  -39.4219 H         1 UNK         0.0600 
    173 H173        3.6350  -15.3877  -40.7842 H         1 UNK         0.0600 
    174 H174        2.0489  -13.5200  -40.6668 H         1 UNK         0.3000 
    175 H175       -1.0022  -11.8427  -40.4802 H         1 UNK         0.0600 
    176 H176        0.0582  -10.8724  -38.4310 H         1 UNK         0.0600 
    177 H177        1.6187  -10.8384  -39.2432 H         1 UNK         0.0600 
    178 H178        0.2917   -9.8318  -39.8255 H         1 UNK         0.0600 
    179 H179        1.3778  -11.0335  -41.7195 H         1 UNK         0.3000 
    180 H180        1.5565  -11.1184  -43.9213 H         1 UNK         0.0600 
    181 H181        2.2350  -14.0982  -44.2086 H         1 UNK         0.0600 
    182 H182        3.1426  -12.9286  -43.2599 H         1 UNK         0.0600 
    183 H183        3.0752  -12.7693  -45.0066 H         1 UNK         0.0600 
    184 H184        0.7233  -12.9887  -45.8687 H         1 UNK         0.3000 
    185 H185       -1.8556  -12.8936  -46.6392 H         1 UNK         0.0600 
    186 H186       -3.3832  -11.0534  -46.1034 H         1 UNK         0.0600 
    187 H187       -2.3932   -9.9148  -47.0106 H         1 UNK         0.0600 
    188 H188       -3.2270  -11.2249  -47.8433 H         1 UNK         0.0600 
    189 H189       -0.3270  -10.7666  -48.0866 H         1 UNK         0.3000 
    190 H190       -0.9554  -21.6398  -45.2719 H         1 UNK         0.3000 
    191 H191       -3.7881  -21.6911  -45.9591 H         1 UNK         0.0600 
    192 H192       -2.9636  -20.0870  -44.2837 H         1 UNK         0.0600 
    193 H193       -4.0878  -21.2064  -43.5308 H         1 UNK         0.0600 
    194 H194       -2.3591  -21.3907  -43.2651 H         1 UNK         0.0600 
    195 H195       -1.5056  -23.7565  -44.1104 H         1 UNK         0.3000 
    196 H196       -3.3369  -25.7725  -43.3530 H         1 UNK         0.0600 
    197 H197       -0.3084  -25.9259  -43.8022 H         1 UNK         0.0600 
    198 H198       -1.2693  -27.1061  -42.9187 H         1 UNK         0.0600 
    199 H199       -1.1122  -25.4674  -42.3031 H         1 UNK         0.0600 
    200 H200       -1.2303  -25.5303  -46.2532 H         1 UNK         0.3000 
    201 H201       -2.1075  -28.0223  -47.4228 H         1 UNK         0.0600 
    202 H202       -0.6551  -25.6084  -48.6379 H         1 UNK         0.0600 
    203 H203        0.1197  -26.9988  -47.8804 H         1 UNK         0.0600 
    204 H204       -0.7853  -27.2026  -49.3714 H         1 UNK         0.0600 
    205 H205       -3.6084  -24.9773  -47.2002 H         1 UNK         0.3000 
    206 H206       -5.3467  -23.9471  -48.0393 H         1 UNK         0.0600 
    207 H207       -6.5483  -26.1431  -47.8578 H         1 UNK         0.0600 
    208 H208       -7.1742  -25.1365  -49.1526 H         1 UNK         0.0600 
    209 H209       -6.1356  -26.4986  -49.5357 H         1 UNK         0.0600 
    210 H210       -2.7359  -24.2461  -49.5803 H         1 UNK         0.3000 
    211 H211       -3.2506  -23.6749  -52.3550 H         1 UNK         0.0600 
    212 H212       -1.0508  -24.5245  -51.5517 H         1 UNK         0.0600 
    213 H213       -0.8550  -22.9680  -52.3448 H         1 UNK         0.0600 
    214 H214       -0.8140  -23.0656  -50.5900 H         1 UNK         0.0600 
    215 H215       -2.9616  -21.7181  -49.3933 H         1 UNK         0.3000 
    216 H216       -3.0423  -19.1569  -50.7198 H         1 UNK         0.0600 
    217 H217       -3.5968  -19.9762  -47.8155 H         1 UNK         0.0600 
    218 H218       -3.5273  -18.3107  -48.3715 H         1 UNK         0.0600 
    219 H219       -2.0957  -19.3110  -48.4591 H         1 UNK         0.0600 
    220 H220       -5.5022  -21.4143  -49.6014 H         1 UNK         0.3000 
    221 H221       -7.7379  -19.5611  -49.8172 H         1 UNK         0.0600 
    222 H222       -7.6852  -22.6161  -49.5560 H         1 UNK         0.0600 
    223 H223       -7.7942  -21.4700  -48.2211 H         1 UNK         0.0600 
    224 H224       -9.0998  -21.5876  -49.3903 H         1 UNK         0.0600 
    225 H225       -6.3401  -22.2117  -51.7950 H         1 UNK         0.3000 
    226 H226       -8.1776  -22.0036  -53.9738 H         1 UNK         0.0600 
    227 H227       -6.8070  -24.0240  -53.5545 H         1 UNK         0.0600 
    228 H228       -6.4679  -23.3951  -55.1602 H         1 UNK         0.0600 
    229 H229       -5.3236  -23.1223  -53.8499 H         1 UNK         0.0600 
    230 H230       -4.9201  -20.6246  -53.4251 H         1 UNK         0.3000 
    231 H231       -3.7356  -18.9961  -54.2454 H         1 UNK         0.0600 
    232 H232       -6.3204  -17.7559  -55.3188 H         1 UNK         0.0600 
    233 H233       -4.8005  -16.9224  -55.0249 H         1 UNK         0.0600 
    234 H234       -5.7118  -17.5741  -53.6733 H         1 UNK         0.0600 
    235 H235       -4.4646  -21.3648  -55.9935 H         1 UNK         0.3000 
    236 H236       -4.4953  -20.6511  -58.7167 H         1 UNK         0.0600 
    237 H237       -3.5102  -23.2208  -57.3614 H         1 UNK         0.0600 
    238 H238       -5.1688  -22.8786  -57.8557 H         1 UNK         0.0600 
    239 H239       -3.9103  -23.0594  -59.0673 H         1 UNK         0.0600 
    240 H240       -1.8099  -20.8562  -56.4936 H         1 UNK         0.3000 
    241 H241        0.2777  -20.7236  -58.5142 H         1 UNK         0.0600 
    242 H242       -0.8621  -16.9425  -57.8673 H         1 UNK         0.3800 
    243 H243       -1.9242  -18.2781  -57.5092 H         1 UNK         0.3800 
    244 H244        0.8880  -21.8897  -56.5483 H         1 UNK         0.0800 
    245 H245        1.8065  -20.4216  -56.5224 H         1 UNK         0.0800 
    246 H246        0.8496  -18.2022  -54.9903 H         1 UNK         0.0800 
    247 H247        2.1304  -19.2171  -54.3664 H         1 UNK         0.0800 
@<TRIPOS>BOND
     1    1    2 1    
     2    1  127 1    
     3    1  128 1    
     4    1  129 1    
     5    2    3 2    
     6    2    4 am   BACKBONE|DICT|INTERRES
     7    4    5 1    
     8    4  130 1    
     9    5    6 1    
    10    5   65 1    
    11    5  131 1    
    12    6    7 1    
    13    6  132 1    
    14    6  133 1    
    15    7    8 1    
    16    8    9 1    
    17    8  134 1    
    18    8  135 1    
    19    9   10 ar   
    20    9   14 ar   
    21   10   11 ar   
    22   10  136 1    
    23   11   12 ar   
    24   11  126 1    
    25   12   13 ar   
    26   12  137 1    
    27   13   14 ar   
    28   13   15 1    
    29   14  138 1    
    30   15   16 1    
    31   15  139 1    
    32   15  140 1    
    33   16   17 1    
    34   17   18 1    
    35   17  141 1    
    36   17  142 1    
    37   18   19 1    
    38   18   67 1    
    39   18  143 1    
    40   19   20 am   BACKBONE|DICT|INTERRES
    41   19  144 1    
    42   20   21 2    
    43   20   22 1    
    44   22   23 1    
    45   22   24 1    
    46   22  145 1    
    47   23  146 1    
    48   23  147 1    
    49   23  148 1    
    50   24   25 am   BACKBONE|DICT|INTERRES
    51   24  149 1    
    52   25   26 2    
    53   25   27 1    
    54   27   28 1    
    55   27   29 1    
    56   27  150 1    
    57   28  151 1    
    58   28  152 1    
    59   28  153 1    
    60   29   30 am   BACKBONE|DICT|INTERRES
    61   29  154 1    
    62   30   31 2    
    63   30   32 1    
    64   32   33 1    
    65   32   34 1    
    66   32  155 1    
    67   33  156 1    
    68   33  157 1    
    69   33  158 1    
    70   34   35 am   BACKBONE|DICT|INTERRES
    71   34  159 1    
    72   35   36 2    
    73   35   37 1    
    74   37   38 1    
    75   37   39 1    
    76   37  160 1    
    77   38  161 1    
    78   38  162 1    
    79   38  163 1    
    80   39   40 am   BACKBONE|DICT|INTERRES
    81   39  164 1    
    82   40   41 2    
    83   40   42 1    
    84   42   43 1    
    85   42   44 1    
    86   42  165 1    
    87   43  166 1    
    88   43  167 1    
    89   43  168 1    
    90   44   45 am   BACKBONE|DICT|INTERRES
    91   44  169 1    
    92   45   46 2    
    93   45   47 1    
    94   47   48 1    
    95   47   49 1    
    96   47  170 1    
    97   48  171 1    
    98   48  172 1    
    99   48  173 1    
   100   49   50 am   BACKBONE|DICT|INTERRES
   101   49  174 1    
   102   50   51 2    
   103   50   52 1    
   104   52   53 1    
   105   52   54 1    
   106   52  175 1    
   107   53  176 1    
   108   53  177 1    
   109   53  178 1    
   110   54   55 am   BACKBONE|DICT|INTERRES
   111   54  179 1    
   112   55   56 2    
   113   55   57 1    
   114   57   58 1    
   115   57   59 1    
   116   57  180 1    
   117   58  181 1    
   118   58  182 1    
   119   58  183 1    
   120   59   60 am   BACKBONE|DICT|INTERRES
   121   59  184 1    
   122   60   61 2    
   123   60   62 1    
   124   62   63 1    
   125   62   64 1    
   126   62  185 1    
   127   63  186 1    
   128   63  187 1    
   129   63  188 1    
   130   64   65 am   BACKBONE|DICT|INTERRES
   131   64  189 1    
   132   65   66 2    
   133   67   68 2    
   134   67   69 am   BACKBONE|DICT|INTERRES
   135   69   70 1    
   136   69  190 1    
   137   70   71 1    
   138   70   72 1    
   139   70  191 1    
   140   71  192 1    
   141   71  193 1    
   142   71  194 1    
   143   72   73 2    
   144   72   74 am   BACKBONE|DICT|INTERRES
   145   74   75 1    
   146   74  195 1    
   147   75   76 1    
   148   75   77 1    
   149   75  196 1    
   150   76  197 1    
   151   76  198 1    
   152   76  199 1    
   153   77   78 2    
   154   77   79 am   BACKBONE|DICT|INTERRES
   155   79   80 1    
   156   79  200 1    
   157   80   81 1    
   158   80   82 1    
   159   80  201 1    
   160   81  202 1    
   161   81  203 1    
   162   81  204 1    
   163   82   83 2    
   164   82   84 am   BACKBONE|DICT|INTERRES
   165   84   85 1    
   166   84  205 1    
   167   85   86 1    
   168   85   87 1    
   169   85  206 1    
   170   86  207 1    
   171   86  208 1    
   172   86  209 1    
   173   87   88 2    
   174   87   89 am   BACKBONE|DICT|INTERRES
   175   89   90 1    
   176   89  210 1    
   177   90   91 1    
   178   90   92 1    
   179   90  211 1    
   180   91  212 1    
   181   91  213 1    
   182   91  214 1    
   183   92   93 2    
   184   92   94 am   BACKBONE|DICT|INTERRES
   185   94   95 1    
   186   94  215 1    
   187   95   96 1    
   188   95   97 1    
   189   95  216 1    
   190   96  217 1    
   191   96  218 1    
   192   96  219 1    
   193   97   98 2    
   194   97   99 am   BACKBONE|DICT|INTERRES
   195   99  100 1    
   196   99  220 1    
   197  100  101 1    
   198  100  102 1    
   199  100  221 1    
   200  101  222 1    
   201  101  223 1    
   202  101  224 1    
   203  102  103 2    
   204  102  104 am   BACKBONE|DICT|INTERRES
   205  104  105 1    
   206  104  225 1    
   207  105  106 1    
   208  105  107 1    
   209  105  226 1    
   210  106  227 1    
   211  106  228 1    
   212  106  229 1    
   213  107  108 2    
   214  107  109 am   BACKBONE|DICT|INTERRES
   215  109  110 1    
   216  109  230 1    
   217  110  111 1    
   218  110  112 1    
   219  110  231 1    
   220  111  232 1    
   221  111  233 1    
   222  111  234 1    
   223  112  113 2    
   224  112  114 am   BACKBONE|DICT|INTERRES
   225  114  115 1    
   226  114  235 1    
   227  115  116 1    
   228  115  117 1    
   229  115  236 1    
   230  116  237 1    
   231  116  238 1    
   232  116  239 1    
   233  117  118 2    
   234  117  119 am   BACKBONE|DICT|INTERRES
   235  119  120 1    
   236  119  240 1    
   237  120  121 1    
   238  120  124 1    
   239  120  241 1    
   240  121  122 am   BACKBONE|DICT|INTERRES
   241  121  123 2    
   242  122  242 1    
   243  122  243 1    
   244  124  125 1    
   245  124  244 1    
   246  124  245 1    
   247  125  126 1    
   248  126  246 1    
   249  126  247 1    
@<TRIPOS>SUBSTRUCTURE
     1 UNK         1 GROUP             0       ****    0 ROOT    
