@<TRIPOS>MOLECULE
3R540
247   249    1
SMALL
USER_CHARGES


@<TRIPOS>ATOM
      1 CA         -4.2565  -13.0298  -49.4621 C.3       0 UNK        -0.1800 
      2 C          -3.1092  -13.4641  -48.5634 C.2       0 UNK         0.5000 
      3 O          -2.6492  -12.6803  -47.7328 O.2       0 UNK        -0.5000 
      4 N          -2.6661  -14.7211  -48.6994 N.am      1 UNK        -0.5000 
      5 CA         -1.5965  -15.3289  -47.8949 C.3       1 UNK         0.1400 
      6 C6         -1.2249  -16.7366  -48.4025 C.3       23 UNK        -0.0398 
      7 S7         -0.3169  -16.7263  -49.9788 S.3       23 UNK        -0.2404 
      8 C8         -0.6305  -18.4366  -50.5100 C.3       23 UNK        -0.0205 
      9 C9          0.6395  -19.1551  -50.9278 C.ar      23 UNK        -0.0193 
     10 C10         0.9143  -19.3444  -52.2809 C.ar      23 UNK        -0.1150 
     11 C11         2.0276  -20.0801  -52.6906 C.ar      23 UNK        -0.0193 
     12 C12         2.8883  -20.6100  -51.7247 C.ar      23 UNK        -0.1150 
     13 C13         2.6413  -20.4056  -50.3617 C.ar      23 UNK        -0.0193 
     14 C14         1.5126  -19.6766  -49.9693 C.ar      23 UNK        -0.1150 
     15 C15         3.6057  -20.9628  -49.3237 C.3       23 UNK        -0.0205 
     16 S16         2.9850  -22.4943  -48.5562 S.3       23 UNK        -0.2404 
     17 C17         2.2463  -21.8358  -47.0247 C.3       23 UNK        -0.0398 
     18 CA          1.1386  -22.7304  -46.4210 C.3       11 UNK         0.1400 
     19 N           0.8565  -22.3506  -45.0340 N.am      11 UNK        -0.5000 
     20 C           0.0518  -23.0178  -44.1955 C.2       10 UNK         0.5000 
     21 O          -0.4992  -24.0816  -44.4762 O.2       10 UNK        -0.5000 
     22 CA         -0.2257  -22.3552  -42.8333 C.3       10 UNK         0.1400 
     23 CB          0.9221  -22.6200  -41.8479 C.3       10 UNK        -0.1800 
     24 N          -0.4553  -20.9137  -42.9497 N.am      10 UNK        -0.5000 
     25 C          -1.4879  -20.3635  -43.6049 C.2       9 UNK         0.5000 
     26 O          -2.3883  -21.0185  -44.1281 O.2       9 UNK        -0.5000 
     27 CA         -1.4938  -18.8295  -43.7379 C.3       9 UNK         0.1400 
     28 CB         -2.0045  -18.1772  -42.4432 C.3       9 UNK        -0.1800 
     29 N          -0.1763  -18.2902  -44.0760 N.am      9 UNK        -0.5000 
     30 C           0.5007  -18.5662  -45.1994 C.2       8 UNK         0.5000 
     31 O           0.0592  -19.2679  -46.1069 O.2       8 UNK        -0.5000 
     32 CA          1.9397  -18.0314  -45.3020 C.3       8 UNK         0.1400 
     33 CB          1.9745  -16.5764  -45.7893 C.3       8 UNK        -0.1800 
     34 N           2.6522  -18.1457  -44.0310 N.am      8 UNK        -0.5000 
     35 C           3.0190  -19.3087  -43.4749 C.2       7 UNK         0.5000 
     36 O           2.8370  -20.4056  -44.0027 O.2       7 UNK        -0.5000 
     37 CA          3.6526  -19.2302  -42.0743 C.3       7 UNK         0.1400 
     38 CB          5.1527  -18.9170  -42.1743 C.3       7 UNK        -0.1800 
     39 N           3.0013  -18.2283  -41.2284 N.am      7 UNK        -0.5000 
     40 C           1.7456  -18.3298  -40.7692 C.2       6 UNK         0.5000 
     41 O           1.0257  -19.3081  -40.9667 O.2       6 UNK        -0.5000 
     42 CA          1.1878  -17.1122  -40.0063 C.3       6 UNK         0.1400 
     43 CB          1.5572  -17.1904  -38.5178 C.3       6 UNK        -0.1800 
     44 N           1.6494  -15.8339  -40.5586 N.am      6 UNK        -0.5000 
     45 C           1.3421  -15.3917  -41.7847 C.2       5 UNK         0.5000 
     46 O           0.6148  -16.0054  -42.5670 O.2       5 UNK        -0.5000 
     47 CA          2.0120  -14.0899  -42.2380 C.3       5 UNK         0.1400 
     48 CB          3.4708  -14.3730  -42.6552 C.3       5 UNK        -0.1800 
     49 N           1.2569  -13.5329  -43.3586 N.am      5 UNK        -0.5000 
     50 C           1.4425  -12.3227  -43.8986 C.2       4 UNK         0.5000 
     51 O           2.2641  -11.5042  -43.4834 O.2       4 UNK        -0.5000 
     52 CA          0.5570  -11.9573  -45.1009 C.3       4 UNK         0.1400 
     53 CB          1.0309  -12.6746  -46.3750 C.3       4 UNK        -0.1800 
     54 N          -0.8568  -12.2486  -44.8661 N.am      4 UNK        -0.5000 
     55 C          -1.6660  -11.4885  -44.1134 C.2       3 UNK         0.5000 
     56 O          -1.2759  -10.5044  -43.4834 O.2       3 UNK        -0.5000 
     57 CA         -3.1641  -11.8490  -44.0714 C.3       3 UNK         0.1400 
     58 CB         -3.9864  -10.8029  -44.8417 C.3       3 UNK        -0.1800 
     59 N          -3.4419  -13.1637  -44.6465 N.am      3 UNK        -0.5000 
     60 C          -3.5831  -14.2928  -43.9394 C.2       2 UNK         0.5000 
     61 O          -3.5366  -14.3420  -42.7102 O.2       2 UNK        -0.5000 
     62 CA         -3.8065  -15.5932  -44.7388 C.3       2 UNK         0.1400 
     63 CB         -5.3024  -15.9319  -44.8147 C.3       2 UNK        -0.1800 
     64 N          -3.2571  -15.5633  -46.0954 N.am      2 UNK        -0.5000 
     65 C          -1.9608  -15.4026  -46.3980 C.2       1 UNK         0.5000 
     66 O          -1.0773  -15.2657  -45.5535 O.2       1 UNK        -0.5000 
     67 C          -0.1459  -22.7406  -47.2794 C.2       11 UNK         0.5000 
     68 O          -0.3983  -23.7201  -47.9813 O.2       11 UNK        -0.5000 
     69 N          -0.9645  -21.6856  -47.1541 N.am      12 UNK        -0.5000 
     70 CA         -2.2670  -21.5504  -47.8068 C.3       12 UNK         0.1400 
     71 CB         -2.8568  -20.1656  -47.5022 C.3       12 UNK        -0.1800 
     72 C          -3.2558  -22.6510  -47.3908 C.2       12 UNK         0.5000 
     73 O          -3.9214  -23.2215  -48.2521 O.2       12 UNK        -0.5000 
     74 N          -3.3121  -22.9532  -46.0863 N.am      13 UNK        -0.5000 
     75 CA         -4.1375  -24.0183  -45.5169 C.3       13 UNK         0.1400 
     76 CB         -4.1117  -23.9253  -43.9839 C.3       13 UNK        -0.1800 
     77 C          -3.7151  -25.4219  -45.9890 C.2       13 UNK         0.5000 
     78 O          -4.5827  -26.2469  -46.2769 O.2       13 UNK        -0.5000 
     79 N          -2.3990  -25.6598  -46.0802 N.am      14 UNK        -0.5000 
     80 CA         -1.8134  -26.9038  -46.5801 C.3       14 UNK         0.1400 
     81 CB         -0.3116  -26.9317  -46.2565 C.3       14 UNK        -0.1800 
     82 C          -2.0545  -27.1096  -48.0870 C.2       14 UNK         0.5000 
     83 O          -2.4008  -28.2171  -48.5001 O.2       14 UNK        -0.5000 
     84 N          -1.8781  -26.0416  -48.8769 N.am      15 UNK        -0.5000 
     85 CA         -2.1138  -26.0290  -50.3219 C.3       15 UNK         0.1400 
     86 CB         -1.4601  -24.7764  -50.9196 C.3       15 UNK        -0.1800 
     87 C          -3.6083  -26.0795  -50.6925 C.2       15 UNK         0.5000 
     88 O          -3.9551  -26.6242  -51.7414 O.2       15 UNK        -0.5000 
     89 N          -4.4556  -25.4945  -49.8356 N.am      16 UNK        -0.5000 
     90 CA         -5.9152  -25.3702  -49.8892 C.3       16 UNK         0.1400 
     91 CB         -6.6030  -26.7477  -49.9333 C.3       16 UNK        -0.1800 
     92 C          -6.4268  -24.4426  -51.0069 C.2       16 UNK         0.5000 
     93 O          -7.2186  -23.5411  -50.7298 O.2       16 UNK        -0.5000 
     94 N          -5.9760  -24.6743  -52.2449 N.am      17 UNK        -0.5000 
     95 CA         -6.3654  -23.9116  -53.4313 C.3       17 UNK         0.1400 
     96 CB         -6.0964  -24.7648  -54.6801 C.3       17 UNK        -0.1800 
     97 C          -5.6408  -22.5576  -53.5418 C.2       17 UNK         0.5000 
     98 O          -6.1967  -21.6157  -54.1090 O.2       17 UNK        -0.5000 
     99 N          -4.4120  -22.4811  -53.0150 N.am      18 UNK        -0.5000 
    100 CA        -3.5598  -21.2964  -53.0632 C.3       18 UNK         0.1400 
    101 CB        -2.0858  -21.7297  -53.0083 C.3       18 UNK        -0.1800 
    102 C         -3.9175  -20.3181  -51.9321 C.2       18 UNK         0.5000 
    103 O         -3.2341  -20.2811  -50.9101 O.2       18 UNK        -0.5000 
    104 N         -4.9884  -19.5411  -52.1314 N.am      19 UNK        -0.5000 
    105 CA        -5.3901  -18.4611  -51.2260 C.3       19 UNK         0.1400 
    106 CB        -6.8290  -18.0344  -51.5509 C.3       19 UNK        -0.1800 
    107 C         -4.4370  -17.2518  -51.2979 C.2       19 UNK         0.5000 
    108 O         -4.1961  -16.6010  -50.2799 O.2       19 UNK        -0.5000 
    109 N         -3.9009  -16.9846  -52.4950 N.am      20 UNK        -0.5000 
    110 CA        -2.9454  -15.9211  -52.7691 C.3       20 UNK         0.1400 
    111 CB        -3.6816  -14.5900  -52.9968 C.3       20 UNK        -0.1800 
    112 C         -2.1224  -16.3073  -54.0027 C.2       20 UNK         0.5000 
    113 O         -2.7044  -16.6573  -55.0327 O.2       20 UNK        -0.5000 
    114 N         -0.7905  -16.2323  -53.8743 N.am      21 UNK        -0.5000 
    115 CA         0.2261  -16.2949  -54.9375 C.3       21 UNK         0.1400 
    116 CB         0.1504  -15.0117  -55.7909 C.3       21 UNK        -0.1800 
    117 C          0.2325  -17.5618  -55.8261 C.2       21 UNK         0.5000 
    118 O          0.9182  -17.5694  -56.8492 O.2       21 UNK        -0.5000 
    119 N         -0.5105  -18.6047  -55.4308 N.am      22 UNK        -0.5000 
    120 CA        -0.7532  -19.8389  -56.1989 C.3       22 UNK         0.1400 
    121 C         -1.5717  -19.5967  -57.5061 C.2       22 UNK         0.5000 
    122 N         -2.3742  -18.5397  -57.5832 N.am      22 UNK        -0.7600 
    123 O         -1.5111  -20.3822  -58.4479 O.2       22 UNK        -0.5000 
    124 C124        0.5302  -20.7018  -56.4004 C.3       23 UNK        -0.0398 
    125 S125        1.0854  -21.5029  -54.8550 S.3       23 UNK        -0.2404 
    126 C126        2.2792  -20.3075  -54.1743 C.3       23 UNK        -0.0205 
    127 H127       -4.8136  -13.8873  -49.8391 H         1 UNK         0.0600 
    128 H128       -3.8752  -12.4616  -50.3102 H         1 UNK         0.0600 
    129 H129       -4.9506  -12.3968  -48.9094 H         1 UNK         0.0600 
    130 H130       -3.1207  -15.3399  -49.3681 H         1 UNK         0.3000 
    131 H131       -0.7158  -14.6887  -47.9752 H         1 UNK         0.0600 
    132 H132       -2.1362  -17.3239  -48.5197 H         1 UNK         0.0800 
    133 H133       -0.6000  -17.2681  -47.6851 H         1 UNK         0.0800 
    134 H134       -1.3499  -18.4184  -51.3291 H         1 UNK         0.0800 
    135 H135       -1.0998  -19.0162  -49.7159 H         1 UNK         0.0800 
    136 H136        0.2380  -18.9445  -53.0159 H         1 UNK         0.1150 
    137 H137        3.7519  -21.1819  -52.0339 H         1 UNK         0.1150 
    138 H138        1.3014  -19.5187  -48.9219 H         1 UNK         0.1150 
    139 H139        4.5681  -21.1799  -49.7897 H         1 UNK         0.0800 
    140 H140        3.8096  -20.2092  -48.5615 H         1 UNK         0.0800 
    141 H141        1.8734  -20.8271  -47.1926 H         1 UNK         0.0800 
    142 H142        3.0637  -21.7337  -46.3099 H         1 UNK         0.0800 
    143 H143        1.5155  -23.7550  -46.3903 H         1 UNK         0.0600 
    144 H144        1.3090  -21.5069  -44.6972 H         1 UNK         0.3000 
    145 H145       -1.1327  -22.8052  -42.4246 H         1 UNK         0.0600 
    146 H146        0.6968  -22.2109  -40.8629 H         1 UNK         0.0600 
    147 H147        1.8578  -22.1758  -42.1871 H         1 UNK         0.0600 
    148 H148        1.0916  -23.6904  -41.7253 H         1 UNK         0.0600 
    149 H149        0.2119  -20.3038  -42.4875 H         1 UNK         0.3000 
    150 H150       -2.1730  -18.5636  -44.5503 H         1 UNK         0.0600 
    151 H151       -3.0484  -18.4373  -42.2648 H         1 UNK         0.0600 
    152 H152       -1.9394  -17.0902  -42.4872 H         1 UNK         0.0600 
    153 H153       -1.4352  -18.5027  -41.5733 H         1 UNK         0.0600 
    154 H154        0.2247  -17.6267  -43.4184 H         1 UNK         0.3000 
    155 H155        2.4658  -18.6407  -46.0399 H         1 UNK         0.0600 
    156 H156        1.4704  -16.4717  -46.7502 H         1 UNK         0.0600 
    157 H157        2.9990  -16.2293  -45.9227 H         1 UNK         0.0600 
    158 H158        1.4839  -15.9046  -45.0868 H         1 UNK         0.0600 
    159 H159        2.7956  -17.2941  -43.5115 H         1 UNK         0.3000 
    160 H160        3.5373  -20.2072  -41.6000 H         1 UNK         0.0600 
    161 H161        5.3334  -17.9384  -42.6208 H         1 UNK         0.0600 
    162 H162        5.6652  -19.6583  -42.7889 H         1 UNK         0.0600 
    163 H163        5.6241  -18.9299  -41.1914 H         1 UNK         0.0600 
    164 H164        3.5298  -17.3966  -41.0114 H         1 UNK         0.3000 
    165 H165        0.0993  -17.1410  -40.0888 H         1 UNK         0.0600 
    166 H166        1.0991  -16.3772  -37.9547 H         1 UNK         0.0600 
    167 H167        1.2076  -18.1256  -38.0781 H         1 UNK         0.0600 
    168 H168        2.6360  -17.1392  -38.3656 H         1 UNK         0.0600 
    169 H169        2.2566  -15.2803  -39.9711 H         1 UNK         0.3000 
    170 H170        1.9915  -13.3804  -41.4085 H         1 UNK         0.0600 
    171 H171        3.5196  -15.0310  -43.5233 H         1 UNK         0.0600 
    172 H172        4.0030  -13.4558  -42.9055 H         1 UNK         0.0600 
    173 H173        4.0295  -14.8497  -41.8490 H         1 UNK         0.0600 
    174 H174        0.5436  -14.1507  -43.7311 H         1 UNK         0.3000 
    175 H175        0.6591  -10.8837  -45.2742 H         1 UNK         0.0600 
    176 H176        0.9895  -13.7583  -46.2723 H         1 UNK         0.0600 
    177 H177        0.4209  -12.3955  -47.2345 H         1 UNK         0.0600 
    178 H178        2.0629  -12.4100  -46.6080 H         1 UNK         0.0600 
    179 H179       -1.2319  -13.0753  -45.3114 H         1 UNK         0.3000 
    180 H180       -3.4779  -11.8209  -43.0259 H         1 UNK         0.0600 
    181 H181       -5.0530  -11.0211  -44.7857 H         1 UNK         0.0600 
    182 H182       -3.7061  -10.7670  -45.8953 H         1 UNK         0.0600 
    183 H183       -3.8382   -9.8045  -44.4281 H         1 UNK         0.0600 
    184 H184       -3.4661  -13.2112  -45.6573 H         1 UNK         0.3000 
    185 H185       -3.3050  -16.3962  -44.2011 H         1 UNK         0.0600 
    186 H186       -5.8578  -15.1766  -45.3722 H         1 UNK         0.0600 
    187 H187       -5.4651  -16.8955  -45.2981 H         1 UNK         0.0600 
    188 H188       -5.7404  -15.9927  -43.8175 H         1 UNK         0.0600 
    189 H189       -3.9183  -15.6454  -46.8542 H         1 UNK         0.3000 
    190 H190       -0.6631  -20.8980  -46.5851 H         1 UNK         0.3000 
    191 H191       -2.0999  -21.6288  -48.8827 H         1 UNK         0.0600 
    192 H192       -2.1242  -19.3847  -47.6817 H         1 UNK         0.0600 
    193 H193       -3.1820  -20.0753  -46.4662 H         1 UNK         0.0600 
    194 H194       -3.7201  -19.9628  -48.1369 H         1 UNK         0.0600 
    195 H195       -2.7719  -22.3938  -45.4318 H         1 UNK         0.3000 
    196 H196       -5.1649  -23.8538  -45.8481 H         1 UNK         0.0600 
    197 H197       -4.4819  -22.9586  -43.6418 H         1 UNK         0.0600 
    198 H198       -3.1041  -24.0553  -43.5889 H         1 UNK         0.0600 
    199 H199       -4.7427  -24.6934  -43.5351 H         1 UNK         0.0600 
    200 H200       -1.7500  -24.9435  -45.7686 H         1 UNK         0.3000 
    201 H201       -2.2866  -27.7341  -46.0518 H         1 UNK         0.0600 
    202 H202       -0.1398  -26.8690  -45.1818 H         1 UNK         0.0600 
    203 H203        0.2188  -26.1034  -46.7272 H         1 UNK         0.0600 
    204 H204        0.1468  -27.8575  -46.6063 H         1 UNK         0.0600 
    205 H205       -1.5295  -25.1789  -48.4653 H         1 UNK         0.3000 
    206 H206       -1.6335  -26.9072  -50.7582 H         1 UNK         0.0600 
    207 H207       -1.8688  -23.8694  -50.4727 H         1 UNK         0.0600 
    208 H208       -0.3833  -24.7735  -50.7490 H         1 UNK         0.0600 
    209 H209       -1.6200  -24.7232  -51.9972 H         1 UNK         0.0600 
    210 H210       -4.0395  -24.9711  -49.0706 H         1 UNK         0.3000 
    211 H211       -6.1951  -24.9015  -48.9443 H         1 UNK         0.0600 
    212 H212       -6.3878  -27.2862  -50.8564 H         1 UNK         0.0600 
    213 H213       -7.6862  -26.6420  -49.8642 H         1 UNK         0.0600 
    214 H214       -6.2828  -27.3715  -49.0985 H         1 UNK         0.0600 
    215 H215       -5.3164  -25.4376  -52.3695 H         1 UNK         0.3000 
    216 H216       -7.4377  -23.7104  -53.3830 H         1 UNK         0.0600 
    217 H217       -6.3917  -24.2354  -55.5870 H         1 UNK         0.0600 
    218 H218       -6.6618  -25.6964  -54.6498 H         1 UNK         0.0600 
    219 H219       -5.0394  -25.0170  -54.7754 H         1 UNK         0.0600 
    220 H220       -4.0489  -23.2843  -52.5250 H         1 UNK         0.3000 
    221 H221       -3.7103  -20.7822  -54.0150 H         1 UNK         0.0600 
    222 H222       -1.8357  -22.2100  -52.0643 H         1 UNK         0.0600 
    223 H223       -1.8424  -22.4218  -53.8145 H         1 UNK         0.0600 
    224 H224       -1.4278  -20.8671  -53.1090 H         1 UNK         0.0600 
    225 H225       -5.5471  -19.6851  -52.9629 H         1 UNK         0.3000 
    226 H226       -5.3697  -18.8400  -50.2018 H         1 UNK         0.0600 
    227 H227       -7.5216  -18.8688  -51.4389 H         1 UNK         0.0600 
    228 H228       -7.1621  -17.2432  -50.8780 H         1 UNK         0.0600 
    229 H229       -6.9184  -17.6580  -52.5707 H         1 UNK         0.0600 
    230 H230       -4.1405  -17.5628  -53.2887 H         1 UNK         0.3000 
    231 H231       -2.2772  -15.8082  -51.9147 H         1 UNK         0.0600 
    232 H232       -4.3507  -14.6433  -53.8564 H         1 UNK         0.0600 
    233 H233       -2.9750  -13.7796  -53.1786 H         1 UNK         0.0600 
    234 H234       -4.2795  -14.3128  -52.1306 H         1 UNK         0.0600 
    235 H235       -0.4237  -15.9864  -52.9647 H         1 UNK         0.3000 
    236 H236        1.1901  -16.2939  -54.4263 H         1 UNK         0.0600 
    237 H237       -0.7738  -14.9675  -56.3686 H         1 UNK         0.0600 
    238 H238        0.1982  -14.1191  -55.1668 H         1 UNK         0.0600 
    239 H239        0.9805  -14.9531  -56.4958 H         1 UNK         0.0600 
    240 H240       -1.0812  -18.4791  -54.6100 H         1 UNK         0.3000 
    241 H241       -1.4363  -20.4299  -55.5897 H         1 UNK         0.0600 
    242 H242       -2.9124  -18.3857  -58.4209 H         1 UNK         0.3800 
    243 H243       -2.4528  -17.8910  -56.8090 H         1 UNK         0.3800 
    244 H244        1.3430  -20.1261  -56.8427 H         1 UNK         0.0800 
    245 H245        0.3368  -21.5164  -57.0993 H         1 UNK         0.0800 
    246 H246        2.2165  -19.3549  -54.6992 H         1 UNK         0.0800 
    247 H247        3.2900  -20.6813  -54.3434 H         1 UNK         0.0800 
@<TRIPOS>BOND
     1    1    2 1    
     2    1  127 1    
     3    1  128 1    
     4    1  129 1    
     5    2    3 2    
     6    2    4 am   BACKBONE|DICT|INTERRES
     7    4    5 1    
     8    4  130 1    
     9    5    6 1    
    10    5   65 1    
    11    5  131 1    
    12    6    7 1    
    13    6  132 1    
    14    6  133 1    
    15    7    8 1    
    16    8    9 1    
    17    8  134 1    
    18    8  135 1    
    19    9   10 ar   
    20    9   14 ar   
    21   10   11 ar   
    22   10  136 1    
    23   11   12 ar   
    24   11  126 1    
    25   12   13 ar   
    26   12  137 1    
    27   13   14 ar   
    28   13   15 1    
    29   14  138 1    
    30   15   16 1    
    31   15  139 1    
    32   15  140 1    
    33   16   17 1    
    34   17   18 1    
    35   17  141 1    
    36   17  142 1    
    37   18   19 1    
    38   18   67 1    
    39   18  143 1    
    40   19   20 am   BACKBONE|DICT|INTERRES
    41   19  144 1    
    42   20   21 2    
    43   20   22 1    
    44   22   23 1    
    45   22   24 1    
    46   22  145 1    
    47   23  146 1    
    48   23  147 1    
    49   23  148 1    
    50   24   25 am   BACKBONE|DICT|INTERRES
    51   24  149 1    
    52   25   26 2    
    53   25   27 1    
    54   27   28 1    
    55   27   29 1    
    56   27  150 1    
    57   28  151 1    
    58   28  152 1    
    59   28  153 1    
    60   29   30 am   BACKBONE|DICT|INTERRES
    61   29  154 1    
    62   30   31 2    
    63   30   32 1    
    64   32   33 1    
    65   32   34 1    
    66   32  155 1    
    67   33  156 1    
    68   33  157 1    
    69   33  158 1    
    70   34   35 am   BACKBONE|DICT|INTERRES
    71   34  159 1    
    72   35   36 2    
    73   35   37 1    
    74   37   38 1    
    75   37   39 1    
    76   37  160 1    
    77   38  161 1    
    78   38  162 1    
    79   38  163 1    
    80   39   40 am   BACKBONE|DICT|INTERRES
    81   39  164 1    
    82   40   41 2    
    83   40   42 1    
    84   42   43 1    
    85   42   44 1    
    86   42  165 1    
    87   43  166 1    
    88   43  167 1    
    89   43  168 1    
    90   44   45 am   BACKBONE|DICT|INTERRES
    91   44  169 1    
    92   45   46 2    
    93   45   47 1    
    94   47   48 1    
    95   47   49 1    
    96   47  170 1    
    97   48  171 1    
    98   48  172 1    
    99   48  173 1    
   100   49   50 am   BACKBONE|DICT|INTERRES
   101   49  174 1    
   102   50   51 2    
   103   50   52 1    
   104   52   53 1    
   105   52   54 1    
   106   52  175 1    
   107   53  176 1    
   108   53  177 1    
   109   53  178 1    
   110   54   55 am   BACKBONE|DICT|INTERRES
   111   54  179 1    
   112   55   56 2    
   113   55   57 1    
   114   57   58 1    
   115   57   59 1    
   116   57  180 1    
   117   58  181 1    
   118   58  182 1    
   119   58  183 1    
   120   59   60 am   BACKBONE|DICT|INTERRES
   121   59  184 1    
   122   60   61 2    
   123   60   62 1    
   124   62   63 1    
   125   62   64 1    
   126   62  185 1    
   127   63  186 1    
   128   63  187 1    
   129   63  188 1    
   130   64   65 am   BACKBONE|DICT|INTERRES
   131   64  189 1    
   132   65   66 2    
   133   67   68 2    
   134   67   69 am   BACKBONE|DICT|INTERRES
   135   69   70 1    
   136   69  190 1    
   137   70   71 1    
   138   70   72 1    
   139   70  191 1    
   140   71  192 1    
   141   71  193 1    
   142   71  194 1    
   143   72   73 2    
   144   72   74 am   BACKBONE|DICT|INTERRES
   145   74   75 1    
   146   74  195 1    
   147   75   76 1    
   148   75   77 1    
   149   75  196 1    
   150   76  197 1    
   151   76  198 1    
   152   76  199 1    
   153   77   78 2    
   154   77   79 am   BACKBONE|DICT|INTERRES
   155   79   80 1    
   156   79  200 1    
   157   80   81 1    
   158   80   82 1    
   159   80  201 1    
   160   81  202 1    
   161   81  203 1    
   162   81  204 1    
   163   82   83 2    
   164   82   84 am   BACKBONE|DICT|INTERRES
   165   84   85 1    
   166   84  205 1    
   167   85   86 1    
   168   85   87 1    
   169   85  206 1    
   170   86  207 1    
   171   86  208 1    
   172   86  209 1    
   173   87   88 2    
   174   87   89 am   BACKBONE|DICT|INTERRES
   175   89   90 1    
   176   89  210 1    
   177   90   91 1    
   178   90   92 1    
   179   90  211 1    
   180   91  212 1    
   181   91  213 1    
   182   91  214 1    
   183   92   93 2    
   184   92   94 am   BACKBONE|DICT|INTERRES
   185   94   95 1    
   186   94  215 1    
   187   95   96 1    
   188   95   97 1    
   189   95  216 1    
   190   96  217 1    
   191   96  218 1    
   192   96  219 1    
   193   97   98 2    
   194   97   99 am   BACKBONE|DICT|INTERRES
   195   99  100 1    
   196   99  220 1    
   197  100  101 1    
   198  100  102 1    
   199  100  221 1    
   200  101  222 1    
   201  101  223 1    
   202  101  224 1    
   203  102  103 2    
   204  102  104 am   BACKBONE|DICT|INTERRES
   205  104  105 1    
   206  104  225 1    
   207  105  106 1    
   208  105  107 1    
   209  105  226 1    
   210  106  227 1    
   211  106  228 1    
   212  106  229 1    
   213  107  108 2    
   214  107  109 am   BACKBONE|DICT|INTERRES
   215  109  110 1    
   216  109  230 1    
   217  110  111 1    
   218  110  112 1    
   219  110  231 1    
   220  111  232 1    
   221  111  233 1    
   222  111  234 1    
   223  112  113 2    
   224  112  114 am   BACKBONE|DICT|INTERRES
   225  114  115 1    
   226  114  235 1    
   227  115  116 1    
   228  115  117 1    
   229  115  236 1    
   230  116  237 1    
   231  116  238 1    
   232  116  239 1    
   233  117  118 2    
   234  117  119 am   BACKBONE|DICT|INTERRES
   235  119  120 1    
   236  119  240 1    
   237  120  121 1    
   238  120  124 1    
   239  120  241 1    
   240  121  122 am   BACKBONE|DICT|INTERRES
   241  121  123 2    
   242  122  242 1    
   243  122  243 1    
   244  124  125 1    
   245  124  244 1    
   246  124  245 1    
   247  125  126 1    
   248  126  246 1    
   249  126  247 1    
@<TRIPOS>SUBSTRUCTURE
     1 UNK         1 GROUP             0       ****    0 ROOT    
