@<TRIPOS>MOLECULE
3R540
247   249    1
SMALL
USER_CHARGES


@<TRIPOS>ATOM
      1 CA          1.6353  -12.9885  -51.4940 C.3       0 UNK        -0.1800 
      2 C           0.4444  -12.7377  -50.5796 C.2       0 UNK         0.5000 
      3 O          -0.6168  -12.3361  -51.0544 O.2       0 UNK        -0.5000 
      4 N           0.6244  -12.9682  -49.2762 N.am      1 UNK        -0.5000 
      5 CA         -0.3815  -12.8726  -48.2215 C.3       1 UNK         0.1400 
      6 C6         -0.8851  -11.4130  -47.9978 C.3       23 UNK        -0.0398 
      7 S7         -2.3142  -11.2253  -46.8678 S.3       23 UNK        -0.2404 
      8 C8         -3.7483  -11.5443  -47.9545 C.3       23 UNK        -0.0205 
      9 C9         -3.8008  -12.9817  -48.4585 C.ar      23 UNK        -0.0193 
     10 C10        -3.9082  -13.2426  -49.8287 C.ar      23 UNK        -0.1150 
     11 C11        -3.8963  -14.5577  -50.3031 C.ar      23 UNK        -0.0193 
     12 C12        -3.7622  -15.6154  -49.4008 C.ar      23 UNK        -0.1150 
     13 C13        -3.6394  -15.3671  -48.0329 C.ar      23 UNK        -0.0193 
     14 C14        -3.6993  -14.0529  -47.5630 C.ar      23 UNK        -0.1150 
     15 C15        -3.3638  -16.5109  -47.0748 C.3       23 UNK        -0.0205 
     16 S16        -1.5827  -16.8822  -47.0695 S.3       23 UNK        -0.2404 
     17 C17        -1.4548  -18.0297  -45.6666 C.3       23 UNK        -0.0398 
     18 CA         -1.2349  -19.4936  -46.1140 C.3       11 UNK         0.1400 
     19 N          -0.5396  -20.2636  -45.0813 N.am      11 UNK        -0.5000 
     20 C          -0.1084  -21.5255  -45.2092 C.2       10 UNK         0.5000 
     21 O          -0.1833  -22.1752  -46.2505 O.2       10 UNK        -0.5000 
     22 CA          0.4452  -22.1896  -43.9368 C.3       10 UNK         0.1400 
     23 CB          1.9233  -21.8277  -43.7231 C.3       10 UNK        -0.1800 
     24 N          -0.3358  -21.8220  -42.7537 N.am      10 UNK        -0.5000 
     25 C          -1.5989  -22.2169  -42.5329 C.2       9 UNK         0.5000 
     26 O          -2.2164  -22.9765  -43.2784 O.2       9 UNK        -0.5000 
     27 CA         -2.3054  -21.6244  -41.2996 C.3       9 UNK         0.1400 
     28 CB         -1.9332  -22.4094  -40.0331 C.3       9 UNK        -0.1800 
     29 N          -1.9931  -20.2079  -41.1020 N.am      9 UNK        -0.5000 
     30 C          -2.3575  -19.2237  -41.9371 C.2       8 UNK         0.5000 
     31 O          -3.0504  -19.4003  -42.9378 O.2       8 UNK        -0.5000 
     32 CA         -1.7965  -17.8187  -41.6406 C.3       8 UNK         0.1400 
     33 CB         -2.7362  -17.0406  -40.7090 C.3       8 UNK        -0.1800 
     34 N          -0.4507  -17.8600  -41.0596 N.am      8 UNK        -0.5000 
     35 C           0.6233  -18.3354  -41.7018 C.2       7 UNK         0.5000 
     36 O           0.5986  -18.7213  -42.8748 O.2       7 UNK        -0.5000 
     37 CA          1.9101  -18.4813  -40.8795 C.3       7 UNK         0.1400 
     38 CB          1.7997  -19.6892  -39.9268 C.3       7 UNK        -0.1800 
     39 N           3.0141  -18.6696  -41.8105 N.am      7 UNK        -0.5000 
     40 C           4.3213  -18.6339  -41.5316 C.2       6 UNK         0.5000 
     41 O           4.7803  -18.4581  -40.4023 O.2       6 UNK        -0.5000 
     42 CA          5.2829  -18.8144  -42.7247 C.3       6 UNK         0.1400 
     43 CB          5.6819  -20.2911  -42.8712 C.3       6 UNK        -0.1800 
     44 N           4.7293  -18.3409  -43.9982 N.am      6 UNK        -0.5000 
     45 C           4.4508  -17.0590  -44.2709 C.2       5 UNK         0.5000 
     46 O           4.6597  -16.1360  -43.4797 O.2       5 UNK        -0.5000 
     47 CA          3.7989  -16.7866  -45.6427 C.3       5 UNK         0.1400 
     48 CB          2.3361  -17.2639  -45.6392 C.3       5 UNK        -0.1800 
     49 N           3.8278  -15.3683  -46.0006 N.am      5 UNK        -0.5000 
     50 C           4.9310  -14.6582  -46.2768 C.2       4 UNK         0.5000 
     51 O           6.0554  -15.1512  -46.3793 O.2       4 UNK        -0.5000 
     52 CA          4.7506  -13.1405  -46.4608 C.3       4 UNK         0.1400 
     53 CB          4.5016  -12.7996  -47.9391 C.3       4 UNK        -0.1800 
     54 N           3.6424  -12.6284  -45.6516 N.am      4 UNK        -0.5000 
     55 C           3.7604  -12.1845  -44.3917 C.2       3 UNK         0.5000 
     56 O           4.8361  -12.0927  -43.7990 O.2       3 UNK        -0.5000 
     57 CA          2.4663  -11.7565  -43.6679 C.3       3 UNK         0.1400 
     58 CB          2.2489  -10.2422  -43.8108 C.3       3 UNK        -0.1800 
     59 N           1.2761  -12.4519  -44.1585 N.am      3 UNK        -0.5000 
     60 C           0.9764  -13.7311  -43.8950 C.2       2 UNK         0.5000 
     61 O           1.6212  -14.4393  -43.1234 O.2       2 UNK        -0.5000 
     62 CA         -0.2327  -14.3341  -44.6381 C.3       2 UNK         0.1400 
     63 CB         -1.4724  -14.3625  -43.7320 C.3       2 UNK        -0.1800 
     64 N          -0.5768  -13.6660  -45.8973 N.am      2 UNK        -0.5000 
     65 C           0.2204  -13.5386  -46.9649 C.2       1 UNK         0.5000 
     66 O           1.3952  -13.9201  -46.9731 O.2       1 UNK        -0.5000 
     67 C          -2.5596  -20.1643  -46.5368 C.2       11 UNK         0.5000 
     68 O          -2.8062  -20.3345  -47.7312 O.2       11 UNK        -0.5000 
     69 N          -3.3647  -20.5759  -45.5468 N.am      12 UNK        -0.5000 
     70 CA         -4.6118  -21.3135  -45.7427 C.3       12 UNK         0.1400 
     71 CB         -5.3454  -21.4548  -44.4009 C.3       12 UNK        -0.1800 
     72 C          -4.3905  -22.6878  -46.3985 C.2       12 UNK         0.5000 
     73 O          -5.1251  -23.0382  -47.3207 O.2       12 UNK        -0.5000 
     74 N          -3.3620  -23.4205  -45.9466 N.am      13 UNK        -0.5000 
     75 CA         -2.9489  -24.7052  -46.5149 C.3       13 UNK         0.1400 
     76 CB         -1.8603  -25.3379  -45.6356 C.3       13 UNK        -0.1800 
     77 C          -2.4761  -24.5908  -47.9761 C.2       13 UNK         0.5000 
     78 O          -2.8202  -25.4493  -48.7873 O.2       13 UNK        -0.5000 
     79 N          -1.7309  -23.5212  -48.2920 N.am      14 UNK        -0.5000 
     80 CA         -1.3073  -23.1722  -49.6475 C.3       14 UNK         0.1400 
     81 CB         -0.3057  -22.0081  -49.6024 C.3       14 UNK        -0.1800 
     82 C          -2.5032  -22.8461  -50.5587 C.2       14 UNK         0.5000 
     83 O          -2.6055  -23.4052  -51.6530 O.2       14 UNK        -0.5000 
     84 N          -3.4057  -21.9806  -50.0760 N.am      15 UNK        -0.5000 
     85 CA         -4.6319  -21.5829  -50.7687 C.3       15 UNK         0.1400 
     86 CB         -5.3500  -20.4951  -49.9580 C.3       15 UNK        -0.1800 
     87 C          -5.5791  -22.7624  -51.0605 C.2       15 UNK         0.5000 
     88 O          -6.1858  -22.7998  -52.1337 O.2       15 UNK        -0.5000 
     89 N          -5.6508  -23.7229  -50.1294 N.am      16 UNK        -0.5000 
     90 CA         -6.4008  -24.9751  -50.2258 C.3       16 UNK         0.1400 
     91 CB         -6.5841  -25.5544  -48.8119 C.3       16 UNK        -0.1800 
     92 C          -5.7547  -25.9861  -51.1995 C.2       16 UNK         0.5000 
     93 O          -5.3290  -27.0664  -50.7896 O.2       16 UNK        -0.5000 
     94 N          -5.7088  -25.6093  -52.4832 N.am      17 UNK        -0.5000 
     95 CA         -5.3445  -26.3982  -53.6681 C.3       17 UNK         0.1400 
     96 CB         -6.2681  -27.6247  -53.8111 C.3       17 UNK        -0.1800 
     97 C          -3.8609  -26.8031  -53.8058 C.2       17 UNK         0.5000 
     98 O          -3.4789  -27.2382  -54.8929 O.2       17 UNK        -0.5000 
     99 N          -3.0451  -26.6614  -52.7513 N.am      18 UNK        -0.5000 
    100 CA        -1.6226  -27.0195  -52.7615 C.3       18 UNK         0.1400 
    101 CB        -1.0836  -27.0607  -51.3253 C.3       18 UNK        -0.1800 
    102 C         -0.7925  -26.0785  -53.6544 C.2       18 UNK         0.5000 
    103 O         -0.0788  -26.5493  -54.5410 O.2       18 UNK        -0.5000 
    104 N         -0.9481  -24.7682  -53.4336 N.am      19 UNK        -0.5000 
    105 CA        -0.5240  -23.7087  -54.3507 C.3       19 UNK         0.1400 
    106 CB         0.0922  -22.5511  -53.5493 C.3       19 UNK        -0.1800 
    107 C         -1.7247  -23.2127  -55.1792 C.2       19 UNK         0.5000 
    108 O         -1.5283  -22.7837  -56.3157 O.2       19 UNK        -0.5000 
    109 N         -2.9306  -23.3207  -54.5954 N.am      20 UNK        -0.5000 
    110 CA        -4.2545  -22.9801  -55.1189 C.3       20 UNK         0.1400 
    111 CB        -4.5303  -23.6293  -56.4888 C.3       20 UNK        -0.1800 
    112 C         -4.5008  -21.4639  -55.1403 C.2       20 UNK         0.5000 
    113 O         -3.7846  -20.7287  -55.8247 O.2       20 UNK        -0.5000 
    114 N         -5.5185  -21.0331  -54.3804 N.am      21 UNK        -0.5000 
    115 CA        -6.0288  -19.6679  -54.1929 C.3       21 UNK         0.1400 
    116 CB        -6.5694  -19.0819  -55.5117 C.3       21 UNK        -0.1800 
    117 C         -5.0257  -18.7156  -53.5163 C.2       21 UNK         0.5000 
    118 O         -5.3123  -18.1950  -52.4399 O.2       21 UNK        -0.5000 
    119 N         -3.8669  -18.5324  -54.1491 N.am      22 UNK        -0.5000 
    120 CA        -2.7161  -17.7684  -53.6595 C.3       22 UNK         0.1400 
    121 C         -1.3521  -18.3440  -54.1458 C.2       22 UNK         0.5000 
    122 N         -1.3078  -19.4257  -54.9185 N.am      22 UNK        -0.7600 
    123 O         -0.3014  -17.8081  -53.8071 O.2       22 UNK        -0.5000 
    124 C124       -2.8687  -16.2442  -53.9402 C.3       23 UNK        -0.0398 
    125 S125       -2.3787  -15.2264  -52.5087 S.3       23 UNK        -0.2404 
    126 C126       -4.0074  -14.8505  -51.7887 C.3       23 UNK        -0.0205 
    127 H127        1.3850  -13.7501  -52.2326 H         1 UNK         0.0600 
    128 H128        2.5099  -13.3277  -50.9380 H         1 UNK         0.0600 
    129 H129        1.9022  -12.0734  -52.0225 H         1 UNK         0.0600 
    130 H130        1.5060  -13.3331  -48.9356 H         1 UNK         0.3000 
    131 H131       -1.2075  -13.5043  -48.5414 H         1 UNK         0.0600 
    132 H132       -0.0702  -10.7946  -47.6186 H         1 UNK         0.0800 
    133 H133       -1.1724  -10.9606  -48.9466 H         1 UNK         0.0800 
    134 H134       -3.7263  -10.8385  -48.7863 H         1 UNK         0.0800 
    135 H135       -4.6633  -11.3373  -47.3984 H         1 UNK         0.0800 
    136 H136       -3.9810  -12.4231  -50.5298 H         1 UNK         0.1150 
    137 H137       -3.7156  -16.6312  -49.7693 H         1 UNK         0.1150 
    138 H138       -3.6062  -13.8600  -46.5039 H         1 UNK         0.1150 
    139 H139       -3.6942  -16.2479  -46.0689 H         1 UNK         0.0800 
    140 H140       -3.9250  -17.3984  -47.3717 H         1 UNK         0.0800 
    141 H141       -2.3194  -17.9272  -45.0100 H         1 UNK         0.0800 
    142 H142       -0.6015  -17.6930  -45.0782 H         1 UNK         0.0800 
    143 H143       -0.5758  -19.4939  -46.9850 H         1 UNK         0.0600 
    144 H144       -0.3734  -19.7906  -44.1989 H         1 UNK         0.3000 
    145 H145        0.3775  -23.2718  -44.0649 H         1 UNK         0.0600 
    146 H146        2.3193  -22.2940  -42.8208 H         1 UNK         0.0600 
    147 H147        2.5304  -22.1737  -44.5605 H         1 UNK         0.0600 
    148 H148        2.0726  -20.7524  -43.6384 H         1 UNK         0.0600 
    149 H149        0.0861  -21.1649  -42.1165 H         1 UNK         0.3000 
    150 H150       -3.3823  -21.7164  -41.4558 H         1 UNK         0.0600 
    151 H151       -2.1691  -23.4683  -40.1476 H         1 UNK         0.0600 
    152 H152       -2.4876  -22.0463  -39.1675 H         1 UNK         0.0600 
    153 H153       -0.8689  -22.3324  -39.8070 H         1 UNK         0.0600 
    154 H154       -1.4330  -19.9727  -40.2967 H         1 UNK         0.3000 
    155 H155       -1.7375  -17.2827  -42.5898 H         1 UNK         0.0600 
    156 H156       -2.8205  -17.5161  -39.7311 H         1 UNK         0.0600 
    157 H157       -2.3847  -16.0198  -40.5579 H         1 UNK         0.0600 
    158 H158       -3.7398  -16.9779  -41.1319 H         1 UNK         0.0600 
    159 H159       -0.3616  -17.5598  -40.0993 H         1 UNK         0.3000 
    160 H160        2.0720  -17.5632  -40.3115 H         1 UNK         0.0600 
    161 H161        1.6754  -20.6237  -40.4753 H         1 UNK         0.0600 
    162 H162        0.9495  -19.5869  -39.2516 H         1 UNK         0.0600 
    163 H163        2.6873  -19.7884  -39.3024 H         1 UNK         0.0600 
    164 H164        2.7150  -18.7791  -42.7709 H         1 UNK         0.3000 
    165 H165        6.1843  -18.2358  -42.5117 H         1 UNK         0.0600 
    166 H166        6.4222  -20.4242  -43.6603 H         1 UNK         0.0600 
    167 H167        6.1221  -20.6698  -41.9477 H         1 UNK         0.0600 
    168 H168        4.8223  -20.9199  -43.1060 H         1 UNK         0.0600 
    169 H169        4.5400  -19.0456  -44.6960 H         1 UNK         0.3000 
    170 H170        4.3501  -17.3385  -46.4066 H         1 UNK         0.0600 
    171 H171        2.2730  -18.3487  -45.5467 H         1 UNK         0.0600 
    172 H172        1.7840  -16.8381  -44.8016 H         1 UNK         0.0600 
    173 H173        1.8201  -16.9874  -46.5593 H         1 UNK         0.0600 
    174 H174        2.9411  -14.8806  -45.9858 H         1 UNK         0.3000 
    175 H175        5.6798  -12.6534  -46.1577 H         1 UNK         0.0600 
    176 H176        5.3474  -13.1076  -48.5551 H         1 UNK         0.0600 
    177 H177        3.6164  -13.3012  -48.3291 H         1 UNK         0.0600 
    178 H178        4.3703  -11.7267  -48.0807 H         1 UNK         0.0600 
    179 H179        2.7173  -12.7333  -46.0506 H         1 UNK         0.3000 
    180 H180        2.5890  -11.9851  -42.6070 H         1 UNK         0.0600 
    181 H181        2.1065   -9.9520  -44.8526 H         1 UNK         0.0600 
    182 H182        3.1070   -9.6869  -43.4298 H         1 UNK         0.0600 
    183 H183        1.3751   -9.9140  -43.2477 H         1 UNK         0.0600 
    184 H184        0.6750  -11.9396  -44.7866 H         1 UNK         0.3000 
    185 H185        0.0271  -15.3637  -44.8820 H         1 UNK         0.0600 
    186 H186       -1.2507  -14.8448  -42.7791 H         1 UNK         0.0600 
    187 H187       -1.8330  -13.3565  -43.5141 H         1 UNK         0.0600 
    188 H188       -2.2864  -14.9199  -44.1958 H         1 UNK         0.0600 
    189 H189       -1.5092  -13.2809  -45.9577 H         1 UNK         0.3000 
    190 H190       -3.1183  -20.3505  -44.5868 H         1 UNK         0.3000 
    191 H191       -5.2422  -20.7246  -46.4121 H         1 UNK         0.0600 
    192 H192       -4.7557  -22.0144  -43.6747 H         1 UNK         0.0600 
    193 H193       -6.2937  -21.9784  -44.5280 H         1 UNK         0.0600 
    194 H194       -5.5673  -20.4788  -43.9689 H         1 UNK         0.0600 
    195 H195       -2.8353  -23.0864  -45.1451 H         1 UNK         0.3000 
    196 H196       -3.8184  -25.3654  -46.5010 H         1 UNK         0.0600 
    197 H197       -1.5640  -26.3133  -46.0235 H         1 UNK         0.0600 
    198 H198       -2.2145  -25.4874  -44.6155 H         1 UNK         0.0600 
    199 H199       -0.9658  -24.7170  -45.5919 H         1 UNK         0.0600 
    200 H200       -1.4332  -22.8966  -47.5481 H         1 UNK         0.3000 
    201 H201       -0.7873  -24.0323  -50.0689 H         1 UNK         0.0600 
    202 H202        0.5726  -22.2697  -49.0119 H         1 UNK         0.0600 
    203 H203       -0.7418  -21.1097  -49.1670 H         1 UNK         0.0600 
    204 H204        0.0423  -21.7502  -50.6026 H         1 UNK         0.0600 
    205 H205       -3.2316  -21.5443  -49.1738 H         1 UNK         0.3000 
    206 H206       -4.3360  -21.1531  -51.7269 H         1 UNK         0.0600 
    207 H207       -6.2566  -20.1634  -50.4656 H         1 UNK         0.0600 
    208 H208       -5.6369  -20.8524  -48.9688 H         1 UNK         0.0600 
    209 H209       -4.7144  -19.6190  -49.8264 H         1 UNK         0.0600 
    210 H210       -5.1463  -23.5788  -49.2602 H         1 UNK         0.3000 
    211 H211       -7.3946  -24.7467  -50.6162 H         1 UNK         0.0600 
    212 H212       -5.6254  -25.7804  -48.3439 H         1 UNK         0.0600 
    213 H213       -7.1655  -26.4768  -48.8367 H         1 UNK         0.0600 
    214 H214       -7.1145  -24.8550  -48.1654 H         1 UNK         0.0600 
    215 H215       -6.0270  -24.6633  -52.6709 H         1 UNK         0.3000 
    216 H216       -5.5517  -25.7497  -54.5194 H         1 UNK         0.0600 
    217 H217       -6.0990  -28.1333  -54.7610 H         1 UNK         0.0600 
    218 H218       -7.3183  -27.3341  -53.7839 H         1 UNK         0.0600 
    219 H219       -6.1003  -28.3552  -53.0193 H         1 UNK         0.0600 
    220 H220       -3.4381  -26.3396  -51.8765 H         1 UNK         0.3000 
    221 H221       -1.5332  -28.0269  -53.1740 H         1 UNK         0.0600 
    222 H222       -1.1917  -26.0987  -50.8296 H         1 UNK         0.0600 
    223 H223       -1.6139  -27.8021  -50.7272 H         1 UNK         0.0600 
    224 H224       -0.0252  -27.3238  -51.3101 H         1 UNK         0.0600 
    225 H225       -1.5564  -24.4716  -52.6748 H         1 UNK         0.3000 
    226 H226        0.2334  -24.0859  -55.0409 H         1 UNK         0.0600 
    227 H227        0.8855  -22.9033  -52.8899 H         1 UNK         0.0600 
    228 H228        0.5304  -21.8101  -54.2184 H         1 UNK         0.0600 
    229 H229       -0.6511  -22.0364  -52.9403 H         1 UNK         0.0600 
    230 H230       -2.9265  -23.5951  -53.6193 H         1 UNK         0.3000 
    231 H231       -4.9581  -23.4225  -54.4150 H         1 UNK         0.0600 
    232 H232       -5.5777  -23.5097  -56.7673 H         1 UNK         0.0600 
    233 H233       -4.3159  -24.6979  -56.4729 H         1 UNK         0.0600 
    234 H234       -3.9336  -23.1798  -57.2828 H         1 UNK         0.0600 
    235 H235       -5.9852  -21.7245  -53.8005 H         1 UNK         0.3000 
    236 H236       -6.8752  -19.7629  -53.5106 H         1 UNK         0.0600 
    237 H237       -7.3486  -19.7173  -55.9323 H         1 UNK         0.0600 
    238 H238       -7.0073  -18.0966  -55.3476 H         1 UNK         0.0600 
    239 H239       -5.7892  -18.9690  -56.2648 H         1 UNK         0.0600 
    240 H240       -3.7248  -19.0559  -55.0072 H         1 UNK         0.3000 
    241 H241       -2.6945  -17.9253  -52.5791 H         1 UNK         0.0600 
    242 H242       -0.4068  -19.7586  -55.2203 H         1 UNK         0.3800 
    243 H243       -2.1400  -19.9116  -55.2343 H         1 UNK         0.3800 
    244 H244       -3.8985  -15.9950  -54.2000 H         1 UNK         0.0800 
    245 H245       -2.2800  -15.9371  -54.8062 H         1 UNK         0.0800 
    246 H246       -4.4518  -14.0074  -52.3194 H         1 UNK         0.0800 
    247 H247       -4.6827  -15.6947  -51.9294 H         1 UNK         0.0800 
@<TRIPOS>BOND
     1    1    2 1    
     2    1  127 1    
     3    1  128 1    
     4    1  129 1    
     5    2    3 2    
     6    2    4 am   BACKBONE|DICT|INTERRES
     7    4    5 1    
     8    4  130 1    
     9    5    6 1    
    10    5   65 1    
    11    5  131 1    
    12    6    7 1    
    13    6  132 1    
    14    6  133 1    
    15    7    8 1    
    16    8    9 1    
    17    8  134 1    
    18    8  135 1    
    19    9   10 ar   
    20    9   14 ar   
    21   10   11 ar   
    22   10  136 1    
    23   11   12 ar   
    24   11  126 1    
    25   12   13 ar   
    26   12  137 1    
    27   13   14 ar   
    28   13   15 1    
    29   14  138 1    
    30   15   16 1    
    31   15  139 1    
    32   15  140 1    
    33   16   17 1    
    34   17   18 1    
    35   17  141 1    
    36   17  142 1    
    37   18   19 1    
    38   18   67 1    
    39   18  143 1    
    40   19   20 am   BACKBONE|DICT|INTERRES
    41   19  144 1    
    42   20   21 2    
    43   20   22 1    
    44   22   23 1    
    45   22   24 1    
    46   22  145 1    
    47   23  146 1    
    48   23  147 1    
    49   23  148 1    
    50   24   25 am   BACKBONE|DICT|INTERRES
    51   24  149 1    
    52   25   26 2    
    53   25   27 1    
    54   27   28 1    
    55   27   29 1    
    56   27  150 1    
    57   28  151 1    
    58   28  152 1    
    59   28  153 1    
    60   29   30 am   BACKBONE|DICT|INTERRES
    61   29  154 1    
    62   30   31 2    
    63   30   32 1    
    64   32   33 1    
    65   32   34 1    
    66   32  155 1    
    67   33  156 1    
    68   33  157 1    
    69   33  158 1    
    70   34   35 am   BACKBONE|DICT|INTERRES
    71   34  159 1    
    72   35   36 2    
    73   35   37 1    
    74   37   38 1    
    75   37   39 1    
    76   37  160 1    
    77   38  161 1    
    78   38  162 1    
    79   38  163 1    
    80   39   40 am   BACKBONE|DICT|INTERRES
    81   39  164 1    
    82   40   41 2    
    83   40   42 1    
    84   42   43 1    
    85   42   44 1    
    86   42  165 1    
    87   43  166 1    
    88   43  167 1    
    89   43  168 1    
    90   44   45 am   BACKBONE|DICT|INTERRES
    91   44  169 1    
    92   45   46 2    
    93   45   47 1    
    94   47   48 1    
    95   47   49 1    
    96   47  170 1    
    97   48  171 1    
    98   48  172 1    
    99   48  173 1    
   100   49   50 am   BACKBONE|DICT|INTERRES
   101   49  174 1    
   102   50   51 2    
   103   50   52 1    
   104   52   53 1    
   105   52   54 1    
   106   52  175 1    
   107   53  176 1    
   108   53  177 1    
   109   53  178 1    
   110   54   55 am   BACKBONE|DICT|INTERRES
   111   54  179 1    
   112   55   56 2    
   113   55   57 1    
   114   57   58 1    
   115   57   59 1    
   116   57  180 1    
   117   58  181 1    
   118   58  182 1    
   119   58  183 1    
   120   59   60 am   BACKBONE|DICT|INTERRES
   121   59  184 1    
   122   60   61 2    
   123   60   62 1    
   124   62   63 1    
   125   62   64 1    
   126   62  185 1    
   127   63  186 1    
   128   63  187 1    
   129   63  188 1    
   130   64   65 am   BACKBONE|DICT|INTERRES
   131   64  189 1    
   132   65   66 2    
   133   67   68 2    
   134   67   69 am   BACKBONE|DICT|INTERRES
   135   69   70 1    
   136   69  190 1    
   137   70   71 1    
   138   70   72 1    
   139   70  191 1    
   140   71  192 1    
   141   71  193 1    
   142   71  194 1    
   143   72   73 2    
   144   72   74 am   BACKBONE|DICT|INTERRES
   145   74   75 1    
   146   74  195 1    
   147   75   76 1    
   148   75   77 1    
   149   75  196 1    
   150   76  197 1    
   151   76  198 1    
   152   76  199 1    
   153   77   78 2    
   154   77   79 am   BACKBONE|DICT|INTERRES
   155   79   80 1    
   156   79  200 1    
   157   80   81 1    
   158   80   82 1    
   159   80  201 1    
   160   81  202 1    
   161   81  203 1    
   162   81  204 1    
   163   82   83 2    
   164   82   84 am   BACKBONE|DICT|INTERRES
   165   84   85 1    
   166   84  205 1    
   167   85   86 1    
   168   85   87 1    
   169   85  206 1    
   170   86  207 1    
   171   86  208 1    
   172   86  209 1    
   173   87   88 2    
   174   87   89 am   BACKBONE|DICT|INTERRES
   175   89   90 1    
   176   89  210 1    
   177   90   91 1    
   178   90   92 1    
   179   90  211 1    
   180   91  212 1    
   181   91  213 1    
   182   91  214 1    
   183   92   93 2    
   184   92   94 am   BACKBONE|DICT|INTERRES
   185   94   95 1    
   186   94  215 1    
   187   95   96 1    
   188   95   97 1    
   189   95  216 1    
   190   96  217 1    
   191   96  218 1    
   192   96  219 1    
   193   97   98 2    
   194   97   99 am   BACKBONE|DICT|INTERRES
   195   99  100 1    
   196   99  220 1    
   197  100  101 1    
   198  100  102 1    
   199  100  221 1    
   200  101  222 1    
   201  101  223 1    
   202  101  224 1    
   203  102  103 2    
   204  102  104 am   BACKBONE|DICT|INTERRES
   205  104  105 1    
   206  104  225 1    
   207  105  106 1    
   208  105  107 1    
   209  105  226 1    
   210  106  227 1    
   211  106  228 1    
   212  106  229 1    
   213  107  108 2    
   214  107  109 am   BACKBONE|DICT|INTERRES
   215  109  110 1    
   216  109  230 1    
   217  110  111 1    
   218  110  112 1    
   219  110  231 1    
   220  111  232 1    
   221  111  233 1    
   222  111  234 1    
   223  112  113 2    
   224  112  114 am   BACKBONE|DICT|INTERRES
   225  114  115 1    
   226  114  235 1    
   227  115  116 1    
   228  115  117 1    
   229  115  236 1    
   230  116  237 1    
   231  116  238 1    
   232  116  239 1    
   233  117  118 2    
   234  117  119 am   BACKBONE|DICT|INTERRES
   235  119  120 1    
   236  119  240 1    
   237  120  121 1    
   238  120  124 1    
   239  120  241 1    
   240  121  122 am   BACKBONE|DICT|INTERRES
   241  121  123 2    
   242  122  242 1    
   243  122  243 1    
   244  124  125 1    
   245  124  244 1    
   246  124  245 1    
   247  125  126 1    
   248  126  246 1    
   249  126  247 1    
@<TRIPOS>SUBSTRUCTURE
     1 UNK         1 GROUP             0       ****    0 ROOT    
