@<TRIPOS>MOLECULE
3R540
247   249    1
SMALL
USER_CHARGES


@<TRIPOS>ATOM
      1 CA         -1.8416  -11.7693  -43.7802 C.3       0 UNK        -0.1800 
      2 C          -1.1704  -11.1926  -45.0185 C.2       0 UNK         0.5000 
      3 O          -0.6436  -10.0814  -44.9690 O.2       0 UNK        -0.5000 
      4 N          -1.1777  -11.9459  -46.1260 N.am      1 UNK        -0.5000 
      5 CA         -0.5560  -11.5720  -47.4054 C.3       1 UNK         0.1400 
      6 C6         -1.0839  -12.4360  -48.5780 C.3       23 UNK        -0.0398 
      7 S7         -2.8965  -12.3534  -48.7804 S.3       23 UNK        -0.2404 
      8 C8         -3.0889  -12.8858  -50.5123 C.3       23 UNK        -0.0205 
      9 C9         -3.4040  -14.3710  -50.6486 C.ar      23 UNK        -0.0193 
     10 C10        -4.6509  -14.7735  -51.1366 C.ar      23 UNK        -0.1150 
     11 C11        -4.9255  -16.1255  -51.3597 C.ar      23 UNK        -0.0193 
     12 C12        -3.9521  -17.0833  -51.0643 C.ar      23 UNK        -0.1150 
     13 C13        -2.7082  -16.6996  -50.5564 C.ar      23 UNK        -0.0193 
     14 C14        -2.4397  -15.3414  -50.3541 C.ar      23 UNK        -0.1150 
     15 C15        -1.6350  -17.7434  -50.2791 C.3       23 UNK        -0.0205 
     16 S16        -1.8030  -18.4907  -48.6286 S.3       23 UNK        -0.2404 
     17 C17        -3.0287  -19.8070  -48.9361 C.3       23 UNK        -0.0398 
     18 CA         -3.3830  -20.6073  -47.6620 C.3       11 UNK         0.1400 
     19 N          -3.7993  -19.7096  -46.5805 N.am      11 UNK        -0.5000 
     20 C          -4.2096  -20.0118  -45.3425 C.2       10 UNK         0.5000 
     21 O          -4.4460  -21.1595  -44.9632 O.2       10 UNK        -0.5000 
     22 CA         -4.3620  -18.8359  -44.3587 C.3       10 UNK         0.1400 
     23 CB         -3.7641  -19.1826  -42.9843 C.3       10 UNK        -0.1800 
     24 N          -3.7138  -17.6185  -44.8544 N.am      10 UNK        -0.5000 
     25 C          -4.3090  -16.6496  -45.5662 C.2       9 UNK         0.5000 
     26 O          -5.4911  -16.6989  -45.9059 O.2       9 UNK        -0.5000 
     27 CA         -3.4536  -15.4246  -45.9567 C.3       9 UNK         0.1400 
     28 CB         -4.2054  -14.1152  -45.6581 C.3       9 UNK        -0.1800 
     29 N          -2.1820  -15.4231  -45.2278 N.am      9 UNK        -0.5000 
     30 C          -0.9711  -15.5810  -45.7758 C.2       8 UNK         0.5000 
     31 O          -0.7561  -15.5473  -46.9853 O.2       8 UNK        -0.5000 
     32 CA          0.2111  -15.8198  -44.8126 C.3       8 UNK         0.1400 
     33 CB         -0.1466  -15.6723  -43.3170 C.3       8 UNK        -0.1800 
     34 N           0.8758  -17.1032  -45.0494 N.am      8 UNK        -0.5000 
     35 C           0.3050  -18.3141  -45.1358 C.2       7 UNK         0.5000 
     36 O          -0.8986  -18.5095  -44.9560 O.2       7 UNK        -0.5000 
     37 CA          1.2236  -19.5240  -45.4124 C.3       7 UNK         0.1400 
     38 CB          0.7102  -20.3990  -46.5758 C.3       7 UNK        -0.1800 
     39 N           2.6490  -19.2040  -45.5723 N.am      7 UNK        -0.5000 
     40 C           3.2665  -18.5991  -46.6012 C.2       6 UNK         0.5000 
     41 O           2.6810  -18.1807  -47.5993 O.2       6 UNK        -0.5000 
     42 CA          4.7968  -18.4198  -46.4901 C.3       6 UNK         0.1400 
     43 CB          5.2643  -17.0743  -47.0725 C.3       6 UNK        -0.1800 
     44 N           5.2367  -18.4955  -45.0981 N.am      6 UNK        -0.5000 
     45 C           5.8960  -19.5140  -44.5308 C.2       5 UNK         0.5000 
     46 O           6.2855  -20.5056  -45.1476 O.2       5 UNK        -0.5000 
     47 CA          6.1432  -19.4234  -43.0090 C.3       5 UNK         0.1400 
     48 CB          7.5816  -18.9629  -42.7274 C.3       5 UNK        -0.1800 
     49 N           5.2165  -18.5229  -42.3163 N.am      5 UNK        -0.5000 
     50 C           3.8935  -18.7099  -42.2036 C.2       4 UNK         0.5000 
     51 O           3.3092  -19.7117  -42.6162 O.2       4 UNK        -0.5000 
     52 CA          3.0782  -17.5504  -41.5971 C.3       4 UNK         0.1400 
     53 CB          2.8837  -17.7577  -40.0883 C.3       4 UNK        -0.1800 
     54 N           3.6658  -16.2245  -41.8325 N.am      4 UNK        -0.5000 
     55 C           3.8763  -15.6829  -43.0399 C.2       3 UNK         0.5000 
     56 O           3.6130  -16.2605  -44.0981 O.2       3 UNK        -0.5000 
     57 CA          4.5534  -14.2988  -43.0675 C.3       3 UNK         0.1400 
     58 CB          6.0740  -14.4548  -42.9083 C.3       3 UNK        -0.1800 
     59 N           4.2859  -13.5950  -44.3223 N.am      3 UNK        -0.5000 
     60 C           3.0899  -13.1099  -44.6738 C.2       2 UNK         0.5000 
     61 O           2.1222  -13.0620  -43.9074 O.2       2 UNK        -0.5000 
     62 CA          2.9393  -12.6268  -46.1275 C.3       2 UNK         0.1400 
     63 CB          3.4464  -13.6740  -47.1418 C.3       2 UNK        -0.1800 
     64 N           1.5271  -12.3587  -46.3627 N.am      2 UNK        -0.5000 
     65 C           0.9881  -11.6496  -47.3592 C.2       1 UNK         0.5000 
     66 O           1.6513  -11.0835  -48.2292 O.2       1 UNK        -0.5000 
     67 C          -4.3800  -21.7383  -47.9960 C.2       11 UNK         0.5000 
     68 O          -3.9535  -22.8016  -48.4477 O.2       11 UNK        -0.5000 
     69 N          -5.6744  -21.5256  -47.7241 N.am      12 UNK        -0.5000 
     70 CA         -6.7261  -22.5386  -47.8390 C.3       12 UNK         0.1400 
     71 CB         -8.0868  -21.8811  -47.5670 C.3       12 UNK        -0.1800 
     72 C          -6.5197  -23.7586  -46.9146 C.2       12 UNK         0.5000 
     73 O          -6.9722  -24.8523  -47.2520 O.2       12 UNK        -0.5000 
     74 N          -5.8286  -23.5537  -45.7859 N.am      13 UNK        -0.5000 
     75 CA         -5.4343  -24.5943  -44.8410 C.3       13 UNK         0.1400 
     76 CB         -5.9570  -24.2326  -43.4415 C.3       13 UNK        -0.1800 
     77 C          -3.9066  -24.7533  -44.8260 C.2       13 UNK         0.5000 
     78 O          -3.4119  -25.8720  -44.9593 O.2       13 UNK        -0.5000 
     79 N          -3.1806  -23.6346  -44.6922 N.am      14 UNK        -0.5000 
     80 CA         -1.7271  -23.5918  -44.5068 C.3       14 UNK         0.1400 
     81 CB         -1.3267  -22.1928  -44.0153 C.3       14 UNK        -0.1800 
     82 C          -0.9116  -24.0012  -45.7491 C.2       14 UNK         0.5000 
     83 O           0.2243  -24.4506  -45.5970 O.2       14 UNK        -0.5000 
     84 N          -1.5067  -23.8702  -46.9412 N.am      15 UNK        -0.5000 
     85 CA         -0.9709  -24.3632  -48.2138 C.3       15 UNK         0.1400 
     86 CB         -0.7025  -23.1648  -49.1412 C.3       15 UNK        -0.1800 
     87 C          -1.9324  -25.3935  -48.8461 C.2       15 UNK         0.5000 
     88 O          -1.8229  -25.6868  -50.0405 O.2       15 UNK        -0.5000 
     89 N          -2.8782  -25.9011  -48.0354 N.am      16 UNK        -0.5000 
     90 CA         -3.9055  -26.9095  -48.3258 C.3       16 UNK         0.1400 
     91 CB         -3.2349  -28.2854  -48.5152 C.3       16 UNK        -0.1800 
     92 C          -4.8526  -26.5685  -49.4974 C.2       16 UNK         0.5000 
     93 O          -5.5023  -27.4728  -50.0244 O.2       16 UNK        -0.5000 
     94 N          -4.8775  -25.2935  -49.9210 N.am      17 UNK        -0.5000 
     95 CA         -5.4928  -24.7802  -51.1530 C.3       17 UNK         0.1400 
     96 CB         -7.0263  -24.9573  -51.1227 C.3       17 UNK        -0.1800 
     97 C          -4.8737  -25.3684  -52.4461 C.2       17 UNK         0.5000 
     98 O          -5.4595  -25.2166  -53.5189 O.2       17 UNK        -0.5000 
     99 N          -3.7151  -26.0322  -52.3279 N.am      18 UNK        -0.5000 
    100 CA        -3.0584  -26.7907  -53.3913 C.3       18 UNK         0.1400 
    101 CB        -2.7694  -28.2126  -52.8836 C.3       18 UNK        -0.1800 
    102 C         -1.7615  -26.1005  -53.8290 C.2       18 UNK         0.5000 
    103 O         -1.5248  -25.9567  -55.0286 O.2       18 UNK        -0.5000 
    104 N         -0.9640  -25.6536  -52.8496 N.am      19 UNK        -0.5000 
    105 CA         0.2379  -24.8444  -53.0637 C.3       19 UNK         0.1400 
    106 CB         1.3005  -25.2560  -52.0305 C.3       19 UNK        -0.1800 
    107 C         -0.0694  -23.3329  -53.0034 C.2       19 UNK         0.5000 
    108 O          0.8323  -22.5196  -53.2094 O.2       19 UNK        -0.5000 
    109 N         -1.3307  -22.9845  -52.7133 N.am      20 UNK        -0.5000 
    110 CA        -1.8591  -21.6251  -52.6713 C.3       20 UNK         0.1400 
    111 CB        -3.2908  -21.6815  -52.1133 C.3       20 UNK        -0.1800 
    112 C         -1.8685  -20.9610  -54.0606 C.2       20 UNK         0.5000 
    113 O         -2.1418  -21.6285  -55.0612 O.2       20 UNK        -0.5000 
    114 N         -1.6294  -19.6482  -54.0824 N.am      21 UNK        -0.5000 
    115 CA        -1.7589  -18.7847  -55.2483 C.3       21 UNK         0.1400 
    116 CB        -0.4433  -18.7586  -56.0457 C.3       21 UNK        -0.1800 
    117 C         -2.1404  -17.3965  -54.7247 C.2       21 UNK         0.5000 
    118 O         -1.3943  -16.8336  -53.9209 O.2       21 UNK        -0.5000 
    119 N         -3.3045  -16.8953  -55.1491 N.am      22 UNK        -0.5000 
    120 CA        -3.8964  -15.6395  -54.6535 C.3       22 UNK         0.1400 
    121 C         -3.4414  -14.3650  -55.4228 C.2       22 UNK         0.5000 
    122 N         -2.6304  -14.4704  -56.4685 N.am      22 UNK        -0.7600 
    123 O         -3.8238  -13.2561  -55.0599 O.2       22 UNK        -0.5000 
    124 C124       -5.4461  -15.7200  -54.5637 C.3       23 UNK        -0.0398 
    125 S125       -6.0566  -17.1894  -53.6597 S.3       23 UNK        -0.2404 
    126 C126       -6.2554  -16.5498  -51.9640 C.3       23 UNK        -0.0205 
    127 H127       -2.1710  -12.7956  -43.9356 H         1 UNK         0.0600 
    128 H128       -2.7103  -11.1692  -43.5099 H         1 UNK         0.0600 
    129 H129       -1.1459  -11.7634  -42.9409 H         1 UNK         0.0600 
    130 H130       -1.6556  -12.8352  -46.1256 H         1 UNK         0.3000 
    131 H131       -0.8152  -10.5315  -47.6131 H         1 UNK         0.0600 
    132 H132       -0.7963  -13.4779  -48.4467 H         1 UNK         0.0800 
    133 H133       -0.6199  -12.1093  -49.5103 H         1 UNK         0.0800 
    134 H134       -3.8887  -12.2913  -50.9565 H         1 UNK         0.0800 
    135 H135       -2.1951  -12.6515  -51.0913 H         1 UNK         0.0800 
    136 H136       -5.3965  -14.0299  -51.3809 H         1 UNK         0.1150 
    137 H137       -4.1575  -18.1249  -51.2626 H         1 UNK         0.1150 
    138 H138       -1.4698  -15.0414  -49.9859 H         1 UNK         0.1150 
    139 H139       -1.6563  -18.5197  -51.0440 H         1 UNK         0.0800 
    140 H140       -0.6486  -17.2820  -50.3472 H         1 UNK         0.0800 
    141 H141       -2.6120  -20.4679  -49.6945 H         1 UNK         0.0800 
    142 H142       -3.9286  -19.3600  -49.3588 H         1 UNK         0.0800 
    143 H143       -2.4738  -21.0983  -47.3133 H         1 UNK         0.0600 
    144 H144       -3.6137  -18.7336  -46.7602 H         1 UNK         0.3000 
    145 H145       -5.4314  -18.6602  -44.2281 H         1 UNK         0.0600 
    146 H146       -3.8806  -18.3552  -42.2843 H         1 UNK         0.0600 
    147 H147       -4.2596  -20.0491  -42.5446 H         1 UNK         0.0600 
    148 H148       -2.7006  -19.4136  -43.0553 H         1 UNK         0.0600 
    149 H149       -2.7065  -17.5877  -44.7286 H         1 UNK         0.3000 
    150 H150       -3.2822  -15.4868  -47.0339 H         1 UNK         0.0600 
    151 H151       -5.1485  -14.0699  -46.2041 H         1 UNK         0.0600 
    152 H152       -3.6272  -13.2450  -45.9610 H         1 UNK         0.0600 
    153 H153       -4.4343  -14.0144  -44.5966 H         1 UNK         0.0600 
    154 H154       -2.2569  -15.4682  -44.2209 H         1 UNK         0.3000 
    155 H155        0.9468  -15.0579  -45.0594 H         1 UNK         0.0600 
    156 H156        0.7496  -15.7251  -42.7006 H         1 UNK         0.0600 
    157 H157       -0.8283  -16.4523  -42.9760 H         1 UNK         0.0600 
    158 H158       -0.6040  -14.7041  -43.1102 H         1 UNK         0.0600 
    159 H159        1.8785  -17.0476  -45.1785 H         1 UNK         0.3000 
    160 H160        1.1677  -20.1316  -44.5085 H         1 UNK         0.0600 
    161 H161        0.7371  -19.8729  -47.5294 H         1 UNK         0.0600 
    162 H162       -0.3224  -20.7020  -46.4172 H         1 UNK         0.0600 
    163 H163        1.3014  -21.3091  -46.6757 H         1 UNK         0.0600 
    164 H164        3.2219  -19.4705  -44.7806 H         1 UNK         0.3000 
    165 H165        5.2517  -19.2191  -47.0781 H         1 UNK         0.0600 
    166 H166        4.8235  -16.2347  -46.5362 H         1 UNK         0.0600 
    167 H167        6.3481  -16.9760  -47.0121 H         1 UNK         0.0600 
    168 H168        4.9893  -16.9776  -48.1235 H         1 UNK         0.0600 
    169 H169        4.9105  -17.7354  -44.5108 H         1 UNK         0.3000 
    170 H170        6.0139  -20.4255  -42.5950 H         1 UNK         0.0600 
    171 H171        8.3051  -19.6260  -43.2038 H         1 UNK         0.0600 
    172 H172        7.7622  -17.9551  -43.1039 H         1 UNK         0.0600 
    173 H173        7.7954  -18.9664  -41.6584 H         1 UNK         0.0600 
    174 H174        5.6088  -17.6693  -41.9477 H         1 UNK         0.3000 
    175 H175        2.0960  -17.5696  -42.0728 H         1 UNK         0.0600 
    176 H176        3.8321  -17.7198  -39.5509 H         1 UNK         0.0600 
    177 H177        2.2270  -16.9962  -39.6671 H         1 UNK         0.0600 
    178 H178        2.4279  -18.7272  -39.8825 H         1 UNK         0.0600 
    179 H179        3.9201  -15.6969  -41.0096 H         1 UNK         0.3000 
    180 H180        4.1666  -13.7007  -42.2398 H         1 UNK         0.0600 
    181 H181        6.5033  -15.0595  -43.7087 H         1 UNK         0.0600 
    182 H182        6.3246  -14.9369  -41.9626 H         1 UNK         0.0600 
    183 H183        6.5725  -13.4853  -42.9167 H         1 UNK         0.0600 
    184 H184        5.0206  -13.6239  -45.0132 H         1 UNK         0.3000 
    185 H185        3.5031  -11.6986  -46.2378 H         1 UNK         0.0600 
    186 H186        3.2748  -13.3533  -48.1691 H         1 UNK         0.0600 
    187 H187        4.5191  -13.8395  -47.0419 H         1 UNK         0.0600 
    188 H188        2.9465  -14.6346  -47.0073 H         1 UNK         0.0600 
    189 H189        0.9228  -12.7026  -45.6279 H         1 UNK         0.3000 
    190 H190       -5.9436  -20.6325  -47.3386 H         1 UNK         0.3000 
    191 H191       -6.7189  -22.8989  -48.8681 H         1 UNK         0.0600 
    192 H192       -8.1413  -21.4738  -46.5566 H         1 UNK         0.0600 
    193 H193       -8.8976  -22.6029  -47.6749 H         1 UNK         0.0600 
    194 H194       -8.2807  -21.0696  -48.2686 H         1 UNK         0.0600 
    195 H195       -5.4789  -22.6193  -45.5934 H         1 UNK         0.3000 
    196 H196       -5.8633  -25.5582  -45.1226 H         1 UNK         0.0600 
    197 H197       -5.6571  -24.9803  -42.7062 H         1 UNK         0.0600 
    198 H198       -7.0460  -24.1854  -43.4317 H         1 UNK         0.0600 
    199 H199       -5.5793  -23.2666  -43.1034 H         1 UNK         0.0600 
    200 H200       -3.6636  -22.7406  -44.6327 H         1 UNK         0.3000 
    201 H201       -1.4748  -24.3038  -43.7181 H         1 UNK         0.0600 
    202 H202       -1.7868  -21.9694  -43.0527 H         1 UNK         0.0600 
    203 H203       -1.6335  -21.4161  -44.7140 H         1 UNK         0.0600 
    204 H204       -0.2469  -22.1147  -43.8839 H         1 UNK         0.0600 
    205 H205       -2.4461  -23.4968  -46.9829 H         1 UNK         0.3000 
    206 H206       -0.0253  -24.8845  -48.0547 H         1 UNK         0.0600 
    207 H207       -0.0961  -22.4076  -48.6449 H         1 UNK         0.0600 
    208 H208       -0.1598  -23.4718  -50.0318 H         1 UNK         0.0600 
    209 H209       -1.6220  -22.6901  -49.4752 H         1 UNK         0.0600 
    210 H210       -2.8506  -25.6115  -47.0661 H         1 UNK         0.3000 
    211 H211       -4.5371  -26.9640  -47.4380 H         1 UNK         0.0600 
    212 H212       -2.6274  -28.3157  -49.4203 H         1 UNK         0.0600 
    213 H213       -3.9768  -29.0811  -48.5913 H         1 UNK         0.0600 
    214 H214       -2.5903  -28.5284  -47.6705 H         1 UNK         0.0600 
    215 H215       -4.3327  -24.6151  -49.3984 H         1 UNK         0.3000 
    216 H216       -5.2851  -23.7103  -51.1661 H         1 UNK         0.0600 
    217 H217       -7.4525  -24.6390  -50.1726 H         1 UNK         0.0600 
    218 H218       -7.3165  -25.9962  -51.2811 H         1 UNK         0.0600 
    219 H219       -7.5012  -24.3664  -51.9066 H         1 UNK         0.0600 
    220 H220       -3.2763  -26.0656  -51.4141 H         1 UNK         0.3000 
    221 H221       -3.7086  -26.8697  -54.2651 H         1 UNK         0.0600 
    222 H222       -2.1196  -28.2068  -52.0074 H         1 UNK         0.0600 
    223 H223       -3.6919  -28.7247  -52.6088 H         1 UNK         0.0600 
    224 H224       -2.2807  -28.8112  -53.6533 H         1 UNK         0.0600 
    225 H225       -1.2320  -25.8032  -51.8805 H         1 UNK         0.3000 
    226 H226        0.6492  -25.0415  -54.0558 H         1 UNK         0.0600 
    227 H227        1.6178  -26.2862  -52.1923 H         1 UNK         0.0600 
    228 H228        2.1905  -24.6298  -52.1041 H         1 UNK         0.0600 
    229 H229        0.9286  -25.1859  -51.0093 H         1 UNK         0.0600 
    230 H230       -1.9994  -23.7300  -52.5995 H         1 UNK         0.3000 
    231 H231       -1.2336  -21.0407  -51.9931 H         1 UNK         0.0600 
    232 H232       -3.6979  -20.6791  -51.9753 H         1 UNK         0.0600 
    233 H233       -3.3246  -22.1872  -51.1489 H         1 UNK         0.0600 
    234 H234       -3.9617  -22.2138  -52.7891 H         1 UNK         0.0600 
    235 H235       -1.4227  -19.1554  -53.2244 H         1 UNK         0.3000 
    236 H236       -2.5587  -19.1550  -55.8938 H         1 UNK         0.0600 
    237 H237       -0.1907  -19.7502  -56.4216 H         1 UNK         0.0600 
    238 H238       -0.5228  -18.0940  -56.9066 H         1 UNK         0.0600 
    239 H239        0.3910  -18.4105  -55.4354 H         1 UNK         0.0600 
    240 H240       -3.8671  -17.4214  -55.8019 H         1 UNK         0.3000 
    241 H241       -3.5308  -15.4827  -53.6388 H         1 UNK         0.0600 
    242 H242       -2.3025  -15.3727  -56.7736 H         1 UNK         0.3800 
    243 H243       -2.3382  -13.6383  -56.9569 H         1 UNK         0.3800 
    244 H244       -5.8499  -14.8240  -54.0891 H         1 UNK         0.0800 
    245 H245       -5.8762  -15.7478  -55.5660 H         1 UNK         0.0800 
    246 H246       -6.6975  -17.3289  -51.3416 H         1 UNK         0.0800 
    247 H247       -6.9661  -15.7220  -51.9699 H         1 UNK         0.0800 
@<TRIPOS>BOND
     1    1    2 1    
     2    1  127 1    
     3    1  128 1    
     4    1  129 1    
     5    2    3 2    
     6    2    4 am   BACKBONE|DICT|INTERRES
     7    4    5 1    
     8    4  130 1    
     9    5    6 1    
    10    5   65 1    
    11    5  131 1    
    12    6    7 1    
    13    6  132 1    
    14    6  133 1    
    15    7    8 1    
    16    8    9 1    
    17    8  134 1    
    18    8  135 1    
    19    9   10 ar   
    20    9   14 ar   
    21   10   11 ar   
    22   10  136 1    
    23   11   12 ar   
    24   11  126 1    
    25   12   13 ar   
    26   12  137 1    
    27   13   14 ar   
    28   13   15 1    
    29   14  138 1    
    30   15   16 1    
    31   15  139 1    
    32   15  140 1    
    33   16   17 1    
    34   17   18 1    
    35   17  141 1    
    36   17  142 1    
    37   18   19 1    
    38   18   67 1    
    39   18  143 1    
    40   19   20 am   BACKBONE|DICT|INTERRES
    41   19  144 1    
    42   20   21 2    
    43   20   22 1    
    44   22   23 1    
    45   22   24 1    
    46   22  145 1    
    47   23  146 1    
    48   23  147 1    
    49   23  148 1    
    50   24   25 am   BACKBONE|DICT|INTERRES
    51   24  149 1    
    52   25   26 2    
    53   25   27 1    
    54   27   28 1    
    55   27   29 1    
    56   27  150 1    
    57   28  151 1    
    58   28  152 1    
    59   28  153 1    
    60   29   30 am   BACKBONE|DICT|INTERRES
    61   29  154 1    
    62   30   31 2    
    63   30   32 1    
    64   32   33 1    
    65   32   34 1    
    66   32  155 1    
    67   33  156 1    
    68   33  157 1    
    69   33  158 1    
    70   34   35 am   BACKBONE|DICT|INTERRES
    71   34  159 1    
    72   35   36 2    
    73   35   37 1    
    74   37   38 1    
    75   37   39 1    
    76   37  160 1    
    77   38  161 1    
    78   38  162 1    
    79   38  163 1    
    80   39   40 am   BACKBONE|DICT|INTERRES
    81   39  164 1    
    82   40   41 2    
    83   40   42 1    
    84   42   43 1    
    85   42   44 1    
    86   42  165 1    
    87   43  166 1    
    88   43  167 1    
    89   43  168 1    
    90   44   45 am   BACKBONE|DICT|INTERRES
    91   44  169 1    
    92   45   46 2    
    93   45   47 1    
    94   47   48 1    
    95   47   49 1    
    96   47  170 1    
    97   48  171 1    
    98   48  172 1    
    99   48  173 1    
   100   49   50 am   BACKBONE|DICT|INTERRES
   101   49  174 1    
   102   50   51 2    
   103   50   52 1    
   104   52   53 1    
   105   52   54 1    
   106   52  175 1    
   107   53  176 1    
   108   53  177 1    
   109   53  178 1    
   110   54   55 am   BACKBONE|DICT|INTERRES
   111   54  179 1    
   112   55   56 2    
   113   55   57 1    
   114   57   58 1    
   115   57   59 1    
   116   57  180 1    
   117   58  181 1    
   118   58  182 1    
   119   58  183 1    
   120   59   60 am   BACKBONE|DICT|INTERRES
   121   59  184 1    
   122   60   61 2    
   123   60   62 1    
   124   62   63 1    
   125   62   64 1    
   126   62  185 1    
   127   63  186 1    
   128   63  187 1    
   129   63  188 1    
   130   64   65 am   BACKBONE|DICT|INTERRES
   131   64  189 1    
   132   65   66 2    
   133   67   68 2    
   134   67   69 am   BACKBONE|DICT|INTERRES
   135   69   70 1    
   136   69  190 1    
   137   70   71 1    
   138   70   72 1    
   139   70  191 1    
   140   71  192 1    
   141   71  193 1    
   142   71  194 1    
   143   72   73 2    
   144   72   74 am   BACKBONE|DICT|INTERRES
   145   74   75 1    
   146   74  195 1    
   147   75   76 1    
   148   75   77 1    
   149   75  196 1    
   150   76  197 1    
   151   76  198 1    
   152   76  199 1    
   153   77   78 2    
   154   77   79 am   BACKBONE|DICT|INTERRES
   155   79   80 1    
   156   79  200 1    
   157   80   81 1    
   158   80   82 1    
   159   80  201 1    
   160   81  202 1    
   161   81  203 1    
   162   81  204 1    
   163   82   83 2    
   164   82   84 am   BACKBONE|DICT|INTERRES
   165   84   85 1    
   166   84  205 1    
   167   85   86 1    
   168   85   87 1    
   169   85  206 1    
   170   86  207 1    
   171   86  208 1    
   172   86  209 1    
   173   87   88 2    
   174   87   89 am   BACKBONE|DICT|INTERRES
   175   89   90 1    
   176   89  210 1    
   177   90   91 1    
   178   90   92 1    
   179   90  211 1    
   180   91  212 1    
   181   91  213 1    
   182   91  214 1    
   183   92   93 2    
   184   92   94 am   BACKBONE|DICT|INTERRES
   185   94   95 1    
   186   94  215 1    
   187   95   96 1    
   188   95   97 1    
   189   95  216 1    
   190   96  217 1    
   191   96  218 1    
   192   96  219 1    
   193   97   98 2    
   194   97   99 am   BACKBONE|DICT|INTERRES
   195   99  100 1    
   196   99  220 1    
   197  100  101 1    
   198  100  102 1    
   199  100  221 1    
   200  101  222 1    
   201  101  223 1    
   202  101  224 1    
   203  102  103 2    
   204  102  104 am   BACKBONE|DICT|INTERRES
   205  104  105 1    
   206  104  225 1    
   207  105  106 1    
   208  105  107 1    
   209  105  226 1    
   210  106  227 1    
   211  106  228 1    
   212  106  229 1    
   213  107  108 2    
   214  107  109 am   BACKBONE|DICT|INTERRES
   215  109  110 1    
   216  109  230 1    
   217  110  111 1    
   218  110  112 1    
   219  110  231 1    
   220  111  232 1    
   221  111  233 1    
   222  111  234 1    
   223  112  113 2    
   224  112  114 am   BACKBONE|DICT|INTERRES
   225  114  115 1    
   226  114  235 1    
   227  115  116 1    
   228  115  117 1    
   229  115  236 1    
   230  116  237 1    
   231  116  238 1    
   232  116  239 1    
   233  117  118 2    
   234  117  119 am   BACKBONE|DICT|INTERRES
   235  119  120 1    
   236  119  240 1    
   237  120  121 1    
   238  120  124 1    
   239  120  241 1    
   240  121  122 am   BACKBONE|DICT|INTERRES
   241  121  123 2    
   242  122  242 1    
   243  122  243 1    
   244  124  125 1    
   245  124  244 1    
   246  124  245 1    
   247  125  126 1    
   248  126  246 1    
   249  126  247 1    
@<TRIPOS>SUBSTRUCTURE
     1 UNK         1 GROUP             0       ****    0 ROOT    
