@<TRIPOS>MOLECULE
3R540
247   249    1
SMALL
USER_CHARGES


@<TRIPOS>ATOM
      1 CA          4.9227  -14.2991  -45.5421 C.3       0 UNK        -0.1800 
      2 C           4.8615  -15.2379  -46.7381 C.2       0 UNK         0.5000 
      3 O           5.3834  -14.9121  -47.8040 O.2       0 UNK        -0.5000 
      4 N           4.2198  -16.3962  -46.5675 N.am      1 UNK        -0.5000 
      5 CA          4.0322  -17.4266  -47.5816 C.3       1 UNK         0.1400 
      6 C6          2.9047  -17.0693  -48.5865 C.3       23 UNK        -0.0398 
      7 S7          3.2064  -17.8104  -50.2249 S.3       23 UNK        -0.2404 
      8 C8          2.9194  -16.3927  -51.3264 C.3       23 UNK        -0.0205 
      9 C9          1.4438  -16.2081  -51.6541 C.ar      23 UNK        -0.0193 
     10 C10         0.9052  -16.8310  -52.7840 C.ar      23 UNK        -0.1150 
     11 C11        -0.4215  -16.6041  -53.1578 C.ar      23 UNK        -0.0193 
     12 C12        -1.2131  -15.7522  -52.3846 C.ar      23 UNK        -0.1150 
     13 C13        -0.7015  -15.1477  -51.2324 C.ar      23 UNK        -0.0193 
     14 C14         0.6309  -15.3795  -50.8713 C.ar      23 UNK        -0.1150 
     15 C15        -1.5757  -14.1915  -50.4298 C.3       23 UNK        -0.0205 
     16 S16        -3.1221  -14.9731  -49.8545 S.3       23 UNK        -0.2404 
     17 C17        -2.7727  -15.3155  -48.0994 C.3       23 UNK        -0.0398 
     18 CA         -2.1102  -16.6908  -47.8522 C.3       11 UNK         0.1400 
     19 N          -1.4170  -16.6981  -46.5618 N.am      11 UNK        -0.5000 
     20 C          -0.4964  -17.5995  -46.2001 C.2       10 UNK         0.5000 
     21 O          -0.1581  -18.5494  -46.9034 O.2       10 UNK        -0.5000 
     22 CA          0.1265  -17.4122  -44.8043 C.3       10 UNK         0.1400 
     23 CB          1.0741  -16.2046  -44.8227 C.3       10 UNK        -0.1800 
     24 N          -0.8424  -17.2073  -43.7249 N.am      10 UNK        -0.5000 
     25 C          -1.9668  -17.9017  -43.4972 C.2       9 UNK         0.5000 
     26 O          -2.3176  -18.8655  -44.1747 O.2       9 UNK        -0.5000 
     27 CA         -2.8743  -17.4463  -42.3349 C.3       9 UNK         0.1400 
     28 CB         -2.9199  -18.5165  -41.2333 C.3       9 UNK        -0.1800 
     29 N          -2.4894  -16.1702  -41.7300 N.am      9 UNK        -0.5000 
     30 C          -2.5373  -14.9644  -42.3153 C.2       8 UNK         0.5000 
     31 O          -2.9801  -14.7741  -43.4485 O.2       8 UNK        -0.5000 
     32 CA         -1.9571  -13.7809  -41.5100 C.3       8 UNK         0.1400 
     33 CB         -3.0889  -12.9225  -40.9252 C.3       8 UNK        -0.1800 
     34 N          -1.0640  -14.1987  -40.4212 N.am      8 UNK        -0.5000 
     35 C           0.1294  -14.7848  -40.5923 C.2       7 UNK         0.5000 
     36 O           0.6383  -14.9720  -41.6988 O.2       7 UNK        -0.5000 
     37 CA          0.8177  -15.2903  -39.3141 C.3       7 UNK         0.1400 
     38 CB          0.0532  -16.4946  -38.7352 C.3       7 UNK        -0.1800 
     39 N           2.1860  -15.7191  -39.5922 N.am      7 UNK        -0.5000 
     40 C           3.2821  -15.2716  -38.9661 C.2       6 UNK         0.5000 
     41 O           3.2579  -14.3936  -38.1018 O.2       6 UNK        -0.5000 
     42 CA          4.6375  -15.9195  -39.3252 C.3       6 UNK         0.1400 
     43 CB          5.1401  -16.7898  -38.1618 C.3       6 UNK        -0.1800 
     44 N           4.5991  -16.7435  -40.5331 N.am      6 UNK        -0.5000 
     45 C           4.5806  -16.2677  -41.7837 C.2       5 UNK         0.5000 
     46 O           4.6601  -15.0701  -42.0565 O.2       5 UNK        -0.5000 
     47 CA          4.4503  -17.2958  -42.9264 C.3       5 UNK         0.1400 
     48 CB          5.8233  -17.5578  -43.5639 C.3       5 UNK        -0.1800 
     49 N           3.8438  -18.5832  -42.5667 N.am      5 UNK        -0.5000 
     50 C           2.6401  -18.7736  -42.0059 C.2       4 UNK         0.5000 
     51 O           1.9194  -17.8531  -41.6233 O.2       4 UNK        -0.5000 
     52 CA          2.1607  -20.2288  -41.8308 C.3       4 UNK         0.1400 
     53 CB          0.6415  -20.3582  -42.0352 C.3       4 UNK        -0.1800 
     54 N           2.8371  -21.1592  -42.7373 N.am      4 UNK        -0.5000 
     55 C           3.9095  -21.9009  -42.4305 C.2       3 UNK         0.5000 
     56 O           4.4913  -21.8417  -41.3472 O.2       3 UNK        -0.5000 
     57 CA          4.4207  -22.8730  -43.5125 C.3       3 UNK         0.1400 
     58 CB          3.9268  -24.2989  -43.2230 C.3       3 UNK        -0.1800 
     59 N           4.0076  -22.4977  -44.8674 N.am      3 UNK        -0.5000 
     60 C           4.5542  -21.5046  -45.5808 C.2       2 UNK         0.5000 
     61 O           5.5054  -20.8316  -45.1771 O.2       2 UNK        -0.5000 
     62 CA          3.9578  -21.2421  -46.9844 C.3       2 UNK         0.1400 
     63 CB          2.4636  -21.6162  -47.0981 C.3       2 UNK        -0.1800 
     64 N           4.1575  -19.8665  -47.4524 N.am      2 UNK        -0.5000 
     65 C           3.7382  -18.7456  -46.8496 C.2       1 UNK         0.5000 
     66 O           3.1330  -18.7153  -45.7744 O.2       1 UNK        -0.5000 
     67 C          -3.1094  -17.8649  -47.9792 C.2       11 UNK         0.5000 
     68 O          -3.2292  -18.4557  -49.0526 O.2       11 UNK        -0.5000 
     69 N          -3.7721  -18.2227  -46.8690 N.am      12 UNK        -0.5000 
     70 CA         -4.6767  -19.3714  -46.7886 C.3       12 UNK         0.1400 
     71 CB         -5.5151  -19.2856  -45.5042 C.3       12 UNK        -0.1800 
     72 C          -3.9180  -20.7078  -46.8672 C.2       12 UNK         0.5000 
     73 O          -4.3736  -21.6267  -47.5473 O.2       12 UNK        -0.5000 
     74 N          -2.7530  -20.7764  -46.2104 N.am      13 UNK        -0.5000 
     75 CA         -1.8243  -21.9039  -46.2688 C.3       13 UNK         0.1400 
     76 CB         -0.7512  -21.7325  -45.1844 C.3       13 UNK        -0.1800 
     77 C          -1.1885  -22.0820  -47.6608 C.2       13 UNK         0.5000 
     78 O          -0.9576  -23.2182  -48.0727 O.2       13 UNK        -0.5000 
     79 N          -0.9447  -20.9697  -48.3693 N.am      14 UNK        -0.5000 
     80 CA         -0.4986  -20.9564  -49.7632 C.3       14 UNK         0.1400 
     81 CB         -0.0479  -19.5413  -50.1533 C.3       14 UNK        -0.1800 
     82 C          -1.5808  -21.4728  -50.7283 C.2       14 UNK         0.5000 
     83 O          -1.2550  -22.2161  -51.6542 O.2       14 UNK        -0.5000 
     84 N          -2.8438  -21.0941  -50.4802 N.am      15 UNK        -0.5000 
     85 CA         -4.0083  -21.5741  -51.2217 C.3       15 UNK         0.1400 
     86 CB         -5.2435  -20.7275  -50.8696 C.3       15 UNK        -0.1800 
     87 C          -4.2796  -23.0672  -50.9763 C.2       15 UNK         0.5000 
     88 O          -4.4498  -23.8220  -51.9347 O.2       15 UNK        -0.5000 
     89 N          -4.3424  -23.4617  -49.6953 N.am      16 UNK        -0.5000 
     90 CA         -4.5590  -24.8256  -49.1891 C.3       16 UNK         0.1400 
     91 CB         -3.3296  -25.7034  -49.5015 C.3       16 UNK        -0.1800 
     92 C          -5.8729  -25.4865  -49.6702 C.2       16 UNK         0.5000 
     93 O          -5.9849  -26.7129  -49.6412 O.2       16 UNK        -0.5000 
     94 N          -6.8266  -24.6628  -50.1346 N.am      17 UNK        -0.5000 
     95 CA         -8.0628  -25.0272  -50.8376 C.3       17 UNK         0.1400 
     96 CB         -9.0324  -25.7696  -49.8942 C.3       17 UNK        -0.1800 
     97 C          -7.8206  -25.7833  -52.1673 C.2       17 UNK         0.5000 
     98 O          -8.7014  -26.5200  -52.6151 O.2       17 UNK        -0.5000 
     99 N          -6.6415  -25.5897  -52.7758 N.am      18 UNK        -0.5000 
    100 CA        -6.2077  -26.2531  -54.0049 C.3       18 UNK         0.1400 
    101 CB        -5.0702  -27.2340  -53.6758 C.3       18 UNK        -0.1800 
    102 C         -5.7613  -25.2258  -55.0551 C.2       18 UNK         0.5000 
    103 O         -6.2270  -25.2780  -56.1944 O.2       18 UNK        -0.5000 
    104 N         -4.8885  -24.2923  -54.6561 N.am      19 UNK        -0.5000 
    105 CA        -4.4014  -23.1916  -55.4810 C.3       19 UNK         0.1400 
    106 CB        -2.9606  -22.8441  -55.0674 C.3       19 UNK        -0.1800 
    107 C         -5.3636  -22.0013  -55.3480 C.2       19 UNK         0.5000 
    108 O         -5.0836  -21.0475  -54.6198 O.2       19 UNK        -0.5000 
    109 N         -6.5031  -22.0965  -56.0466 N.am      20 UNK        -0.5000 
    110 CA        -7.6043  -21.1269  -56.0330 C.3       20 UNK         0.1400 
    111 CB        -8.7431  -21.6532  -56.9190 C.3       20 UNK        -0.1800 
    112 C         -7.2062  -19.6984  -56.4559 C.2       20 UNK         0.5000 
    113 O         -7.8476  -18.7399  -56.0241 O.2       20 UNK        -0.5000 
    114 N         -6.1268  -19.5745  -57.2422 N.am      21 UNK        -0.5000 
    115 CA        -5.4931  -18.3114  -57.6294 C.3       21 UNK         0.1400 
    116 CB        -4.3443  -18.6115  -58.6043 C.3       21 UNK        -0.1800 
    117 C         -4.9799  -17.4769  -56.4362 C.2       21 UNK         0.5000 
    118 O         -4.9000  -16.2532  -56.5511 O.2       21 UNK        -0.5000 
    119 N         -4.6673  -18.1404  -55.3151 N.am      22 UNK        -0.5000 
    120 CA        -4.3200  -17.5049  -54.0356 C.3       22 UNK         0.1400 
    121 C         -5.5604  -17.1220  -53.1727 C.2       22 UNK         0.5000 
    122 N         -6.7919  -17.3985  -53.5881 N.am      22 UNK        -0.7600 
    123 O         -5.4076  -16.5400  -52.1045 O.2       22 UNK        -0.5000 
    124 C124       -3.3121  -18.3577  -53.2196 C.3       23 UNK        -0.0398 
    125 S125       -1.7946  -18.8341  -54.1202 S.3       23 UNK        -0.2404 
    126 C126       -0.9798  -17.2338  -54.4258 C.3       23 UNK        -0.0205 
    127 H127        4.2001  -14.5770  -44.7748 H         1 UNK         0.0600 
    128 H128        4.7037  -13.2775  -45.8528 H         1 UNK         0.0600 
    129 H129        5.9184  -14.3162  -45.0992 H         1 UNK         0.0600 
    130 H130        3.8305  -16.6527  -45.6700 H         1 UNK         0.3000 
    131 H131        4.9826  -17.5364  -48.1092 H         1 UNK         0.0600 
    132 H132        1.9208  -17.3746  -48.2270 H         1 UNK         0.0800 
    133 H133        2.8423  -15.9877  -48.7042 H         1 UNK         0.0800 
    134 H134        3.3345  -15.4813  -50.8936 H         1 UNK         0.0800 
    135 H135        3.4776  -16.5589  -52.2490 H         1 UNK         0.0800 
    136 H136        1.5288  -17.4735  -53.3897 H         1 UNK         0.1150 
    137 H137       -2.2334  -15.5525  -52.6795 H         1 UNK         0.1150 
    138 H138        1.0446  -14.8911  -50.0006 H         1 UNK         0.1150 
    139 H139       -1.0240  -13.7681  -49.5897 H         1 UNK         0.0800 
    140 H140       -1.8367  -13.3492  -51.0718 H         1 UNK         0.0800 
    141 H141       -2.1345  -14.5148  -47.7234 H         1 UNK         0.0800 
    142 H142       -3.7040  -15.2275  -47.5370 H         1 UNK         0.0800 
    143 H143       -1.3463  -16.8362  -48.6199 H         1 UNK         0.0600 
    144 H144       -1.6562  -15.9657  -45.9083 H         1 UNK         0.3000 
    145 H145        0.7050  -18.3078  -44.5756 H         1 UNK         0.0600 
    146 H146        1.6628  -16.1550  -43.9083 H         1 UNK         0.0600 
    147 H147        1.7622  -16.2605  -45.6626 H         1 UNK         0.0600 
    148 H148        0.5297  -15.2639  -44.9132 H         1 UNK         0.0600 
    149 H149       -0.6148  -16.4624  -43.0795 H         1 UNK         0.3000 
    150 H150       -3.8802  -17.3346  -42.7445 H         1 UNK         0.0600 
    151 H151       -3.2043  -19.4887  -41.6385 H         1 UNK         0.0600 
    152 H152       -3.6512  -18.2609  -40.4664 H         1 UNK         0.0600 
    153 H153       -1.9516  -18.6336  -40.7465 H         1 UNK         0.0600 
    154 H154       -2.1094  -16.2190  -40.7971 H         1 UNK         0.3000 
    155 H155       -1.3820  -13.1649  -42.2046 H         1 UNK         0.0600 
    156 H156       -2.6946  -12.0430  -40.4158 H         1 UNK         0.0600 
    157 H157       -3.6920  -13.4838  -40.2105 H         1 UNK         0.0600 
    158 H158       -3.7570  -12.5680  -41.7113 H         1 UNK         0.0600 
    159 H159       -1.4158  -14.0707  -39.4830 H         1 UNK         0.3000 
    160 H160        0.8037  -14.4765  -38.5865 H         1 UNK         0.0600 
    161 H161        0.0068  -17.3197  -39.4478 H         1 UNK         0.0600 
    162 H162       -0.9701  -16.2300  -38.4673 H         1 UNK         0.0600 
    163 H163        0.5350  -16.8654  -37.8302 H         1 UNK         0.0600 
    164 H164        2.2764  -16.3912  -40.3500 H         1 UNK         0.3000 
    165 H165        5.3545  -15.1101  -39.4780 H         1 UNK         0.0600 
    166 H166        4.4629  -17.6207  -37.9601 H         1 UNK         0.0600 
    167 H167        6.1262  -17.2030  -38.3749 H         1 UNK         0.0600 
    168 H168        5.2263  -16.2066  -37.2440 H         1 UNK         0.0600 
    169 H169        4.5233  -17.7412  -40.4013 H         1 UNK         0.3000 
    170 H170        3.8105  -16.8447  -43.6831 H         1 UNK         0.0600 
    171 H171        6.3043  -16.6260  -43.8640 H         1 UNK         0.0600 
    172 H172        6.4954  -18.0666  -42.8720 H         1 UNK         0.0600 
    173 H173        5.7332  -18.1750  -44.4576 H         1 UNK         0.0600 
    174 H174        4.3511  -19.4049  -42.8616 H         1 UNK         0.3000 
    175 H175        2.3750  -20.5046  -40.7964 H         1 UNK         0.0600 
    176 H176        0.0958  -19.7494  -41.3144 H         1 UNK         0.0600 
    177 H177        0.3406  -20.0354  -43.0305 H         1 UNK         0.0600 
    178 H178        0.3102  -21.3880  -41.9019 H         1 UNK         0.0600 
    179 H179        2.4568  -21.2328  -43.6692 H         1 UNK         0.3000 
    180 H180        5.5119  -22.8748  -43.4660 H         1 UNK         0.0600 
    181 H181        2.8386  -24.3644  -43.2615 H         1 UNK         0.0600 
    182 H182        4.2403  -24.6275  -42.2312 H         1 UNK         0.0600 
    183 H183        4.3325  -25.0108  -43.9421 H         1 UNK         0.0600 
    184 H184        3.2477  -23.0262  -45.2704 H         1 UNK         0.3000 
    185 H185        4.5137  -21.8806  -47.6721 H         1 UNK         0.0600 
    186 H186        2.0811  -21.3817  -48.0910 H         1 UNK         0.0600 
    187 H187        2.2940  -22.6813  -46.9391 H         1 UNK         0.0600 
    188 H188        1.8583  -21.0659  -46.3786 H         1 UNK         0.0600 
    189 H189        4.6639  -19.7787  -48.3221 H         1 UNK         0.3000 
    190 H190       -3.5684  -17.7445  -46.0039 H         1 UNK         0.3000 
    191 H191       -5.3596  -19.3267  -47.6398 H         1 UNK         0.0600 
    192 H192       -6.2275  -20.1098  -45.4511 H         1 UNK         0.0600 
    193 H193       -6.0880  -18.3589  -45.4684 H         1 UNK         0.0600 
    194 H194       -4.8961  -19.3323  -44.6081 H         1 UNK         0.0600 
    195 H195       -2.4835  -19.9946  -45.6171 H         1 UNK         0.3000 
    196 H196       -2.3865  -22.8135  -46.0476 H         1 UNK         0.0600 
    197 H197       -0.0243  -22.5449  -45.2153 H         1 UNK         0.0600 
    198 H198       -1.1987  -21.7323  -44.1904 H         1 UNK         0.0600 
    199 H199       -0.2099  -20.7943  -45.3045 H         1 UNK         0.0600 
    200 H200       -1.0629  -20.0688  -47.9187 H         1 UNK         0.3000 
    201 H201        0.3652  -21.6190  -49.8447 H         1 UNK         0.0600 
    202 H202        0.7067  -19.1695  -49.4621 H         1 UNK         0.0600 
    203 H203       -0.8746  -18.8318  -50.1575 H         1 UNK         0.0600 
    204 H204        0.3899  -19.5322  -51.1522 H         1 UNK         0.0600 
    205 H205       -3.0143  -20.4278  -49.7352 H         1 UNK         0.3000 
    206 H206       -3.8024  -21.4472  -52.2837 H         1 UNK         0.0600 
    207 H207       -5.0546  -19.6633  -51.0085 H         1 UNK         0.0600 
    208 H208       -6.0871  -20.9928  -51.5082 H         1 UNK         0.0600 
    209 H209       -5.5565  -20.8687  -49.8353 H         1 UNK         0.0600 
    210 H210       -4.2422  -22.7498  -48.9726 H         1 UNK         0.3000 
    211 H211       -4.6405  -24.7369  -48.1050 H         1 UNK         0.0600 
    212 H212       -3.2292  -25.8907  -50.5711 H         1 UNK         0.0600 
    213 H213       -3.3991  -26.6714  -49.0043 H         1 UNK         0.0600 
    214 H214       -2.4099  -25.2312  -49.1579 H         1 UNK         0.0600 
    215 H215       -6.6272  -23.6737  -50.0951 H         1 UNK         0.3000 
    216 H216       -8.5370  -24.0852  -51.1163 H         1 UNK         0.0600 
    217 H217       -9.1845  -25.2146  -48.9685 H         1 UNK         0.0600 
    218 H218      -10.0111  -25.8958  -50.3585 H         1 UNK         0.0600 
    219 H219       -8.6653  -26.7626  -49.6341 H         1 UNK         0.0600 
    220 H220       -5.9726  -24.9544  -52.3513 H         1 UNK         0.3000 
    221 H221       -7.0285  -26.8235  -54.4445 H         1 UNK         0.0600 
    222 H222       -4.7065  -27.7296  -54.5767 H         1 UNK         0.0600 
    223 H223       -4.2225  -26.7293  -53.2100 H         1 UNK         0.0600 
    224 H224       -5.4104  -28.0108  -52.9907 H         1 UNK         0.0600 
    225 H225       -4.6042  -24.2637  -53.6792 H         1 UNK         0.3000 
    226 H226       -4.3766  -23.4913  -56.5309 H         1 UNK         0.0600 
    227 H227       -2.8832  -22.6091  -54.0070 H         1 UNK         0.0600 
    228 H228       -2.2853  -23.6754  -55.2694 H         1 UNK         0.0600 
    229 H229       -2.5903  -21.9810  -55.6222 H         1 UNK         0.0600 
    230 H230       -6.6561  -22.9389  -56.5856 H         1 UNK         0.3000 
    231 H231       -7.9700  -21.0663  -55.0060 H         1 UNK         0.0600 
    232 H232       -9.5942  -20.9709  -56.9094 H         1 UNK         0.0600 
    233 H233       -9.1010  -22.6214  -56.5683 H         1 UNK         0.0600 
    234 H234       -8.4250  -21.7674  -57.9561 H         1 UNK         0.0600 
    235 H235       -5.6659  -20.4196  -57.5445 H         1 UNK         0.3000 
    236 H236       -6.2413  -17.7113  -58.1512 H         1 UNK         0.0600 
    237 H237       -4.7045  -19.1304  -59.4929 H         1 UNK         0.0600 
    238 H238       -3.8654  -17.6904  -58.9393 H         1 UNK         0.0600 
    239 H239       -3.5755  -19.2307  -58.1400 H         1 UNK         0.0600 
    240 H240       -4.7747  -19.1489  -55.2844 H         1 UNK         0.3000 
    241 H241       -3.8355  -16.5527  -54.2510 H         1 UNK         0.0600 
    242 H242       -6.9671  -17.8530  -54.4772 H         1 UNK         0.3800 
    243 H243       -7.5719  -17.1288  -53.0106 H         1 UNK         0.3800 
    244 H244       -3.7973  -19.2828  -52.9200 H         1 UNK         0.0800 
    245 H245       -3.0286  -17.8594  -52.2912 H         1 UNK         0.0800 
    246 H246       -0.1688  -17.3968  -55.1371 H         1 UNK         0.0800 
    247 H247       -1.6668  -16.5481  -54.9218 H         1 UNK         0.0800 
@<TRIPOS>BOND
     1    1    2 1    
     2    1  127 1    
     3    1  128 1    
     4    1  129 1    
     5    2    3 2    
     6    2    4 am   BACKBONE|DICT|INTERRES
     7    4    5 1    
     8    4  130 1    
     9    5    6 1    
    10    5   65 1    
    11    5  131 1    
    12    6    7 1    
    13    6  132 1    
    14    6  133 1    
    15    7    8 1    
    16    8    9 1    
    17    8  134 1    
    18    8  135 1    
    19    9   10 ar   
    20    9   14 ar   
    21   10   11 ar   
    22   10  136 1    
    23   11   12 ar   
    24   11  126 1    
    25   12   13 ar   
    26   12  137 1    
    27   13   14 ar   
    28   13   15 1    
    29   14  138 1    
    30   15   16 1    
    31   15  139 1    
    32   15  140 1    
    33   16   17 1    
    34   17   18 1    
    35   17  141 1    
    36   17  142 1    
    37   18   19 1    
    38   18   67 1    
    39   18  143 1    
    40   19   20 am   BACKBONE|DICT|INTERRES
    41   19  144 1    
    42   20   21 2    
    43   20   22 1    
    44   22   23 1    
    45   22   24 1    
    46   22  145 1    
    47   23  146 1    
    48   23  147 1    
    49   23  148 1    
    50   24   25 am   BACKBONE|DICT|INTERRES
    51   24  149 1    
    52   25   26 2    
    53   25   27 1    
    54   27   28 1    
    55   27   29 1    
    56   27  150 1    
    57   28  151 1    
    58   28  152 1    
    59   28  153 1    
    60   29   30 am   BACKBONE|DICT|INTERRES
    61   29  154 1    
    62   30   31 2    
    63   30   32 1    
    64   32   33 1    
    65   32   34 1    
    66   32  155 1    
    67   33  156 1    
    68   33  157 1    
    69   33  158 1    
    70   34   35 am   BACKBONE|DICT|INTERRES
    71   34  159 1    
    72   35   36 2    
    73   35   37 1    
    74   37   38 1    
    75   37   39 1    
    76   37  160 1    
    77   38  161 1    
    78   38  162 1    
    79   38  163 1    
    80   39   40 am   BACKBONE|DICT|INTERRES
    81   39  164 1    
    82   40   41 2    
    83   40   42 1    
    84   42   43 1    
    85   42   44 1    
    86   42  165 1    
    87   43  166 1    
    88   43  167 1    
    89   43  168 1    
    90   44   45 am   BACKBONE|DICT|INTERRES
    91   44  169 1    
    92   45   46 2    
    93   45   47 1    
    94   47   48 1    
    95   47   49 1    
    96   47  170 1    
    97   48  171 1    
    98   48  172 1    
    99   48  173 1    
   100   49   50 am   BACKBONE|DICT|INTERRES
   101   49  174 1    
   102   50   51 2    
   103   50   52 1    
   104   52   53 1    
   105   52   54 1    
   106   52  175 1    
   107   53  176 1    
   108   53  177 1    
   109   53  178 1    
   110   54   55 am   BACKBONE|DICT|INTERRES
   111   54  179 1    
   112   55   56 2    
   113   55   57 1    
   114   57   58 1    
   115   57   59 1    
   116   57  180 1    
   117   58  181 1    
   118   58  182 1    
   119   58  183 1    
   120   59   60 am   BACKBONE|DICT|INTERRES
   121   59  184 1    
   122   60   61 2    
   123   60   62 1    
   124   62   63 1    
   125   62   64 1    
   126   62  185 1    
   127   63  186 1    
   128   63  187 1    
   129   63  188 1    
   130   64   65 am   BACKBONE|DICT|INTERRES
   131   64  189 1    
   132   65   66 2    
   133   67   68 2    
   134   67   69 am   BACKBONE|DICT|INTERRES
   135   69   70 1    
   136   69  190 1    
   137   70   71 1    
   138   70   72 1    
   139   70  191 1    
   140   71  192 1    
   141   71  193 1    
   142   71  194 1    
   143   72   73 2    
   144   72   74 am   BACKBONE|DICT|INTERRES
   145   74   75 1    
   146   74  195 1    
   147   75   76 1    
   148   75   77 1    
   149   75  196 1    
   150   76  197 1    
   151   76  198 1    
   152   76  199 1    
   153   77   78 2    
   154   77   79 am   BACKBONE|DICT|INTERRES
   155   79   80 1    
   156   79  200 1    
   157   80   81 1    
   158   80   82 1    
   159   80  201 1    
   160   81  202 1    
   161   81  203 1    
   162   81  204 1    
   163   82   83 2    
   164   82   84 am   BACKBONE|DICT|INTERRES
   165   84   85 1    
   166   84  205 1    
   167   85   86 1    
   168   85   87 1    
   169   85  206 1    
   170   86  207 1    
   171   86  208 1    
   172   86  209 1    
   173   87   88 2    
   174   87   89 am   BACKBONE|DICT|INTERRES
   175   89   90 1    
   176   89  210 1    
   177   90   91 1    
   178   90   92 1    
   179   90  211 1    
   180   91  212 1    
   181   91  213 1    
   182   91  214 1    
   183   92   93 2    
   184   92   94 am   BACKBONE|DICT|INTERRES
   185   94   95 1    
   186   94  215 1    
   187   95   96 1    
   188   95   97 1    
   189   95  216 1    
   190   96  217 1    
   191   96  218 1    
   192   96  219 1    
   193   97   98 2    
   194   97   99 am   BACKBONE|DICT|INTERRES
   195   99  100 1    
   196   99  220 1    
   197  100  101 1    
   198  100  102 1    
   199  100  221 1    
   200  101  222 1    
   201  101  223 1    
   202  101  224 1    
   203  102  103 2    
   204  102  104 am   BACKBONE|DICT|INTERRES
   205  104  105 1    
   206  104  225 1    
   207  105  106 1    
   208  105  107 1    
   209  105  226 1    
   210  106  227 1    
   211  106  228 1    
   212  106  229 1    
   213  107  108 2    
   214  107  109 am   BACKBONE|DICT|INTERRES
   215  109  110 1    
   216  109  230 1    
   217  110  111 1    
   218  110  112 1    
   219  110  231 1    
   220  111  232 1    
   221  111  233 1    
   222  111  234 1    
   223  112  113 2    
   224  112  114 am   BACKBONE|DICT|INTERRES
   225  114  115 1    
   226  114  235 1    
   227  115  116 1    
   228  115  117 1    
   229  115  236 1    
   230  116  237 1    
   231  116  238 1    
   232  116  239 1    
   233  117  118 2    
   234  117  119 am   BACKBONE|DICT|INTERRES
   235  119  120 1    
   236  119  240 1    
   237  120  121 1    
   238  120  124 1    
   239  120  241 1    
   240  121  122 am   BACKBONE|DICT|INTERRES
   241  121  123 2    
   242  122  242 1    
   243  122  243 1    
   244  124  125 1    
   245  124  244 1    
   246  124  245 1    
   247  125  126 1    
   248  126  246 1    
   249  126  247 1    
@<TRIPOS>SUBSTRUCTURE
     1 UNK         1 GROUP             0       ****    0 ROOT    
