@<TRIPOS>MOLECULE
3R540
247   249    1
SMALL
USER_CHARGES


@<TRIPOS>ATOM
      1 CA         -2.0345  -14.0117  -41.5654 C.3       0 UNK        -0.1800 
      2 C          -1.1077  -12.8099  -41.6853 C.2       0 UNK         0.5000 
      3 O          -0.8783  -12.1121  -40.6972 O.2       0 UNK        -0.5000 
      4 N          -0.5947  -12.5563  -42.8950 N.am      1 UNK        -0.5000 
      5 CA          0.2959  -11.4401  -43.2270 C.3       1 UNK         0.1400 
      6 C6          0.5256  -11.2851  -44.7559 C.3       23 UNK        -0.0398 
      7 S7         -0.9690  -11.5224  -45.7796 S.3       23 UNK        -0.2404 
      8 C8         -0.5252  -13.0978  -46.5746 C.3       23 UNK        -0.0205 
      9 C9         -1.7152  -13.7823  -47.2213 C.ar      23 UNK        -0.0193 
     10 C10        -1.8402  -13.8206  -48.6129 C.ar      23 UNK        -0.1150 
     11 C11        -2.8861  -14.5310  -49.2085 C.ar      23 UNK        -0.0193 
     12 C12        -3.8276  -15.1764  -48.4040 C.ar      23 UNK        -0.1150 
     13 C13        -3.7072  -15.1504  -47.0130 C.ar      23 UNK        -0.0193 
     14 C14        -2.6544  -14.4443  -46.4261 C.ar      23 UNK        -0.1150 
     15 C15        -4.6873  -15.9216  -46.1460 C.3       23 UNK        -0.0205 
     16 S16        -4.0297  -17.5605  -45.7071 S.3       23 UNK        -0.2404 
     17 C17        -4.1328  -18.4441  -47.3060 C.3       23 UNK        -0.0398 
     18 CA         -3.7433  -19.9477  -47.3036 C.3       11 UNK         0.1400 
     19 N          -2.3002  -20.1768  -47.4291 N.am      11 UNK        -0.5000 
     20 C          -1.7680  -21.3346  -47.8505 C.2       10 UNK         0.5000 
     21 O          -2.4383  -22.3089  -48.1893 O.2       10 UNK        -0.5000 
     22 CA         -0.2356  -21.4539  -47.8766 C.3       10 UNK         0.1400 
     23 CB          0.3371  -20.8075  -49.1461 C.3       10 UNK        -0.1800 
     24 N           0.4033  -20.8960  -46.6855 N.am      10 UNK        -0.5000 
     25 C           0.2135  -21.3563  -45.4398 C.2       9 UNK         0.5000 
     26 O          -0.5088  -22.3157  -45.1672 O.2       9 UNK        -0.5000 
     27 CA          0.9089  -20.5873  -44.3019 C.3       9 UNK         0.1400 
     28 CB          2.3871  -20.9876  -44.1877 C.3       9 UNK        -0.1800 
     29 N           0.7993  -19.1378  -44.4641 N.am      9 UNK        -0.5000 
     30 C          -0.3590  -18.4636  -44.4422 C.2       8 UNK         0.5000 
     31 O          -1.4450  -18.9917  -44.2077 O.2       8 UNK        -0.5000 
     32 CA         -0.2967  -16.9635  -44.7878 C.3       8 UNK         0.1400 
     33 CB          0.1750  -16.1432  -43.5790 C.3       8 UNK        -0.1800 
     34 N           0.5648  -16.6940  -45.9404 N.am      8 UNK        -0.5000 
     35 C           0.3347  -17.1584  -47.1783 C.2       7 UNK         0.5000 
     36 O          -0.6673  -17.7982  -47.4946 O.2       7 UNK        -0.5000 
     37 CA          1.4462  -16.9373  -48.2190 C.3       7 UNK         0.1400 
     38 CB          1.2957  -15.5838  -48.9250 C.3       7 UNK        -0.1800 
     39 N           2.7767  -17.0391  -47.6188 N.am      7 UNK        -0.5000 
     40 C           3.3370  -18.1953  -47.2359 C.2       6 UNK         0.5000 
     41 O           2.8038  -19.2935  -47.3901 O.2       6 UNK        -0.5000 
     42 CA          4.7002  -18.1070  -46.5240 C.3       6 UNK         0.1400 
     43 CB          5.8422  -18.0278  -47.5479 C.3       6 UNK        -0.1800 
     44 N           4.7854  -16.9654  -45.6117 N.am      6 UNK        -0.5000 
     45 C           4.0566  -16.8350  -44.4941 C.2       5 UNK         0.5000 
     46 O           3.2854  -17.7014  -44.0848 O.2       5 UNK        -0.5000 
     47 CA          4.1714  -15.5000  -43.7309 C.3       5 UNK         0.1400 
     48 CB          5.2189  -15.6033  -42.6133 C.3       5 UNK        -0.1800 
     49 N           4.4918  -14.3541  -44.5863 N.am      5 UNK        -0.5000 
     50 C           3.7275  -13.9095  -45.5922 C.2       4 UNK         0.5000 
     51 O           2.6630  -14.4338  -45.9266 O.2       4 UNK        -0.5000 
     52 CA          4.2566  -12.6701  -46.3256 C.3       4 UNK         0.1400 
     53 CB          3.3715  -12.2215  -47.5045 C.3       4 UNK        -0.1800 
     54 N           4.4157  -11.5765  -45.3703 N.am      4 UNK        -0.5000 
     55 C           5.3517  -10.6221  -45.4447 C.2       3 UNK         0.5000 
     56 O           6.2212  -10.5934  -46.3167 O.2       3 UNK        -0.5000 
     57 CA          5.3105   -9.4948  -44.3927 C.3       3 UNK         0.1400 
     58 CB          4.9601   -8.1545  -45.0597 C.3       3 UNK        -0.1800 
     59 N           4.3500   -9.7348  -43.3134 N.am      3 UNK        -0.5000 
     60 C           4.5986  -10.4407  -42.2021 C.2       2 UNK         0.5000 
     61 O           5.6695  -11.0025  -41.9718 O.2       2 UNK        -0.5000 
     62 CA          3.4443  -10.5425  -41.1851 C.3       2 UNK         0.1400 
     63 CB          3.5032   -9.3778  -40.1850 C.3       2 UNK        -0.1800 
     64 N           2.1258  -10.5615  -41.8279 N.am      2 UNK        -0.5000 
     65 C           1.6588  -11.6052  -42.5242 C.2       1 UNK         0.5000 
     66 O           2.2838  -12.6574  -42.6693 O.2       1 UNK        -0.5000 
     67 C          -4.3620  -20.7601  -46.1451 C.2       11 UNK         0.5000 
     68 O          -5.4619  -21.2886  -46.3077 O.2       11 UNK        -0.5000 
     69 N          -3.6334  -20.8944  -45.0251 N.am      12 UNK        -0.5000 
     70 CA         -4.0312  -21.6964  -43.8652 C.3       12 UNK         0.1400 
     71 CB         -3.0803  -21.4188  -42.6915 C.3       12 UNK        -0.1800 
     72 C          -4.0888  -23.2027  -44.1782 C.2       12 UNK         0.5000 
     73 O          -5.0220  -23.8800  -43.7462 O.2       12 UNK        -0.5000 
     74 N          -3.1138  -23.6893  -44.9577 N.am      13 UNK        -0.5000 
     75 CA         -3.0707  -25.0550  -45.4850 C.3       13 UNK         0.1400 
     76 CB         -1.6239  -25.3754  -45.8934 C.3       13 UNK        -0.1800 
     77 C          -4.0140  -25.2739  -46.6854 C.2       13 UNK         0.5000 
     78 O          -4.1951  -26.4179  -47.1056 O.2       13 UNK        -0.5000 
     79 N          -4.5410  -24.1800  -47.2564 N.am      14 UNK        -0.5000 
     80 CA         -5.3294  -24.0954  -48.4906 C.3       14 UNK         0.1400 
     81 CB         -6.7351  -24.6902  -48.2695 C.3       14 UNK        -0.1800 
     82 C          -4.5981  -24.7191  -49.6980 C.2       14 UNK         0.5000 
     83 O          -5.2261  -25.3944  -50.5108 O.2       14 UNK        -0.5000 
     84 N          -3.2679  -24.5445  -49.7417 N.am      15 UNK        -0.5000 
     85 CA         -2.3106  -25.1723  -50.6620 C.3       15 UNK         0.1400 
     86 CB         -2.3998  -24.5220  -52.0557 C.3       15 UNK        -0.1800 
     87 C          -2.4050  -26.7165  -50.7054 C.2       15 UNK         0.5000 
     88 O          -2.2130  -27.3142  -51.7647 O.2       15 UNK        -0.5000 
     89 N          -2.7114  -27.3266  -49.5489 N.am      16 UNK        -0.5000 
     90 CA         -3.0179  -28.7475  -49.3493 C.3       16 UNK         0.1400 
     91 CB         -1.8086  -29.6452  -49.6878 C.3       16 UNK        -0.1800 
     92 C          -4.3201  -29.1594  -50.0692 C.2       16 UNK         0.5000 
     93 O          -4.3689  -30.2037  -50.7215 O.2       16 UNK        -0.5000 
     94 N          -5.3479  -28.3103  -49.9207 N.am      17 UNK        -0.5000 
     95 CA         -6.6807  -28.3845  -50.5250 C.3       17 UNK         0.1400 
     96 CB         -7.4536  -29.6184  -50.0130 C.3       17 UNK        -0.1800 
     97 C          -6.6270  -28.2865  -52.0633 C.2       17 UNK         0.5000 
     98 O          -7.0781  -29.1968  -52.7625 O.2       17 UNK        -0.5000 
     99 N          -6.0671  -27.1779  -52.5595 N.am      18 UNK        -0.5000 
    100 CA        -5.9343  -26.8639  -53.9788 C.3       18 UNK         0.1400 
    101 CB        -4.5187  -27.2394  -54.4487 C.3       18 UNK        -0.1800 
    102 C         -6.2109  -25.3729  -54.2246 C.2       18 UNK         0.5000 
    103 O         -6.1012  -24.5540  -53.3110 O.2       18 UNK        -0.5000 
    104 N         -6.5214  -25.0348  -55.4817 N.am      19 UNK        -0.5000 
    105 CA        -6.7732  -23.6651  -55.9456 C.3       19 UNK         0.1400 
    106 CB        -7.5496  -23.7354  -57.2710 C.3       19 UNK        -0.1800 
    107 C         -5.4930  -22.8148  -56.1081 C.2       19 UNK         0.5000 
    108 O         -5.5910  -21.6264  -56.4140 O.2       19 UNK        -0.5000 
    109 N         -4.3191  -23.4336  -55.9216 N.am      20 UNK        -0.5000 
    110 CA        -2.9937  -22.8354  -56.0855 C.3       20 UNK         0.1400 
    111 CB        -1.9525  -23.9658  -56.1091 C.3       20 UNK        -0.1800 
    112 C         -2.6192  -21.7819  -55.0226 C.2       20 UNK         0.5000 
    113 O         -1.6543  -21.0461  -55.2385 O.2       20 UNK        -0.5000 
    114 N         -3.3580  -21.7260  -53.9031 N.am      21 UNK        -0.5000 
    115 CA        -3.1581  -20.7897  -52.7928 C.3       21 UNK         0.1400 
    116 CB        -4.1881  -21.0809  -51.6875 C.3       21 UNK        -0.1800 
    117 C         -3.2286  -19.3207  -53.2561 C.2       21 UNK         0.5000 
    118 O         -4.3101  -18.8408  -53.6015 O.2       21 UNK        -0.5000 
    119 N         -2.0617  -18.6641  -53.2906 N.am      22 UNK        -0.5000 
    120 CA        -1.8382  -17.3046  -53.8184 C.3       22 UNK         0.1400 
    121 C         -2.0150  -17.1802  -55.3643 C.2       22 UNK         0.5000 
    122 N         -1.9561  -18.2663  -56.1264 N.am      22 UNK        -0.7600 
    123 O         -2.1748  -16.0824  -55.8917 O.2       22 UNK        -0.5000 
    124 C124       -2.5983  -16.1984  -53.0320 C.3       23 UNK        -0.0398 
    125 S125       -2.1935  -16.2117  -51.2553 S.3       23 UNK        -0.2404 
    126 C126       -2.9715  -14.6590  -50.7187 C.3       23 UNK        -0.0205 
    127 H127       -2.2628  -14.4469  -42.5387 H         1 UNK         0.0600 
    128 H128       -2.9751  -13.7153  -41.1012 H         1 UNK         0.0600 
    129 H129       -1.5744  -14.7798  -40.9438 H         1 UNK         0.0600 
    130 H130       -0.8316  -13.1559  -43.6699 H         1 UNK         0.3000 
    131 H131       -0.1828  -10.5283  -42.8636 H         1 UNK         0.0600 
    132 H132        0.9238  -10.2921  -44.9707 H         1 UNK         0.0800 
    133 H133        1.2874  -11.9847  -45.1025 H         1 UNK         0.0800 
    134 H134        0.2527  -12.9072  -47.3138 H         1 UNK         0.0800 
    135 H135       -0.0887  -13.7776  -45.8422 H         1 UNK         0.0800 
    136 H136       -1.1016  -13.3334  -49.2337 H         1 UNK         0.1150 
    137 H137       -4.6284  -15.7381  -48.8641 H         1 UNK         0.1150 
    138 H138       -2.5494  -14.4352  -45.3506 H         1 UNK         0.1150 
    139 H139       -4.8839  -15.3628  -45.2299 H         1 UNK         0.0800 
    140 H140       -5.6487  -16.0308  -46.6501 H         1 UNK         0.0800 
    141 H141       -3.5190  -17.9166  -48.0371 H         1 UNK         0.0800 
    142 H142       -5.1601  -18.3474  -47.6604 H         1 UNK         0.0800 
    143 H143       -4.1839  -20.3585  -48.2153 H         1 UNK         0.0600 
    144 H144       -1.6896  -19.3916  -47.2149 H         1 UNK         0.3000 
    145 H145        0.0088  -22.5178  -47.9059 H         1 UNK         0.0600 
    146 H146        1.4192  -20.9275  -49.1982 H         1 UNK         0.0600 
    147 H147       -0.0846  -21.2685  -50.0403 H         1 UNK         0.0600 
    148 H148        0.1133  -19.7425  -49.1935 H         1 UNK         0.0600 
    149 H149        1.0526  -20.1303  -46.8324 H         1 UNK         0.3000 
    150 H150        0.4126  -20.8568  -43.3674 H         1 UNK         0.0600 
    151 H151        2.4895  -22.0635  -44.0409 H         1 UNK         0.0600 
    152 H152        2.8631  -20.4961  -43.3390 H         1 UNK         0.0600 
    153 H153        2.9488  -20.7232  -45.0836 H         1 UNK         0.0600 
    154 H154        1.6659  -18.6233  -44.5908 H         1 UNK         0.3000 
    155 H155       -1.3039  -16.6361  -45.0472 H         1 UNK         0.0600 
    156 H156       -0.5336  -16.2338  -42.7561 H         1 UNK         0.0600 
    157 H157        0.2698  -15.0863  -43.8232 H         1 UNK         0.0600 
    158 H158        1.1389  -16.4853  -43.2067 H         1 UNK         0.0600 
    159 H159        1.4014  -16.1460  -45.7784 H         1 UNK         0.3000 
    160 H160        1.3526  -17.7160  -48.9783 H         1 UNK         0.0600 
    161 H161        1.3641  -14.7536  -48.2246 H         1 UNK         0.0600 
    162 H162        0.3296  -15.5169  -49.4256 H         1 UNK         0.0600 
    163 H163        2.0647  -15.4465  -49.6851 H         1 UNK         0.0600 
    164 H164        3.2394  -16.1698  -47.3943 H         1 UNK         0.3000 
    165 H165        4.8293  -19.0199  -45.9387 H         1 UNK         0.0600 
    166 H166        6.8147  -18.0420  -47.0555 H         1 UNK         0.0600 
    167 H167        5.8126  -18.8779  -48.2309 H         1 UNK         0.0600 
    168 H168        5.7832  -17.1204  -48.1502 H         1 UNK         0.0600 
    169 H169        5.4044  -16.2127  -45.8734 H         1 UNK         0.3000 
    170 H170        3.2026  -15.3010  -43.2695 H         1 UNK         0.0600 
    171 H171        4.9920  -16.4318  -41.9409 H         1 UNK         0.0600 
    172 H172        6.2201  -15.7684  -43.0131 H         1 UNK         0.0600 
    173 H173        5.2416  -14.6946  -42.0111 H         1 UNK         0.0600 
    174 H174        5.3388  -13.8510  -44.3647 H         1 UNK         0.3000 
    175 H175        5.2324  -12.9516  -46.7271 H         1 UNK         0.0600 
    176 H176        2.3964  -11.8712  -47.1700 H         1 UNK         0.0600 
    177 H177        3.8411  -11.4092  -48.0591 H         1 UNK         0.0600 
    178 H178        3.2085  -13.0386  -48.2079 H         1 UNK         0.0600 
    179 H179        3.7809  -11.5749  -44.5844 H         1 UNK         0.3000 
    180 H180        6.3130   -9.4098  -43.9679 H         1 UNK         0.0600 
    181 H181        4.9781   -7.3379  -44.3376 H         1 UNK         0.0600 
    182 H182        3.9698   -8.1784  -45.5162 H         1 UNK         0.0600 
    183 H183        5.6767   -7.9063  -45.8438 H         1 UNK         0.0600 
    184 H184        3.4442   -9.3010  -43.4127 H         1 UNK         0.3000 
    185 H185        3.5725  -11.4740  -40.6292 H         1 UNK         0.0600 
    186 H186        3.3660   -8.4144  -40.6775 H         1 UNK         0.0600 
    187 H187        2.7336   -9.4767  -39.4192 H         1 UNK         0.0600 
    188 H188        4.4666   -9.3510  -39.6739 H         1 UNK         0.0600 
    189 H189        1.5581   -9.7320  -41.7276 H         1 UNK         0.3000 
    190 H190       -2.7612  -20.3805  -44.9443 H         1 UNK         0.3000 
    191 H191       -5.0338  -21.3805  -43.5697 H         1 UNK         0.0600 
    192 H192       -2.0496  -21.6747  -42.9382 H         1 UNK         0.0600 
    193 H193       -3.1042  -20.3667  -42.4071 H         1 UNK         0.0600 
    194 H194       -3.3629  -21.9997  -41.8127 H         1 UNK         0.0600 
    195 H195       -2.3413  -23.0802  -45.2131 H         1 UNK         0.3000 
    196 H196       -3.3694  -25.7499  -44.6976 H         1 UNK         0.0600 
    197 H197       -0.9434  -25.2682  -45.0484 H         1 UNK         0.0600 
    198 H198       -1.2758  -24.7133  -46.6876 H         1 UNK         0.0600 
    199 H199       -1.5331  -26.4005  -46.2549 H         1 UNK         0.0600 
    200 H200       -4.2981  -23.2884  -46.8467 H         1 UNK         0.3000 
    201 H201       -5.4433  -23.0341  -48.7154 H         1 UNK         0.0600 
    202 H202       -7.3675  -24.5372  -49.1448 H         1 UNK         0.0600 
    203 H203       -7.2325  -24.2152  -47.4239 H         1 UNK         0.0600 
    204 H204       -6.6961  -25.7626  -48.0761 H         1 UNK         0.0600 
    205 H205       -2.8682  -23.9111  -49.0522 H         1 UNK         0.3000 
    206 H206       -1.3193  -24.9517  -50.2640 H         1 UNK         0.0600 
    207 H207       -2.1754  -23.4588  -51.9960 H         1 UNK         0.0600 
    208 H208       -3.3909  -24.6367  -52.4946 H         1 UNK         0.0600 
    209 H209       -1.6777  -24.9583  -52.7461 H         1 UNK         0.0600 
    210 H210       -2.9027  -26.7416  -48.7442 H         1 UNK         0.3000 
    211 H211       -3.2156  -28.8642  -48.2827 H         1 UNK         0.0600 
    212 H212       -0.9131  -29.3151  -49.1615 H         1 UNK         0.0600 
    213 H213       -1.9978  -30.6771  -49.3905 H         1 UNK         0.0600 
    214 H214       -1.5882  -29.6519  -50.7554 H         1 UNK         0.0600 
    215 H215       -5.1629  -27.4532  -49.4165 H         1 UNK         0.3000 
    216 H216       -7.2197  -27.5002  -50.1813 H         1 UNK         0.0600 
    217 H217       -8.4796  -29.6136  -50.3823 H         1 UNK         0.0600 
    218 H218       -6.9957  -30.5530  -50.3376 H         1 UNK         0.0600 
    219 H219       -7.5009  -29.6289  -48.9241 H         1 UNK         0.0600 
    220 H220       -5.7556  -26.4463  -51.9188 H         1 UNK         0.3000 
    221 H221       -6.6657  -27.4342  -54.5552 H         1 UNK         0.0600 
    222 H222       -3.7569  -26.6526  -53.9350 H         1 UNK         0.0600 
    223 H223       -4.3078  -28.2924  -54.2606 H         1 UNK         0.0600 
    224 H224       -4.3982  -27.0708  -55.5193 H         1 UNK         0.0600 
    225 H225       -6.5813  -25.7592  -56.1835 H         1 UNK         0.3000 
    226 H226       -7.4027  -23.1599  -55.2100 H         1 UNK         0.0600 
    227 H227       -8.4849  -24.2829  -57.1520 H         1 UNK         0.0600 
    228 H228       -7.8047  -22.7379  -57.6311 H         1 UNK         0.0600 
    229 H229       -6.9683  -24.2273  -58.0519 H         1 UNK         0.0600 
    230 H230       -4.3415  -24.4104  -55.6725 H         1 UNK         0.3000 
    231 H231       -2.9711  -22.3318  -57.0541 H         1 UNK         0.0600 
    232 H232       -0.9458  -23.5711  -56.2532 H         1 UNK         0.0600 
    233 H233       -2.1448  -24.6626  -56.9252 H         1 UNK         0.0600 
    234 H234       -1.9528  -24.5322  -55.1774 H         1 UNK         0.0600 
    235 H235       -4.1447  -22.3539  -53.8252 H         1 UNK         0.3000 
    236 H236       -2.1657  -20.9775  -52.3779 H         1 UNK         0.0600 
    237 H237       -4.0555  -20.4022  -50.8440 H         1 UNK         0.0600 
    238 H238       -5.2107  -20.9633  -52.0481 H         1 UNK         0.0600 
    239 H239       -4.0854  -22.0955  -51.3044 H         1 UNK         0.0600 
    240 H240       -1.2241  -19.1604  -53.0235 H         1 UNK         0.3000 
    241 H241       -0.7750  -17.1171  -53.6651 H         1 UNK         0.0600 
    242 H242       -2.0583  -18.1748  -57.1245 H         1 UNK         0.3800 
    243 H243       -1.8075  -19.1852  -55.7188 H         1 UNK         0.3800 
    244 H244       -2.3417  -15.2120  -53.4218 H         1 UNK         0.0800 
    245 H245       -3.6770  -16.3043  -53.1531 H         1 UNK         0.0800 
    246 H246       -2.4803  -13.8141  -51.2038 H         1 UNK         0.0800 
    247 H247       -4.0155  -14.6409  -51.0354 H         1 UNK         0.0800 
@<TRIPOS>BOND
     1    1    2 1    
     2    1  127 1    
     3    1  128 1    
     4    1  129 1    
     5    2    3 2    
     6    2    4 am   BACKBONE|DICT|INTERRES
     7    4    5 1    
     8    4  130 1    
     9    5    6 1    
    10    5   65 1    
    11    5  131 1    
    12    6    7 1    
    13    6  132 1    
    14    6  133 1    
    15    7    8 1    
    16    8    9 1    
    17    8  134 1    
    18    8  135 1    
    19    9   10 ar   
    20    9   14 ar   
    21   10   11 ar   
    22   10  136 1    
    23   11   12 ar   
    24   11  126 1    
    25   12   13 ar   
    26   12  137 1    
    27   13   14 ar   
    28   13   15 1    
    29   14  138 1    
    30   15   16 1    
    31   15  139 1    
    32   15  140 1    
    33   16   17 1    
    34   17   18 1    
    35   17  141 1    
    36   17  142 1    
    37   18   19 1    
    38   18   67 1    
    39   18  143 1    
    40   19   20 am   BACKBONE|DICT|INTERRES
    41   19  144 1    
    42   20   21 2    
    43   20   22 1    
    44   22   23 1    
    45   22   24 1    
    46   22  145 1    
    47   23  146 1    
    48   23  147 1    
    49   23  148 1    
    50   24   25 am   BACKBONE|DICT|INTERRES
    51   24  149 1    
    52   25   26 2    
    53   25   27 1    
    54   27   28 1    
    55   27   29 1    
    56   27  150 1    
    57   28  151 1    
    58   28  152 1    
    59   28  153 1    
    60   29   30 am   BACKBONE|DICT|INTERRES
    61   29  154 1    
    62   30   31 2    
    63   30   32 1    
    64   32   33 1    
    65   32   34 1    
    66   32  155 1    
    67   33  156 1    
    68   33  157 1    
    69   33  158 1    
    70   34   35 am   BACKBONE|DICT|INTERRES
    71   34  159 1    
    72   35   36 2    
    73   35   37 1    
    74   37   38 1    
    75   37   39 1    
    76   37  160 1    
    77   38  161 1    
    78   38  162 1    
    79   38  163 1    
    80   39   40 am   BACKBONE|DICT|INTERRES
    81   39  164 1    
    82   40   41 2    
    83   40   42 1    
    84   42   43 1    
    85   42   44 1    
    86   42  165 1    
    87   43  166 1    
    88   43  167 1    
    89   43  168 1    
    90   44   45 am   BACKBONE|DICT|INTERRES
    91   44  169 1    
    92   45   46 2    
    93   45   47 1    
    94   47   48 1    
    95   47   49 1    
    96   47  170 1    
    97   48  171 1    
    98   48  172 1    
    99   48  173 1    
   100   49   50 am   BACKBONE|DICT|INTERRES
   101   49  174 1    
   102   50   51 2    
   103   50   52 1    
   104   52   53 1    
   105   52   54 1    
   106   52  175 1    
   107   53  176 1    
   108   53  177 1    
   109   53  178 1    
   110   54   55 am   BACKBONE|DICT|INTERRES
   111   54  179 1    
   112   55   56 2    
   113   55   57 1    
   114   57   58 1    
   115   57   59 1    
   116   57  180 1    
   117   58  181 1    
   118   58  182 1    
   119   58  183 1    
   120   59   60 am   BACKBONE|DICT|INTERRES
   121   59  184 1    
   122   60   61 2    
   123   60   62 1    
   124   62   63 1    
   125   62   64 1    
   126   62  185 1    
   127   63  186 1    
   128   63  187 1    
   129   63  188 1    
   130   64   65 am   BACKBONE|DICT|INTERRES
   131   64  189 1    
   132   65   66 2    
   133   67   68 2    
   134   67   69 am   BACKBONE|DICT|INTERRES
   135   69   70 1    
   136   69  190 1    
   137   70   71 1    
   138   70   72 1    
   139   70  191 1    
   140   71  192 1    
   141   71  193 1    
   142   71  194 1    
   143   72   73 2    
   144   72   74 am   BACKBONE|DICT|INTERRES
   145   74   75 1    
   146   74  195 1    
   147   75   76 1    
   148   75   77 1    
   149   75  196 1    
   150   76  197 1    
   151   76  198 1    
   152   76  199 1    
   153   77   78 2    
   154   77   79 am   BACKBONE|DICT|INTERRES
   155   79   80 1    
   156   79  200 1    
   157   80   81 1    
   158   80   82 1    
   159   80  201 1    
   160   81  202 1    
   161   81  203 1    
   162   81  204 1    
   163   82   83 2    
   164   82   84 am   BACKBONE|DICT|INTERRES
   165   84   85 1    
   166   84  205 1    
   167   85   86 1    
   168   85   87 1    
   169   85  206 1    
   170   86  207 1    
   171   86  208 1    
   172   86  209 1    
   173   87   88 2    
   174   87   89 am   BACKBONE|DICT|INTERRES
   175   89   90 1    
   176   89  210 1    
   177   90   91 1    
   178   90   92 1    
   179   90  211 1    
   180   91  212 1    
   181   91  213 1    
   182   91  214 1    
   183   92   93 2    
   184   92   94 am   BACKBONE|DICT|INTERRES
   185   94   95 1    
   186   94  215 1    
   187   95   96 1    
   188   95   97 1    
   189   95  216 1    
   190   96  217 1    
   191   96  218 1    
   192   96  219 1    
   193   97   98 2    
   194   97   99 am   BACKBONE|DICT|INTERRES
   195   99  100 1    
   196   99  220 1    
   197  100  101 1    
   198  100  102 1    
   199  100  221 1    
   200  101  222 1    
   201  101  223 1    
   202  101  224 1    
   203  102  103 2    
   204  102  104 am   BACKBONE|DICT|INTERRES
   205  104  105 1    
   206  104  225 1    
   207  105  106 1    
   208  105  107 1    
   209  105  226 1    
   210  106  227 1    
   211  106  228 1    
   212  106  229 1    
   213  107  108 2    
   214  107  109 am   BACKBONE|DICT|INTERRES
   215  109  110 1    
   216  109  230 1    
   217  110  111 1    
   218  110  112 1    
   219  110  231 1    
   220  111  232 1    
   221  111  233 1    
   222  111  234 1    
   223  112  113 2    
   224  112  114 am   BACKBONE|DICT|INTERRES
   225  114  115 1    
   226  114  235 1    
   227  115  116 1    
   228  115  117 1    
   229  115  236 1    
   230  116  237 1    
   231  116  238 1    
   232  116  239 1    
   233  117  118 2    
   234  117  119 am   BACKBONE|DICT|INTERRES
   235  119  120 1    
   236  119  240 1    
   237  120  121 1    
   238  120  124 1    
   239  120  241 1    
   240  121  122 am   BACKBONE|DICT|INTERRES
   241  121  123 2    
   242  122  242 1    
   243  122  243 1    
   244  124  125 1    
   245  124  244 1    
   246  124  245 1    
   247  125  126 1    
   248  126  246 1    
   249  126  247 1    
@<TRIPOS>SUBSTRUCTURE
     1 UNK         1 GROUP             0       ****    0 ROOT    
