@<TRIPOS>MOLECULE
3R540
247   249    1
SMALL
USER_CHARGES


@<TRIPOS>ATOM
      1 CA          6.0763  -11.6567  -48.5317 C.3       0 UNK        -0.1800 
      2 C           6.3802  -13.1103  -48.2002 C.2       0 UNK         0.5000 
      3 O           6.9264  -13.3991  -47.1362 O.2       0 UNK        -0.5000 
      4 N           6.0018  -14.0337  -49.0912 N.am      1 UNK        -0.5000 
      5 CA          6.2124  -15.4879  -49.0067 C.3       1 UNK         0.1400 
      6 C6          6.1982  -16.1266  -50.4243 C.3       23 UNK        -0.0398 
      7 S7          4.6802  -15.7672  -51.3888 S.3       23 UNK        -0.2404 
      8 C8          3.8618  -17.3944  -51.4838 C.3       23 UNK        -0.0205 
      9 C9          2.3860  -17.2933  -51.1279 C.ar      23 UNK        -0.0193 
     10 C10         1.4680  -16.8013  -52.0608 C.ar      23 UNK        -0.1150 
     11 C11         0.1123  -16.6966  -51.7351 C.ar      23 UNK        -0.0193 
     12 C12        -0.3199  -17.0832  -50.4638 C.ar      23 UNK        -0.1150 
     13 C13         0.5816  -17.5985  -49.5308 C.ar      23 UNK        -0.0193 
     14 C14         1.9332  -17.6980  -49.8684 C.ar      23 UNK        -0.1150 
     15 C15         0.0942  -18.0324  -48.1561 C.3       23 UNK        -0.0205 
     16 S16        -0.8688  -19.5759  -48.2212 S.3       23 UNK        -0.2404 
     17 C17         0.4131  -20.7962  -48.6685 C.3       23 UNK        -0.0398 
     18 CA          0.5926  -21.9799  -47.6861 C.3       11 UNK         0.1400 
     19 N           0.9839  -21.5858  -46.3283 N.am      11 UNK        -0.5000 
     20 C           1.7550  -22.3499  -45.5376 C.2       10 UNK         0.5000 
     21 O           2.2283  -23.4315  -45.8876 O.2       10 UNK        -0.5000 
     22 CA          2.0383  -21.8396  -44.1129 C.3       10 UNK         0.1400 
     23 CB          3.1250  -20.7552  -44.1349 C.3       10 UNK        -0.1800 
     24 N           0.8474  -21.3192  -43.4462 N.am      10 UNK        -0.5000 
     25 C          -0.2227  -22.0537  -43.1035 C.2       9 UNK         0.5000 
     26 O          -0.2970  -23.2720  -43.2686 O.2       9 UNK        -0.5000 
     27 CA         -1.4311  -21.2936  -42.5114 C.3       9 UNK         0.1400 
     28 CB         -1.3579  -21.2812  -40.9777 C.3       9 UNK        -0.1800 
     29 N          -1.5448  -19.9152  -42.9940 N.am      9 UNK        -0.5000 
     30 C          -1.6243  -19.5583  -44.2828 C.2       8 UNK         0.5000 
     31 O          -1.7549  -20.3718  -45.1958 O.2       8 UNK        -0.5000 
     32 CA         -1.4609  -18.0665  -44.6277 C.3       8 UNK         0.1400 
     33 CB         -2.7959  -17.4693  -45.0988 C.3       8 UNK        -0.1800 
     34 N          -0.9020  -17.2209  -43.5688 N.am      8 UNK        -0.5000 
     35 C           0.2836  -17.3644  -42.9576 C.2       7 UNK         0.5000 
     36 O           1.0210  -18.3375  -43.1216 O.2       7 UNK        -0.5000 
     37 CA          0.7113  -16.2533  -41.9789 C.3       7 UNK         0.1400 
     38 CB          1.8433  -15.4049  -42.5780 C.3       7 UNK        -0.1800 
     39 N          -0.3915  -15.3553  -41.6288 N.am      7 UNK        -0.5000 
     40 C          -1.0397  -15.3490  -40.4568 C.2       6 UNK         0.5000 
     41 O          -0.8152  -16.1506  -39.5491 O.2       6 UNK        -0.5000 
     42 CA         -2.1033  -14.2522  -40.2421 C.3       6 UNK         0.1400 
     43 CB         -1.5203  -13.1040  -39.4035 C.3       6 UNK        -0.1800 
     44 N          -2.6299  -13.6986  -41.4910 N.am      6 UNK        -0.5000 
     45 C          -3.5415  -14.3041  -42.2627 C.2       5 UNK         0.5000 
     46 O          -4.0628  -15.3842  -41.9848 O.2       5 UNK        -0.5000 
     47 CA         -3.9137  -13.5988  -43.5835 C.3       5 UNK         0.1400 
     48 CB         -5.1207  -12.6719  -43.3734 C.3       5 UNK        -0.1800 
     49 N          -2.8258  -12.8360  -44.2127 N.am      5 UNK        -0.5000 
     50 C          -1.6416  -13.3470  -44.5720 C.2       4 UNK         0.5000 
     51 O          -1.2777  -14.4859  -44.2799 O.2       4 UNK        -0.5000 
     52 CA         -0.6894  -12.4453  -45.3628 C.3       4 UNK         0.1400 
     53 CB          0.2631  -11.6925  -44.4200 C.3       4 UNK        -0.1800 
     54 N           0.0808  -13.3023  -46.2567 N.am      4 UNK        -0.5000 
     55 C           0.5094  -12.9851  -47.4802 C.2       3 UNK         0.5000 
     56 O           0.3771  -11.8642  -47.9754 O.2       3 UNK        -0.5000 
     57 CA          1.2104  -14.1118  -48.2696 C.3       3 UNK         0.1400 
     58 CB          1.6125  -13.6802  -49.6912 C.3       3 UNK        -0.1800 
     59 N           2.4033  -14.6033  -47.5811 N.am      3 UNK        -0.5000 
     60 C           2.4278  -15.4567  -46.5481 C.2       2 UNK         0.5000 
     61 O           1.4095  -15.9271  -46.0409 O.2       2 UNK        -0.5000 
     62 CA          3.8155  -15.8086  -45.9681 C.3       2 UNK         0.1400 
     63 CB          3.8819  -17.2466  -45.4097 C.3       2 UNK        -0.1800 
     64 N           4.9084  -15.5166  -46.9085 N.am      2 UNK        -0.5000 
     65 C           5.2498  -16.1933  -48.0158 C.2       1 UNK         0.5000 
     66 O           4.8249  -17.3163  -48.2798 O.2       1 UNK        -0.5000 
     67 C          -0.6091  -22.9427  -47.6778 C.2       11 UNK         0.5000 
     68 O          -0.6680  -23.8169  -48.5420 O.2       11 UNK        -0.5000 
     69 N          -1.5091  -22.8248  -46.6869 N.am      12 UNK        -0.5000 
     70 CA         -2.6628  -23.7098  -46.4768 C.3       12 UNK         0.1400 
     71 CB         -3.4250  -23.2847  -45.2128 C.3       12 UNK        -0.1800 
     72 C          -2.2863  -25.1973  -46.3655 C.2       12 UNK         0.5000 
     73 O          -3.0176  -26.0472  -46.8701 O.2       12 UNK        -0.5000 
     74 N          -1.1294  -25.4762  -45.7510 N.am      13 UNK        -0.5000 
     75 CA         -0.5561  -26.8135  -45.6011 C.3       13 UNK         0.1400 
     76 CB          0.6693  -26.7184  -44.6793 C.3       13 UNK        -0.1800 
     77 C          -0.1762  -27.4957  -46.9331 C.2       13 UNK         0.5000 
     78 O          -0.0942  -28.7243  -46.9686 O.2       13 UNK        -0.5000 
     79 N           0.0529  -26.7045  -47.9903 N.am      14 UNK        -0.5000 
     80 CA          0.4285  -27.1790  -49.3211 C.3       14 UNK         0.1400 
     81 CB          1.6780  -26.4138  -49.7878 C.3       14 UNK        -0.1800 
     82 C          -0.7174  -27.0012  -50.3304 C.2       14 UNK         0.5000 
     83 O          -1.0114  -27.9287  -51.0852 O.2       14 UNK        -0.5000 
     84 N          -1.3301  -25.8106  -50.3439 N.am      15 UNK        -0.5000 
     85 CA         -2.3184  -25.3953  -51.3391 C.3       15 UNK         0.1400 
     86 CB         -2.2618  -23.8643  -51.4730 C.3       15 UNK        -0.1800 
     87 C          -3.7547  -25.8404  -51.0165 C.2       15 UNK         0.5000 
     88 O          -4.6044  -25.7784  -51.9059 O.2       15 UNK        -0.5000 
     89 N          -4.0227  -26.2242  -49.7583 N.am      16 UNK        -0.5000 
     90 CA         -5.3188  -26.5895  -49.1631 C.3       16 UNK         0.1400 
     91 CB         -5.9707  -27.7834  -49.8874 C.3       16 UNK        -0.1800 
     92 C          -6.2945  -25.4021  -49.0342 C.2       16 UNK         0.5000 
     93 O          -6.8263  -25.1647  -47.9498 O.2       16 UNK        -0.5000 
     94 N          -6.4850  -24.6586  -50.1299 N.am      17 UNK        -0.5000 
     95 CA         -7.2939  -23.4413  -50.2124 C.3       17 UNK         0.1400 
     96 CB         -7.7408  -23.2557  -51.6711 C.3       17 UNK        -0.1800 
     97 C          -6.5523  -22.1859  -49.7069 C.2       17 UNK         0.5000 
     98 O          -7.1757  -21.1314  -49.5808 O.2       17 UNK        -0.5000 
     99 N          -5.2429  -22.3109  -49.4394 N.am      18 UNK        -0.5000 
    100 CA        -4.3274  -21.2503  -49.0082 C.3       18 UNK         0.1400 
    101 CB        -4.7213  -20.7311  -47.6065 C.3       18 UNK        -0.1800 
    102 C         -4.2128  -20.1488  -50.0814 C.2       18 UNK         0.5000 
    103 O         -4.0688  -20.4730  -51.2612 O.2       18 UNK        -0.5000 
    104 N         -4.3017  -18.8764  -49.6734 N.am      19 UNK        -0.5000 
    105 CA        -4.1907  -17.7000  -50.5376 C.3       19 UNK         0.1400 
    106 CB        -4.1658  -16.4388  -49.6606 C.3       19 UNK        -0.1800 
    107 C         -5.2759  -17.5895  -51.6261 C.2       19 UNK         0.5000 
    108 O         -5.0576  -16.8889  -52.6137 O.2       19 UNK        -0.5000 
    109 N         -6.4011  -18.3032  -51.4700 N.am      20 UNK        -0.5000 
    110 CA        -7.4490  -18.4062  -52.4886 C.3       20 UNK         0.1400 
    111 CB        -8.7003  -19.0535  -51.8796 C.3       20 UNK        -0.1800 
    112 C         -6.9945  -19.1659  -53.7526 C.2       20 UNK         0.5000 
    113 O         -7.5603  -18.9387  -54.8228 O.2       20 UNK        -0.5000 
    114 N         -5.9584  -20.0126  -53.6326 N.am      21 UNK        -0.5000 
    115 CA        -5.3202  -20.6986  -54.7597 C.3       21 UNK         0.1400 
    116 CB        -4.4163  -21.8221  -54.2289 C.3       21 UNK        -0.1800 
    117 C         -4.5124  -19.7487  -55.6687 C.2       21 UNK         0.5000 
    118 O         -4.2490  -20.1000  -56.8195 O.2       21 UNK        -0.5000 
    119 N         -4.1398  -18.5704  -55.1500 N.am      22 UNK        -0.5000 
    120 CA        -3.4126  -17.5191  -55.8795 C.3       22 UNK         0.1400 
    121 C         -4.3060  -16.6757  -56.8381 C.2       22 UNK         0.5000 
    122 N         -5.6246  -16.8385  -56.8470 N.am      22 UNK        -0.7600 
    123 O         -3.7903  -15.8616  -57.5993 O.2       22 UNK        -0.5000 
    124 C124       -2.6072  -16.5989  -54.9242 C.3       23 UNK        -0.0398 
    125 S125       -1.4739  -17.5193  -53.8297 S.3       23 UNK        -0.2404 
    126 C126       -0.8841  -16.1748  -52.7574 C.3       23 UNK        -0.0205 
    127 H127        5.5741  -11.5569  -49.4943 H         1 UNK         0.0600 
    128 H128        5.4326  -11.2237  -47.7660 H         1 UNK         0.0600 
    129 H129        7.0003  -11.0797  -48.5685 H         1 UNK         0.0600 
    130 H130        5.5337  -13.7340  -49.9356 H         1 UNK         0.3000 
    131 H131        7.2128  -15.6493  -48.5998 H         1 UNK         0.0600 
    132 H132        6.3802  -17.2011  -50.3743 H         1 UNK         0.0800 
    133 H133        7.0386  -15.7297  -50.9952 H         1 UNK         0.0800 
    134 H134        4.3506  -18.1139  -50.8264 H         1 UNK         0.0800 
    135 H135        3.9701  -17.7880  -52.4954 H         1 UNK         0.0800 
    136 H136        1.8101  -16.4980  -53.0403 H         1 UNK         0.1150 
    137 H137       -1.3606  -16.9969  -50.1971 H         1 UNK         0.1150 
    138 H138        2.6323  -18.0919  -49.1463 H         1 UNK         0.1150 
    139 H139        0.9312  -18.1600  -47.4679 H         1 UNK         0.0800 
    140 H140       -0.5305  -17.2431  -47.7362 H         1 UNK         0.0800 
    141 H141        1.3717  -20.2880  -48.7718 H         1 UNK         0.0800 
    142 H142        0.1806  -21.1703  -49.6673 H         1 UNK         0.0800 
    143 H143        1.4169  -22.5624  -48.1045 H         1 UNK         0.0600 
    144 H144        0.5761  -20.7362  -45.9647 H         1 UNK         0.3000 
    145 H145        2.4097  -22.6811  -43.5242 H         1 UNK         0.0600 
    146 H146        3.3792  -20.4289  -43.1263 H         1 UNK         0.0600 
    147 H147        4.0399  -21.1250  -44.5995 H         1 UNK         0.0600 
    148 H148        2.8011  -19.8791  -44.6968 H         1 UNK         0.0600 
    149 H149        0.8266  -20.3169  -43.2802 H         1 UNK         0.3000 
    150 H150       -2.3382  -21.8222  -42.8063 H         1 UNK         0.0600 
    151 H151       -1.2962  -22.2958  -40.5816 H         1 UNK         0.0600 
    152 H152       -2.2438  -20.8173  -40.5435 H         1 UNK         0.0600 
    153 H153       -0.4831  -20.7354  -40.6217 H         1 UNK         0.0600 
    154 H154       -1.4222  -19.1822  -42.3115 H         1 UNK         0.3000 
    155 H155       -0.7573  -18.0209  -45.4588 H         1 UNK         0.0600 
    156 H156       -3.5180  -17.4094  -44.2837 H         1 UNK         0.0600 
    157 H157       -3.2393  -18.0733  -45.8913 H         1 UNK         0.0600 
    158 H158       -2.6585  -16.4662  -45.5020 H         1 UNK         0.0600 
    159 H159       -1.3793  -16.3394  -43.4282 H         1 UNK         0.3000 
    160 H160        1.0988  -16.7444  -41.0841 H         1 UNK         0.0600 
    161 H161        2.1522  -14.6182  -41.8896 H         1 UNK         0.0600 
    162 H162        1.5389  -14.9306  -43.5113 H         1 UNK         0.0600 
    163 H163        2.7228  -16.0146  -42.7822 H         1 UNK         0.0600 
    164 H164       -0.6813  -14.7093  -42.3539 H         1 UNK         0.3000 
    165 H165       -2.9270  -14.6979  -39.6802 H         1 UNK         0.0600 
    166 H166       -2.2776  -12.3508  -39.1852 H         1 UNK         0.0600 
    167 H167       -1.1433  -13.4699  -38.4475 H         1 UNK         0.0600 
    168 H168       -0.6928  -12.6111  -39.9156 H         1 UNK         0.0600 
    169 H169       -2.2541  -12.8122  -41.7944 H         1 UNK         0.3000 
    170 H170       -4.2065  -14.3800  -44.2883 H         1 UNK         0.0600 
    171 H171       -5.9574  -13.2129  -42.9290 H         1 UNK         0.0600 
    172 H172       -4.8782  -11.8405  -42.7104 H         1 UNK         0.0600 
    173 H173       -5.4706  -12.2577  -44.3191 H         1 UNK         0.0600 
    174 H174       -3.0405  -11.8817  -44.4642 H         1 UNK         0.3000 
    175 H175       -1.2793  -11.7323  -45.9424 H         1 UNK         0.0600 
    176 H176        0.8604  -12.3797  -43.8190 H         1 UNK         0.0600 
    177 H177        0.9489  -11.0565  -44.9799 H         1 UNK         0.0600 
    178 H178       -0.2905  -11.0499  -43.7345 H         1 UNK         0.0600 
    179 H179        0.2131  -14.2547  -45.9234 H         1 UNK         0.3000 
    180 H180        0.4953  -14.9308  -48.3624 H         1 UNK         0.0600 
    181 H181        2.3286  -12.8578  -49.6780 H         1 UNK         0.0600 
    182 H182        0.7425  -13.3545  -50.2625 H         1 UNK         0.0600 
    183 H183        2.0640  -14.5067  -50.2385 H         1 UNK         0.0600 
    184 H184        3.2854  -14.2519  -47.9197 H         1 UNK         0.3000 
    185 H185        3.9633  -15.1308  -45.1265 H         1 UNK         0.0600 
    186 H186        3.1896  -17.3756  -44.5791 H         1 UNK         0.0600 
    187 H187        3.6085  -17.9897  -46.1586 H         1 UNK         0.0600 
    188 H188        4.8793  -17.4859  -45.0417 H         1 UNK         0.0600 
    189 H189        5.3989  -14.6416  -46.7527 H         1 UNK         0.3000 
    190 H190       -1.4310  -22.0320  -46.0545 H         1 UNK         0.3000 
    191 H191       -3.3242  -23.5964  -47.3370 H         1 UNK         0.0600 
    192 H192       -2.8637  -23.5240  -44.3100 H         1 UNK         0.0600 
    193 H193       -4.3815  -23.8046  -45.1465 H         1 UNK         0.0600 
    194 H194       -3.6338  -22.2165  -45.1989 H         1 UNK         0.0600 
    195 H195       -0.6039  -24.7108  -45.3497 H         1 UNK         0.3000 
    196 H196       -1.3039  -27.4428  -45.1143 H         1 UNK         0.0600 
    197 H197        1.1065  -27.7023  -44.5045 H         1 UNK         0.0600 
    198 H198        0.4011  -26.3044  -43.7069 H         1 UNK         0.0600 
    199 H199        1.4458  -26.0846  -45.1099 H         1 UNK         0.0600 
    200 H200       -0.0751  -25.7052  -47.8863 H         1 UNK         0.3000 
    201 H201        0.6814  -28.2410  -49.2947 H         1 UNK         0.0600 
    202 H202        2.5194  -26.5930  -49.1182 H         1 UNK         0.0600 
    203 H203        1.5052  -25.3373  -49.8244 H         1 UNK         0.0600 
    204 H204        1.9827  -26.7330  -50.7853 H         1 UNK         0.0600 
    205 H205       -1.0332  -25.0914  -49.6859 H         1 UNK         0.3000 
    206 H206       -2.0529  -25.8277  -52.3062 H         1 UNK         0.0600 
    207 H207       -1.2669  -23.5303  -51.7675 H         1 UNK         0.0600 
    208 H208       -2.9599  -23.5085  -52.2313 H         1 UNK         0.0600 
    209 H209       -2.5156  -23.3675  -50.5369 H         1 UNK         0.0600 
    210 H210       -3.2556  -26.2158  -49.0969 H         1 UNK         0.3000 
    211 H211       -5.0981  -26.9218  -48.1484 H         1 UNK         0.0600 
    212 H212       -6.2753  -27.5353  -50.9042 H         1 UNK         0.0600 
    213 H213       -6.8630  -28.1161  -49.3560 H         1 UNK         0.0600 
    214 H214       -5.2882  -28.6317  -49.9392 H         1 UNK         0.0600 
    215 H215       -5.9918  -24.9432  -50.9731 H         1 UNK         0.3000 
    216 H216       -8.1852  -23.5670  -49.5944 H         1 UNK         0.0600 
    217 H217       -8.4206  -22.4097  -51.7696 H         1 UNK         0.0600 
    218 H218       -8.2699  -24.1359  -52.0367 H         1 UNK         0.0600 
    219 H219       -6.8930  -23.0761  -52.3321 H         1 UNK         0.0600 
    220 H220       -4.8253  -23.2107  -49.6176 H         1 UNK         0.3000 
    221 H221       -3.3390  -21.7038  -48.9294 H         1 UNK         0.0600 
    222 H222       -5.6096  -20.0991  -47.6304 H         1 UNK         0.0600 
    223 H223       -4.9434  -21.5589  -46.9360 H         1 UNK         0.0600 
    224 H224       -3.9093  -20.1583  -47.1568 H         1 UNK         0.0600 
    225 H225       -4.4367  -18.6988  -48.6892 H         1 UNK         0.3000 
    226 H226       -3.2400  -17.7781  -51.0663 H         1 UNK         0.0600 
    227 H227       -5.1029  -16.3104  -49.1176 H         1 UNK         0.0600 
    228 H228       -3.3581  -16.4779  -48.9293 H         1 UNK         0.0600 
    229 H229       -4.0116  -15.5449  -50.2666 H         1 UNK         0.0600 
    230 H230       -6.5062  -18.8801  -50.6461 H         1 UNK         0.3000 
    231 H231       -7.7143  -17.3929  -52.7978 H         1 UNK         0.0600 
    232 H232       -9.0474  -18.5013  -51.0062 H         1 UNK         0.0600 
    233 H233       -8.5125  -20.0813  -51.5745 H         1 UNK         0.0600 
    234 H234       -9.5191  -19.0717  -52.5999 H         1 UNK         0.0600 
    235 H235       -5.5120  -20.1277  -52.7285 H         1 UNK         0.3000 
    236 H236       -6.1044  -21.1531  -55.3686 H         1 UNK         0.0600 
    237 H237       -4.0179  -22.4207  -55.0488 H         1 UNK         0.0600 
    238 H238       -3.5653  -21.4242  -53.6751 H         1 UNK         0.0600 
    239 H239       -4.9603  -22.4973  -53.5695 H         1 UNK         0.0600 
    240 H240       -4.4080  -18.3404  -54.2023 H         1 UNK         0.3000 
    241 H241       -2.6853  -18.0163  -56.5242 H         1 UNK         0.0600 
    242 H242       -6.1873  -16.2887  -57.4771 H         1 UNK         0.3800 
    243 H243       -6.0670  -17.5073  -56.2340 H         1 UNK         0.3800 
    244 H244       -2.0096  -15.8882  -55.4979 H         1 UNK         0.0800 
    245 H245       -3.2832  -16.0020  -54.3107 H         1 UNK         0.0800 
    246 H246       -0.4199  -15.3975  -53.3664 H         1 UNK         0.0800 
    247 H247       -1.7341  -15.7109  -52.2541 H         1 UNK         0.0800 
@<TRIPOS>BOND
     1    1    2 1    
     2    1  127 1    
     3    1  128 1    
     4    1  129 1    
     5    2    3 2    
     6    2    4 am   BACKBONE|DICT|INTERRES
     7    4    5 1    
     8    4  130 1    
     9    5    6 1    
    10    5   65 1    
    11    5  131 1    
    12    6    7 1    
    13    6  132 1    
    14    6  133 1    
    15    7    8 1    
    16    8    9 1    
    17    8  134 1    
    18    8  135 1    
    19    9   10 ar   
    20    9   14 ar   
    21   10   11 ar   
    22   10  136 1    
    23   11   12 ar   
    24   11  126 1    
    25   12   13 ar   
    26   12  137 1    
    27   13   14 ar   
    28   13   15 1    
    29   14  138 1    
    30   15   16 1    
    31   15  139 1    
    32   15  140 1    
    33   16   17 1    
    34   17   18 1    
    35   17  141 1    
    36   17  142 1    
    37   18   19 1    
    38   18   67 1    
    39   18  143 1    
    40   19   20 am   BACKBONE|DICT|INTERRES
    41   19  144 1    
    42   20   21 2    
    43   20   22 1    
    44   22   23 1    
    45   22   24 1    
    46   22  145 1    
    47   23  146 1    
    48   23  147 1    
    49   23  148 1    
    50   24   25 am   BACKBONE|DICT|INTERRES
    51   24  149 1    
    52   25   26 2    
    53   25   27 1    
    54   27   28 1    
    55   27   29 1    
    56   27  150 1    
    57   28  151 1    
    58   28  152 1    
    59   28  153 1    
    60   29   30 am   BACKBONE|DICT|INTERRES
    61   29  154 1    
    62   30   31 2    
    63   30   32 1    
    64   32   33 1    
    65   32   34 1    
    66   32  155 1    
    67   33  156 1    
    68   33  157 1    
    69   33  158 1    
    70   34   35 am   BACKBONE|DICT|INTERRES
    71   34  159 1    
    72   35   36 2    
    73   35   37 1    
    74   37   38 1    
    75   37   39 1    
    76   37  160 1    
    77   38  161 1    
    78   38  162 1    
    79   38  163 1    
    80   39   40 am   BACKBONE|DICT|INTERRES
    81   39  164 1    
    82   40   41 2    
    83   40   42 1    
    84   42   43 1    
    85   42   44 1    
    86   42  165 1    
    87   43  166 1    
    88   43  167 1    
    89   43  168 1    
    90   44   45 am   BACKBONE|DICT|INTERRES
    91   44  169 1    
    92   45   46 2    
    93   45   47 1    
    94   47   48 1    
    95   47   49 1    
    96   47  170 1    
    97   48  171 1    
    98   48  172 1    
    99   48  173 1    
   100   49   50 am   BACKBONE|DICT|INTERRES
   101   49  174 1    
   102   50   51 2    
   103   50   52 1    
   104   52   53 1    
   105   52   54 1    
   106   52  175 1    
   107   53  176 1    
   108   53  177 1    
   109   53  178 1    
   110   54   55 am   BACKBONE|DICT|INTERRES
   111   54  179 1    
   112   55   56 2    
   113   55   57 1    
   114   57   58 1    
   115   57   59 1    
   116   57  180 1    
   117   58  181 1    
   118   58  182 1    
   119   58  183 1    
   120   59   60 am   BACKBONE|DICT|INTERRES
   121   59  184 1    
   122   60   61 2    
   123   60   62 1    
   124   62   63 1    
   125   62   64 1    
   126   62  185 1    
   127   63  186 1    
   128   63  187 1    
   129   63  188 1    
   130   64   65 am   BACKBONE|DICT|INTERRES
   131   64  189 1    
   132   65   66 2    
   133   67   68 2    
   134   67   69 am   BACKBONE|DICT|INTERRES
   135   69   70 1    
   136   69  190 1    
   137   70   71 1    
   138   70   72 1    
   139   70  191 1    
   140   71  192 1    
   141   71  193 1    
   142   71  194 1    
   143   72   73 2    
   144   72   74 am   BACKBONE|DICT|INTERRES
   145   74   75 1    
   146   74  195 1    
   147   75   76 1    
   148   75   77 1    
   149   75  196 1    
   150   76  197 1    
   151   76  198 1    
   152   76  199 1    
   153   77   78 2    
   154   77   79 am   BACKBONE|DICT|INTERRES
   155   79   80 1    
   156   79  200 1    
   157   80   81 1    
   158   80   82 1    
   159   80  201 1    
   160   81  202 1    
   161   81  203 1    
   162   81  204 1    
   163   82   83 2    
   164   82   84 am   BACKBONE|DICT|INTERRES
   165   84   85 1    
   166   84  205 1    
   167   85   86 1    
   168   85   87 1    
   169   85  206 1    
   170   86  207 1    
   171   86  208 1    
   172   86  209 1    
   173   87   88 2    
   174   87   89 am   BACKBONE|DICT|INTERRES
   175   89   90 1    
   176   89  210 1    
   177   90   91 1    
   178   90   92 1    
   179   90  211 1    
   180   91  212 1    
   181   91  213 1    
   182   91  214 1    
   183   92   93 2    
   184   92   94 am   BACKBONE|DICT|INTERRES
   185   94   95 1    
   186   94  215 1    
   187   95   96 1    
   188   95   97 1    
   189   95  216 1    
   190   96  217 1    
   191   96  218 1    
   192   96  219 1    
   193   97   98 2    
   194   97   99 am   BACKBONE|DICT|INTERRES
   195   99  100 1    
   196   99  220 1    
   197  100  101 1    
   198  100  102 1    
   199  100  221 1    
   200  101  222 1    
   201  101  223 1    
   202  101  224 1    
   203  102  103 2    
   204  102  104 am   BACKBONE|DICT|INTERRES
   205  104  105 1    
   206  104  225 1    
   207  105  106 1    
   208  105  107 1    
   209  105  226 1    
   210  106  227 1    
   211  106  228 1    
   212  106  229 1    
   213  107  108 2    
   214  107  109 am   BACKBONE|DICT|INTERRES
   215  109  110 1    
   216  109  230 1    
   217  110  111 1    
   218  110  112 1    
   219  110  231 1    
   220  111  232 1    
   221  111  233 1    
   222  111  234 1    
   223  112  113 2    
   224  112  114 am   BACKBONE|DICT|INTERRES
   225  114  115 1    
   226  114  235 1    
   227  115  116 1    
   228  115  117 1    
   229  115  236 1    
   230  116  237 1    
   231  116  238 1    
   232  116  239 1    
   233  117  118 2    
   234  117  119 am   BACKBONE|DICT|INTERRES
   235  119  120 1    
   236  119  240 1    
   237  120  121 1    
   238  120  124 1    
   239  120  241 1    
   240  121  122 am   BACKBONE|DICT|INTERRES
   241  121  123 2    
   242  122  242 1    
   243  122  243 1    
   244  124  125 1    
   245  124  244 1    
   246  124  245 1    
   247  125  126 1    
   248  126  246 1    
   249  126  247 1    
@<TRIPOS>SUBSTRUCTURE
     1 UNK         1 GROUP             0       ****    0 ROOT    
