@<TRIPOS>MOLECULE
3R540
247   249    1
SMALL
USER_CHARGES


@<TRIPOS>ATOM
      1 CA         -3.1888  -14.2130  -49.7389 C.3       0 UNK        -0.1800 
      2 C          -2.0765  -13.2590  -49.3278 C.2       0 UNK         0.5000 
      3 O          -2.1560  -12.0626  -49.6097 O.2       0 UNK        -0.5000 
      4 N          -1.0388  -13.7816  -48.6637 N.am      1 UNK        -0.5000 
      5 CA          0.1246  -13.0312  -48.1812 C.3       1 UNK         0.1400 
      6 C6          1.3840  -13.9254  -47.9980 C.3       23 UNK        -0.0398 
      7 S7          1.7924  -14.9651  -49.4436 S.3       23 UNK        -0.2404 
      8 C8          1.0420  -16.5400  -48.9175 C.3       23 UNK        -0.0205 
      9 C9          1.4348  -17.7120  -49.8018 C.ar      23 UNK        -0.0193 
     10 C10         1.0742  -17.7376  -51.1526 C.ar      23 UNK        -0.1150 
     11 C11         1.4091  -18.8310  -51.9599 C.ar      23 UNK        -0.0193 
     12 C12         2.1121  -19.9022  -51.3979 C.ar      23 UNK        -0.1150 
     13 C13         2.4758  -19.8893  -50.0482 C.ar      23 UNK        -0.0193 
     14 C14         2.1356  -18.7909  -49.2561 C.ar      23 UNK        -0.1150 
     15 C15         3.2531  -21.0528  -49.4509 C.3       23 UNK        -0.0205 
     16 S16         2.1629  -22.4260  -48.9663 S.3       23 UNK        -0.2404 
     17 C17         1.3141  -21.7284  -47.5083 C.3       23 UNK        -0.0398 
     18 CA          0.5717  -22.8172  -46.6971 C.3       11 UNK         0.1400 
     19 N           0.3581  -22.4320  -45.3010 N.am      11 UNK        -0.5000 
     20 C          -0.0605  -23.2720  -44.3429 C.2       10 UNK         0.5000 
     21 O          -0.2754  -24.4701  -44.5297 O.2       10 UNK        -0.5000 
     22 CA         -0.3278  -22.6640  -42.9544 C.3       10 UNK         0.1400 
     23 CB          0.9860  -22.4332  -42.1933 C.3       10 UNK        -0.1800 
     24 N          -1.0876  -21.4151  -43.0246 N.am      10 UNK        -0.5000 
     25 C          -2.3380  -21.3194  -43.5001 C.2       9 UNK         0.5000 
     26 O          -2.9960  -22.2830  -43.8932 O.2       9 UNK        -0.5000 
     27 CA         -2.9421  -19.9069  -43.5924 C.3       9 UNK         0.1400 
     28 CB         -3.4616  -19.4454  -42.2228 C.3       9 UNK        -0.1800 
     29 N          -2.0029  -18.9176  -44.1218 N.am      9 UNK        -0.5000 
     30 C          -1.4512  -18.9641  -45.3431 C.2       8 UNK         0.5000 
     31 O          -1.6868  -19.8404  -46.1716 O.2       8 UNK        -0.5000 
     32 CA         -0.4089  -17.8851  -45.6749 C.3       8 UNK         0.1400 
     33 CB         -1.0868  -16.5352  -45.9590 C.3       8 UNK        -0.1800 
     34 N           0.5851  -17.7381  -44.6123 N.am      8 UNK        -0.5000 
     35 C           1.4050  -18.7165  -44.1989 C.2       7 UNK         0.5000 
     36 O           1.4659  -19.8283  -44.7231 O.2       7 UNK        -0.5000 
     37 CA          2.2591  -18.4226  -42.9559 C.3       7 UNK         0.1400 
     38 CB          3.5579  -17.6983  -43.3406 C.3       7 UNK        -0.1800 
     39 N           1.5179  -17.6354  -41.9703 N.am      7 UNK        -0.5000 
     40 C           0.5141  -18.1177  -41.2235 C.2       6 UNK         0.5000 
     41 O           0.1403  -19.2903  -41.2584 O.2       6 UNK        -0.5000 
     42 CA         -0.2205  -17.1118  -40.3168 C.3       6 UNK         0.1400 
     43 CB          0.5435  -16.9101  -38.9998 C.3       6 UNK        -0.1800 
     44 N          -0.4251  -15.8144  -40.9641 N.am      6 UNK        -0.5000 
     45 C          -1.2302  -15.6175  -42.0173 C.2       5 UNK         0.5000 
     46 O          -1.9242  -16.5029  -42.5157 O.2       5 UNK        -0.5000 
     47 CA         -1.2292  -14.2123  -42.6511 C.3       5 UNK         0.1400 
     48 CB         -2.3160  -13.3312  -42.0190 C.3       5 UNK        -0.1800 
     49 N           0.0566  -13.5110  -42.5861 N.am      5 UNK        -0.5000 
     50 C           1.2131  -13.9671  -43.0875 C.2       4 UNK         0.5000 
     51 O           1.3509  -15.0932  -43.5683 O.2       4 UNK        -0.5000 
     52 CA          2.3842  -12.9739  -43.0802 C.3       4 UNK         0.1400 
     53 CB          3.6616  -13.5370  -43.7310 C.3       4 UNK        -0.1800 
     54 N           1.9690  -11.7636  -43.7828 N.am      4 UNK        -0.5000 
     55 C           2.3268  -10.5140  -43.4618 C.2       3 UNK         0.5000 
     56 O           3.0563  -10.2431  -42.5069 O.2       3 UNK        -0.5000 
     57 CA          1.8013   -9.3651  -44.3507 C.3       3 UNK         0.1400 
     58 CB          2.9299   -8.8194  -45.2399 C.3       3 UNK        -0.1800 
     59 N           0.6755   -9.7421  -45.2080 N.am      3 UNK        -0.5000 
     60 C          -0.5740   -9.9733  -44.7837 C.2       2 UNK         0.5000 
     61 O          -0.9329   -9.8372  -43.6137 O.2       2 UNK        -0.5000 
     62 CA         -1.5875  -10.4714  -45.8367 C.3       2 UNK         0.1400 
     63 CB         -2.4130   -9.2971  -46.3834 C.3       2 UNK        -0.1800 
     64 N          -1.0062  -11.2108  -46.9664 N.am      2 UNK        -0.5000 
     65 C          -0.2522  -12.3139  -46.8681 C.2       1 UNK         0.5000 
     66 O           0.1081  -12.7847  -45.7909 O.2       1 UNK        -0.5000 
     67 C          -0.7456  -23.2430  -47.3751 C.2       11 UNK         0.5000 
     68 O          -0.7747  -24.2852  -48.0273 O.2       11 UNK        -0.5000 
     69 N          -1.8206  -22.4671  -47.1729 N.am      12 UNK        -0.5000 
     70 CA         -3.1661  -22.7483  -47.6753 C.3       12 UNK         0.1400 
     71 CB         -4.1087  -21.5959  -47.3026 C.3       12 UNK        -0.1800 
     72 C          -3.7265  -24.0897  -47.1769 C.2       12 UNK         0.5000 
     73 O          -4.2833  -24.8414  -47.9745 O.2       12 UNK        -0.5000 
     74 N          -3.5328  -24.3879  -45.8855 N.am      13 UNK        -0.5000 
     75 CA         -3.9136  -25.6601  -45.2722 C.3       13 UNK         0.1400 
     76 CB         -3.7510  -25.5584  -43.7480 C.3       13 UNK        -0.1800 
     77 C          -3.1201  -26.8605  -45.8247 C.2       13 UNK         0.5000 
     78 O          -3.6897  -27.9414  -45.9802 O.2       13 UNK        -0.5000 
     79 N          -1.8273  -26.6529  -46.1059 N.am      14 UNK        -0.5000 
     80 CA         -0.9184  -27.6782  -46.6112 C.3       14 UNK         0.1400 
     81 CB          0.5300  -27.2684  -46.2981 C.3       14 UNK        -0.1800 
     82 C          -1.0935  -27.9516  -48.1160 C.2       14 UNK         0.5000 
     83 O          -1.2327  -29.1105  -48.5097 O.2       14 UNK        -0.5000 
     84 N          -1.0405  -26.8910  -48.9311 N.am      15 UNK        -0.5000 
     85 CA         -0.9268  -26.9755  -50.3884 C.3       15 UNK         0.1400 
     86 CB          0.0220  -25.8652  -50.8691 C.3       15 UNK        -0.1800 
     87 C          -2.2710  -26.8718  -51.1276 C.2       15 UNK         0.5000 
     88 O          -2.3107  -27.1793  -52.3199 O.2       15 UNK        -0.5000 
     89 N          -3.3307  -26.4124  -50.4449 N.am      16 UNK        -0.5000 
     90 CA         -4.6915  -26.1473  -50.9390 C.3       16 UNK         0.1400 
     91 CB         -5.3508  -27.4116  -51.5239 C.3       16 UNK        -0.1800 
     92 C          -4.7775  -24.9582  -51.9167 C.2       16 UNK         0.5000 
     93 O          -5.5580  -24.0354  -51.6843 O.2       16 UNK        -0.5000 
     94 N          -3.9617  -24.9803  -52.9785 N.am      17 UNK        -0.5000 
     95 CA         -3.8901  -23.9521  -54.0204 C.3       17 UNK         0.1400 
     96 CB         -3.0151  -24.4645  -55.1735 C.3       17 UNK        -0.1800 
     97 C          -3.3621  -22.5982  -53.5129 C.2       17 UNK         0.5000 
     98 O          -3.7214  -21.5608  -54.0667 O.2       17 UNK        -0.5000 
     99 N          -2.5463  -22.6246  -52.4507 N.am      18 UNK        -0.5000 
    100 CA        -1.9549  -21.4523  -51.7998 C.3       18 UNK         0.1400 
    101 CB        -0.8169  -21.9206  -50.8857 C.3       18 UNK        -0.1800 
    102 C         -2.9581  -20.5639  -51.0323 C.2       18 UNK         0.5000 
    103 O         -2.5584  -19.5287  -50.4979 O.2       18 UNK        -0.5000 
    104 N         -4.2420  -20.9508  -50.9998 N.am      19 UNK        -0.5000 
    105 CA        -5.3703  -20.1701  -50.4898 C.3       19 UNK         0.1400 
    106 CB        -6.5773  -21.1102  -50.3210 C.3       19 UNK        -0.1800 
    107 C         -5.6891  -18.9613  -51.3983 C.2       19 UNK         0.5000 
    108 O         -6.7465  -18.9154  -52.0279 O.2       19 UNK        -0.5000 
    109 N         -4.7345  -18.0262  -51.4814 N.am      20 UNK        -0.5000 
    110 CA        -4.7098  -16.7641  -52.2314 C.3       20 UNK         0.1400 
    111 CB        -5.8492  -15.8310  -51.7786 C.3       20 UNK        -0.1800 
    112 C         -4.6752  -16.8938  -53.7689 C.2       20 UNK         0.5000 
    113 O         -4.2029  -15.9649  -54.4253 O.2       20 UNK        -0.5000 
    114 N         -5.1625  -18.0114  -54.3234 N.am      21 UNK        -0.5000 
    115 CA        -5.1776  -18.3011  -55.7571 C.3       21 UNK         0.1400 
    116 CB        -6.0638  -19.5284  -56.0257 C.3       21 UNK        -0.1800 
    117 C         -3.7604  -18.4921  -56.3256 C.2       21 UNK         0.5000 
    118 O         -3.3837  -17.7917  -57.2662 O.2       21 UNK        -0.5000 
    119 N         -3.0030  -19.4200  -55.7251 N.am      22 UNK        -0.5000 
    120 CA        -1.5967  -19.7379  -56.0302 C.3       22 UNK         0.1400 
    121 C         -1.3461  -20.3088  -57.4613 C.2       22 UNK         0.5000 
    122 N         -2.3516  -20.8482  -58.1400 N.am      22 UNK        -0.7600 
    123 O         -0.2218  -20.3000  -57.9553 O.2       22 UNK        -0.5000 
    124 C124       -0.6338  -18.5783  -55.6485 C.3       23 UNK        -0.0398 
    125 S125       -0.6112  -18.2786  -53.8453 S.3       23 UNK        -0.2404 
    126 C126        1.0757  -18.8499  -53.4485 C.3       23 UNK        -0.0205 
    127 H127       -2.9278  -15.2530  -49.5404 H         1 UNK         0.0600 
    128 H128       -3.3907  -14.1106  -50.8049 H         1 UNK         0.0600 
    129 H129       -4.1037  -13.9798  -49.1946 H         1 UNK         0.0600 
    130 H130       -1.0432  -14.7642  -48.4410 H         1 UNK         0.3000 
    131 H131        0.3764  -12.2665  -48.9194 H         1 UNK         0.0600 
    132 H132        2.2498  -13.2916  -47.7991 H         1 UNK         0.0800 
    133 H133        1.2982  -14.5689  -47.1223 H         1 UNK         0.0800 
    134 H134       -0.0441  -16.4510  -48.9181 H         1 UNK         0.0800 
    135 H135        1.3433  -16.7381  -47.8887 H         1 UNK         0.0800 
    136 H136        0.5382  -16.8994  -51.5751 H         1 UNK         0.1150 
    137 H137        2.3845  -20.7496  -52.0114 H         1 UNK         0.1150 
    138 H138        2.4144  -18.7806  -48.2115 H         1 UNK         0.1150 
    139 H139        3.9740  -21.4203  -50.1827 H         1 UNK         0.0800 
    140 H140        3.8376  -20.7255  -48.5897 H         1 UNK         0.0800 
    141 H141        0.6400  -20.9262  -47.8152 H         1 UNK         0.0800 
    142 H142        2.0776  -21.2621  -46.8848 H         1 UNK         0.0800 
    143 H143        1.2136  -23.7007  -46.6661 H         1 UNK         0.0600 
    144 H144        0.5452  -21.4616  -45.0615 H         1 UNK         0.3000 
    145 H145       -0.9239  -23.3829  -42.3883 H         1 UNK         0.0600 
    146 H146        0.7972  -22.0725  -41.1820 H         1 UNK         0.0600 
    147 H147        1.5549  -23.3597  -42.1075 H         1 UNK         0.0600 
    148 H148        1.6210  -21.7033  -42.6952 H         1 UNK         0.0600 
    149 H149       -0.6281  -20.5800  -42.6776 H         1 UNK         0.3000 
    150 H150       -3.7910  -19.9541  -44.2771 H         1 UNK         0.0600 
    151 H151       -4.1722  -20.1634  -41.8116 H         1 UNK         0.0600 
    152 H152       -3.9752  -18.4870  -42.2997 H         1 UNK         0.0600 
    153 H153       -2.6518  -19.3327  -41.5014 H         1 UNK         0.0600 
    154 H154       -1.7834  -18.1327  -43.5142 H         1 UNK         0.3000 
    155 H155        0.1194  -18.2050  -46.5744 H         1 UNK         0.0600 
    156 H156       -1.7521  -16.2362  -45.1503 H         1 UNK         0.0600 
    157 H157       -1.6886  -16.5892  -46.8666 H         1 UNK         0.0600 
    158 H158       -0.3558  -15.7399  -46.0912 H         1 UNK         0.0600 
    159 H159        0.6451  -16.8348  -44.1516 H         1 UNK         0.3000 
    160 H160        2.5289  -19.3767  -42.4987 H         1 UNK         0.0600 
    161 H161        4.1604  -18.3156  -44.0081 H         1 UNK         0.0600 
    162 H162        3.3634  -16.7585  -43.8569 H         1 UNK         0.0600 
    163 H163        4.1653  -17.4808  -42.4621 H         1 UNK         0.0600 
    164 H164        1.7037  -16.6421  -41.9568 H         1 UNK         0.3000 
    165 H165       -1.2005  -17.5322  -40.0808 H         1 UNK         0.0600 
    166 H166       -0.0080  -16.2607  -38.3198 H         1 UNK         0.0600 
    167 H167        0.6952  -17.8613  -38.4878 H         1 UNK         0.0600 
    168 H168        1.5259  -16.4663  -39.1660 H         1 UNK         0.0600 
    169 H169        0.1125  -15.0344  -40.6159 H         1 UNK         0.3000 
    170 H170       -1.4695  -14.3341  -43.7088 H         1 UNK         0.0600 
    171 H171       -3.2932  -13.8124  -42.0784 H         1 UNK         0.0600 
    172 H172       -2.1104  -13.1319  -40.9666 H         1 UNK         0.0600 
    173 H173       -2.3951  -12.3732  -42.5338 H         1 UNK         0.0600 
    174 H174        0.0315  -12.5644  -42.2354 H         1 UNK         0.3000 
    175 H175        2.5979  -12.7465  -42.0339 H         1 UNK         0.0600 
    176 H176        3.4934  -13.8082  -44.7741 H         1 UNK         0.0600 
    177 H177        4.4734  -12.8103  -43.7005 H         1 UNK         0.0600 
    178 H178        4.0059  -14.4294  -43.2075 H         1 UNK         0.0600 
    179 H179        1.3232  -11.9187  -44.5532 H         1 UNK         0.3000 
    180 H180        1.4726   -8.5636  -43.6859 H         1 UNK         0.0600 
    181 H181        3.2957   -9.5764  -45.9348 H         1 UNK         0.0600 
    182 H182        3.7780   -8.4892  -44.6384 H         1 UNK         0.0600 
    183 H183        2.5942   -7.9612  -45.8224 H         1 UNK         0.0600 
    184 H184        0.8779   -9.8802  -46.1870 H         1 UNK         0.3000 
    185 H185       -2.2673  -11.1544  -45.3231 H         1 UNK         0.0600 
    186 H186       -3.2064   -9.6463  -47.0446 H         1 UNK         0.0600 
    187 H187       -2.8879   -8.7409  -45.5739 H         1 UNK         0.0600 
    188 H188       -1.7920   -8.5970  -46.9436 H         1 UNK         0.0600 
    189 H189       -1.3147  -10.9367  -47.8915 H         1 UNK         0.3000 
    190 H190       -1.7130  -21.5986  -46.6520 H         1 UNK         0.3000 
    191 H191       -3.1109  -22.8015  -48.7637 H         1 UNK         0.0600 
    192 H192       -4.1682  -21.4576  -46.2235 H         1 UNK         0.0600 
    193 H193       -5.1202  -21.7824  -47.6623 H         1 UNK         0.0600 
    194 H194       -3.7706  -20.6571  -47.7405 H         1 UNK         0.0600 
    195 H195       -3.1076  -23.6944  -45.2767 H         1 UNK         0.3000 
    196 H196       -4.9695  -25.8338  -45.4896 H         1 UNK         0.0600 
    197 H197       -4.0411  -26.4895  -43.2598 H         1 UNK         0.0600 
    198 H198       -4.3776  -24.7664  -43.3374 H         1 UNK         0.0600 
    199 H199       -2.7188  -25.3462  -43.4670 H         1 UNK         0.0600 
    200 H200       -1.4287  -25.7397  -45.9219 H         1 UNK         0.3000 
    201 H201       -1.1186  -28.6108  -46.0792 H         1 UNK         0.0600 
    202 H202        0.6853  -27.1664  -45.2238 H         1 UNK         0.0600 
    203 H203        0.7918  -26.3171  -46.7626 H         1 UNK         0.0600 
    204 H204        1.2360  -28.0170  -46.6596 H         1 UNK         0.0600 
    205 H205       -0.9402  -25.9594  -48.5265 H         1 UNK         0.3000 
    206 H206       -0.4807  -27.9331  -50.6653 H         1 UNK         0.0600 
    207 H207        0.9966  -25.9422  -50.3867 H         1 UNK         0.0600 
    208 H208        0.1870  -25.9257  -51.9456 H         1 UNK         0.0600 
    209 H209       -0.3771  -24.8746  -50.6541 H         1 UNK         0.0600 
    210 H210       -3.1857  -26.1575  -49.4754 H         1 UNK         0.3000 
    211 H211       -5.2806  -25.8704  -50.0651 H         1 UNK         0.0600 
    212 H212       -4.8625  -27.7504  -52.4376 H         1 UNK         0.0600 
    213 H213       -6.3965  -27.2224  -51.7691 H         1 UNK         0.0600 
    214 H214       -5.3290  -28.2329  -50.8076 H         1 UNK         0.0600 
    215 H215       -3.3363  -25.7775  -53.0658 H         1 UNK         0.3000 
    216 H216       -4.9000  -23.7873  -54.4014 H         1 UNK         0.0600 
    217 H217       -2.9527  -23.7276  -55.9757 H         1 UNK         0.0600 
    218 H218       -3.4257  -25.3782  -55.6036 H         1 UNK         0.0600 
    219 H219       -1.9978  -24.6775  -54.8422 H         1 UNK         0.0600 
    220 H220       -2.3204  -23.5239  -52.0538 H         1 UNK         0.3000 
    221 H221       -1.5189  -20.8230  -52.5771 H         1 UNK         0.0600 
    222 H222       -1.1697  -22.6445  -50.1551 H         1 UNK         0.0600 
    223 H223       -0.0152  -22.3859  -51.4591 H         1 UNK         0.0600 
    224 H224       -0.3777  -21.0865  -50.3369 H         1 UNK         0.0600 
    225 H225       -4.4859  -21.8098  -51.4739 H         1 UNK         0.3000 
    226 H226       -5.1085  -19.7766  -49.5065 H         1 UNK         0.0600 
    227 H227       -6.3412  -21.9507  -49.6691 H         1 UNK         0.0600 
    228 H228       -7.4250  -20.5836  -49.8812 H         1 UNK         0.0600 
    229 H229       -6.9038  -21.5203  -51.2777 H         1 UNK         0.0600 
    230 H230       -3.8675  -18.2470  -50.9965 H         1 UNK         0.3000 
    231 H231       -3.7676  -16.2898  -51.9540 H         1 UNK         0.0600 
    232 H232       -5.7538  -14.8480  -52.2413 H         1 UNK         0.0600 
    233 H233       -5.8335  -15.6836  -50.6987 H         1 UNK         0.0600 
    234 H234       -6.8292  -16.2239  -52.0505 H         1 UNK         0.0600 
    235 H235       -5.5900  -18.6926  -53.7080 H         1 UNK         0.3000 
    236 H236       -5.6271  -17.4466  -56.2674 H         1 UNK         0.0600 
    237 H237       -7.0925  -19.3435  -55.7159 H         1 UNK         0.0600 
    238 H238       -6.0837  -19.7707  -57.0889 H         1 UNK         0.0600 
    239 H239       -5.7111  -20.4117  -55.4929 H         1 UNK         0.0600 
    240 H240       -3.4174  -19.9961  -54.9962 H         1 UNK         0.3000 
    241 H241       -1.3500  -20.5779  -55.3799 H         1 UNK         0.0600 
    242 H242       -2.1846  -21.2253  -59.0596 H         1 UNK         0.3800 
    243 H243       -3.2784  -20.8736  -57.7465 H         1 UNK         0.3800 
    244 H244        0.3844  -18.7904  -55.9773 H         1 UNK         0.0800 
    245 H245       -0.9188  -17.6555  -56.1548 H         1 UNK         0.0800 
    246 H246        1.1971  -19.8592  -53.8454 H         1 UNK         0.0800 
    247 H247        1.7970  -18.2196  -53.9703 H         1 UNK         0.0800 
@<TRIPOS>BOND
     1    1    2 1    
     2    1  127 1    
     3    1  128 1    
     4    1  129 1    
     5    2    3 2    
     6    2    4 am   BACKBONE|DICT|INTERRES
     7    4    5 1    
     8    4  130 1    
     9    5    6 1    
    10    5   65 1    
    11    5  131 1    
    12    6    7 1    
    13    6  132 1    
    14    6  133 1    
    15    7    8 1    
    16    8    9 1    
    17    8  134 1    
    18    8  135 1    
    19    9   10 ar   
    20    9   14 ar   
    21   10   11 ar   
    22   10  136 1    
    23   11   12 ar   
    24   11  126 1    
    25   12   13 ar   
    26   12  137 1    
    27   13   14 ar   
    28   13   15 1    
    29   14  138 1    
    30   15   16 1    
    31   15  139 1    
    32   15  140 1    
    33   16   17 1    
    34   17   18 1    
    35   17  141 1    
    36   17  142 1    
    37   18   19 1    
    38   18   67 1    
    39   18  143 1    
    40   19   20 am   BACKBONE|DICT|INTERRES
    41   19  144 1    
    42   20   21 2    
    43   20   22 1    
    44   22   23 1    
    45   22   24 1    
    46   22  145 1    
    47   23  146 1    
    48   23  147 1    
    49   23  148 1    
    50   24   25 am   BACKBONE|DICT|INTERRES
    51   24  149 1    
    52   25   26 2    
    53   25   27 1    
    54   27   28 1    
    55   27   29 1    
    56   27  150 1    
    57   28  151 1    
    58   28  152 1    
    59   28  153 1    
    60   29   30 am   BACKBONE|DICT|INTERRES
    61   29  154 1    
    62   30   31 2    
    63   30   32 1    
    64   32   33 1    
    65   32   34 1    
    66   32  155 1    
    67   33  156 1    
    68   33  157 1    
    69   33  158 1    
    70   34   35 am   BACKBONE|DICT|INTERRES
    71   34  159 1    
    72   35   36 2    
    73   35   37 1    
    74   37   38 1    
    75   37   39 1    
    76   37  160 1    
    77   38  161 1    
    78   38  162 1    
    79   38  163 1    
    80   39   40 am   BACKBONE|DICT|INTERRES
    81   39  164 1    
    82   40   41 2    
    83   40   42 1    
    84   42   43 1    
    85   42   44 1    
    86   42  165 1    
    87   43  166 1    
    88   43  167 1    
    89   43  168 1    
    90   44   45 am   BACKBONE|DICT|INTERRES
    91   44  169 1    
    92   45   46 2    
    93   45   47 1    
    94   47   48 1    
    95   47   49 1    
    96   47  170 1    
    97   48  171 1    
    98   48  172 1    
    99   48  173 1    
   100   49   50 am   BACKBONE|DICT|INTERRES
   101   49  174 1    
   102   50   51 2    
   103   50   52 1    
   104   52   53 1    
   105   52   54 1    
   106   52  175 1    
   107   53  176 1    
   108   53  177 1    
   109   53  178 1    
   110   54   55 am   BACKBONE|DICT|INTERRES
   111   54  179 1    
   112   55   56 2    
   113   55   57 1    
   114   57   58 1    
   115   57   59 1    
   116   57  180 1    
   117   58  181 1    
   118   58  182 1    
   119   58  183 1    
   120   59   60 am   BACKBONE|DICT|INTERRES
   121   59  184 1    
   122   60   61 2    
   123   60   62 1    
   124   62   63 1    
   125   62   64 1    
   126   62  185 1    
   127   63  186 1    
   128   63  187 1    
   129   63  188 1    
   130   64   65 am   BACKBONE|DICT|INTERRES
   131   64  189 1    
   132   65   66 2    
   133   67   68 2    
   134   67   69 am   BACKBONE|DICT|INTERRES
   135   69   70 1    
   136   69  190 1    
   137   70   71 1    
   138   70   72 1    
   139   70  191 1    
   140   71  192 1    
   141   71  193 1    
   142   71  194 1    
   143   72   73 2    
   144   72   74 am   BACKBONE|DICT|INTERRES
   145   74   75 1    
   146   74  195 1    
   147   75   76 1    
   148   75   77 1    
   149   75  196 1    
   150   76  197 1    
   151   76  198 1    
   152   76  199 1    
   153   77   78 2    
   154   77   79 am   BACKBONE|DICT|INTERRES
   155   79   80 1    
   156   79  200 1    
   157   80   81 1    
   158   80   82 1    
   159   80  201 1    
   160   81  202 1    
   161   81  203 1    
   162   81  204 1    
   163   82   83 2    
   164   82   84 am   BACKBONE|DICT|INTERRES
   165   84   85 1    
   166   84  205 1    
   167   85   86 1    
   168   85   87 1    
   169   85  206 1    
   170   86  207 1    
   171   86  208 1    
   172   86  209 1    
   173   87   88 2    
   174   87   89 am   BACKBONE|DICT|INTERRES
   175   89   90 1    
   176   89  210 1    
   177   90   91 1    
   178   90   92 1    
   179   90  211 1    
   180   91  212 1    
   181   91  213 1    
   182   91  214 1    
   183   92   93 2    
   184   92   94 am   BACKBONE|DICT|INTERRES
   185   94   95 1    
   186   94  215 1    
   187   95   96 1    
   188   95   97 1    
   189   95  216 1    
   190   96  217 1    
   191   96  218 1    
   192   96  219 1    
   193   97   98 2    
   194   97   99 am   BACKBONE|DICT|INTERRES
   195   99  100 1    
   196   99  220 1    
   197  100  101 1    
   198  100  102 1    
   199  100  221 1    
   200  101  222 1    
   201  101  223 1    
   202  101  224 1    
   203  102  103 2    
   204  102  104 am   BACKBONE|DICT|INTERRES
   205  104  105 1    
   206  104  225 1    
   207  105  106 1    
   208  105  107 1    
   209  105  226 1    
   210  106  227 1    
   211  106  228 1    
   212  106  229 1    
   213  107  108 2    
   214  107  109 am   BACKBONE|DICT|INTERRES
   215  109  110 1    
   216  109  230 1    
   217  110  111 1    
   218  110  112 1    
   219  110  231 1    
   220  111  232 1    
   221  111  233 1    
   222  111  234 1    
   223  112  113 2    
   224  112  114 am   BACKBONE|DICT|INTERRES
   225  114  115 1    
   226  114  235 1    
   227  115  116 1    
   228  115  117 1    
   229  115  236 1    
   230  116  237 1    
   231  116  238 1    
   232  116  239 1    
   233  117  118 2    
   234  117  119 am   BACKBONE|DICT|INTERRES
   235  119  120 1    
   236  119  240 1    
   237  120  121 1    
   238  120  124 1    
   239  120  241 1    
   240  121  122 am   BACKBONE|DICT|INTERRES
   241  121  123 2    
   242  122  242 1    
   243  122  243 1    
   244  124  125 1    
   245  124  244 1    
   246  124  245 1    
   247  125  126 1    
   248  126  246 1    
   249  126  247 1    
@<TRIPOS>SUBSTRUCTURE
     1 UNK         1 GROUP             0       ****    0 ROOT    
