@<TRIPOS>MOLECULE
3R540
247   249    1
SMALL
USER_CHARGES


@<TRIPOS>ATOM
      1 CA          2.0992  -12.6763  -50.6522 C.3       0 UNK        -0.1800 
      2 C           1.3874  -12.7624  -49.3097 C.2       0 UNK         0.5000 
      3 O           0.3767  -12.0888  -49.1119 O.2       0 UNK        -0.5000 
      4 N           1.9105  -13.5955  -48.3985 N.am      1 UNK        -0.5000 
      5 CA          1.4030  -13.8432  -47.0410 C.3       1 UNK         0.1400 
      6 C6          0.0444  -14.6000  -47.0014 C.3       23 UNK        -0.0398 
      7 S7          0.1938  -16.3200  -47.5949 S.3       23 UNK        -0.2404 
      8 C8         -0.3321  -16.1518  -49.3346 C.3       23 UNK        -0.0205 
      9 C9         -0.0570  -17.3966  -50.1722 C.ar      23 UNK        -0.0193 
     10 C10        -1.0150  -17.8486  -51.0864 C.ar      23 UNK        -0.1150 
     11 C11        -0.7641  -18.9675  -51.8873 C.ar      23 UNK        -0.0193 
     12 C12         0.4554  -19.6386  -51.7672 C.ar      23 UNK        -0.1150 
     13 C13         1.4254  -19.1937  -50.8655 C.ar      23 UNK        -0.0193 
     14 C14         1.1661  -18.0701  -50.0774 C.ar      23 UNK        -0.1150 
     15 C15         2.7670  -19.9044  -50.7729 C.3       23 UNK        -0.0205 
     16 S16         2.6383  -21.5161  -49.9404 S.3       23 UNK        -0.2404 
     17 C17         2.4033  -21.0252  -48.1987 C.3       23 UNK        -0.0398 
     18 CA          1.6641  -22.1262  -47.3918 C.3       11 UNK         0.1400 
     19 N           1.8975  -22.0382  -45.9507 N.am      11 UNK        -0.5000 
     20 C           3.0181  -22.4774  -45.3567 C.2       10 UNK         0.5000 
     21 O           3.9317  -23.0272  -45.9741 O.2       10 UNK        -0.5000 
     22 CA          3.1848  -22.2773  -43.8371 C.3       10 UNK         0.1400 
     23 CB          4.3936  -21.3749  -43.5356 C.3       10 UNK        -0.1800 
     24 N           2.0053  -21.6899  -43.2093 N.am      10 UNK        -0.5000 
     25 C           1.0687  -22.3729  -42.5388 C.2       9 UNK         0.5000 
     26 O           1.1064  -23.5907  -42.3625 O.2       9 UNK        -0.5000 
     27 CA         -0.1168  -21.5676  -41.9656 C.3       9 UNK         0.1400 
     28 CB          0.0813  -21.3327  -40.4604 C.3       9 UNK        -0.1800 
     29 N          -0.3477  -20.2764  -42.6210 N.am      9 UNK        -0.5000 
     30 C          -0.6330  -20.1131  -43.9199 C.2       8 UNK         0.5000 
     31 O          -0.7532  -21.0470  -44.7109 O.2       8 UNK        -0.5000 
     32 CA         -0.7054  -18.6704  -44.4458 C.3       8 UNK         0.1400 
     33 CB         -2.0836  -18.0573  -44.1673 C.3       8 UNK        -0.1800 
     34 N           0.3448  -17.8140  -43.8955 N.am      8 UNK        -0.5000 
     35 C           1.6593  -18.0272  -44.0556 C.2       7 UNK         0.5000 
     36 O           2.1252  -18.9761  -44.6856 O.2       7 UNK        -0.5000 
     37 CA          2.6123  -17.0383  -43.3698 C.3       7 UNK         0.1400 
     38 CB          2.7986  -15.7833  -44.2302 C.3       7 UNK        -0.1800 
     39 N           2.1261  -16.6678  -42.0422 N.am      7 UNK        -0.5000 
     40 C           2.3506  -17.3946  -40.9389 C.2       6 UNK         0.5000 
     41 O           3.0584  -18.4019  -40.9152 O.2       6 UNK        -0.5000 
     42 CA          1.6520  -16.9350  -39.6456 C.3       6 UNK         0.1400 
     43 CB          2.5425  -15.9561  -38.8669 C.3       6 UNK        -0.1800 
     44 N           0.3468  -16.3168  -39.8832 N.am      6 UNK        -0.5000 
     45 C          -0.7292  -16.9761  -40.3361 C.2       5 UNK         0.5000 
     46 O          -0.7302  -18.1747  -40.6141 O.2       5 UNK        -0.5000 
     47 CA         -2.0102  -16.1507  -40.5586 C.3       5 UNK         0.1400 
     48 CB         -2.8350  -16.0848  -39.2648 C.3       5 UNK        -0.1800 
     49 N          -1.7723  -14.7907  -41.0466 N.am      5 UNK        -0.5000 
     50 C          -1.0792  -14.4576  -42.1442 C.2       4 UNK         0.5000 
     51 O          -0.5075  -15.2759  -42.8679 O.2       4 UNK        -0.5000 
     52 CA         -0.9784  -12.9601  -42.4900 C.3       4 UNK         0.1400 
     53 CB         -1.7773  -12.0257  -41.5528 C.3       4 UNK        -0.1800 
     54 N           0.4179  -12.5320  -42.5778 N.am      4 UNK        -0.5000 
     55 C           1.3477  -12.5730  -41.6101 C.2       3 UNK         0.5000 
     56 O           1.1276  -13.0014  -40.4759 O.2       3 UNK        -0.5000 
     57 CA          2.7659  -12.0697  -41.9608 C.3       3 UNK         0.1400 
     58 CB          3.8431  -13.0675  -41.5022 C.3       3 UNK        -0.1800 
     59 N           2.9374  -11.7962  -43.3920 N.am      3 UNK        -0.5000 
     60 C           2.6511  -10.6288  -43.9861 C.2       2 UNK         0.5000 
     61 O           2.2670   -9.6297  -43.3776 O.2       2 UNK        -0.5000 
     62 CA          2.7830  -10.5724  -45.5219 C.3       2 UNK         0.1400 
     63 CB          4.1625  -10.0280  -45.9226 C.3       2 UNK        -0.1800 
     64 N           2.5611  -11.8545  -46.2004 N.am      2 UNK        -0.5000 
     65 C           1.4185  -12.5577  -46.1821 C.2       1 UNK         0.5000 
     66 O           0.4289  -12.2248  -45.5288 O.2       1 UNK        -0.5000 
     67 C           0.1583  -22.2332  -47.6850 C.2       11 UNK         0.5000 
     68 O          -0.3311  -23.3516  -47.8267 O.2       11 UNK        -0.5000 
     69 N          -0.5495  -21.0957  -47.7548 N.am      12 UNK        -0.5000 
     70 CA         -1.9463  -20.9657  -48.1947 C.3       12 UNK         0.1400 
     71 CB         -2.4000  -19.5149  -47.9699 C.3       12 UNK        -0.1800 
     72 C          -2.9616  -21.9205  -47.5344 C.2       12 UNK         0.5000 
     73 O          -3.8556  -22.4233  -48.2148 O.2       12 UNK        -0.5000 
     74 N          -2.8138  -22.1403  -46.2233 N.am      13 UNK        -0.5000 
     75 CA         -3.6645  -23.0239  -45.4276 C.3       13 UNK         0.1400 
     76 CB         -3.8225  -22.4216  -44.0229 C.3       13 UNK        -0.1800 
     77 C          -3.1052  -24.4562  -45.3419 C.2       13 UNK         0.5000 
     78 O          -3.8437  -25.3635  -44.9565 O.2       13 UNK        -0.5000 
     79 N          -1.8244  -24.6434  -45.6886 N.am      14 UNK        -0.5000 
     80 CA         -1.1586  -25.9442  -45.7251 C.3       14 UNK         0.1400 
     81 CB          0.3558  -25.7575  -45.5333 C.3       14 UNK        -0.1800 
     82 C          -1.4660  -26.6951  -47.0325 C.2       14 UNK         0.5000 
     83 O          -1.6813  -27.9074  -46.9946 O.2       14 UNK        -0.5000 
     84 N          -1.5081  -25.9677  -48.1559 N.am      15 UNK        -0.5000 
     85 CA         -1.8559  -26.4829  -49.4749 C.3       15 UNK         0.1400 
     86 CB         -0.6217  -27.1224  -50.1356 C.3       15 UNK        -0.1800 
     87 C          -2.4170  -25.3467  -50.3407 C.2       15 UNK         0.5000 
     88 O          -1.8386  -24.2599  -50.3776 O.2       15 UNK        -0.5000 
     89 N          -3.5170  -25.6320  -51.0452 N.am      16 UNK        -0.5000 
     90 CA         -4.1225  -24.7420  -52.0349 C.3       16 UNK         0.1400 
     91 CB         -5.5797  -25.1819  -52.2518 C.3       16 UNK        -0.1800 
     92 C          -3.3452  -24.7703  -53.3660 C.2       16 UNK         0.5000 
     93 O          -2.6194  -25.7302  -53.6406 O.2       16 UNK        -0.5000 
     94 N          -3.5475  -23.7357  -54.1852 N.am      17 UNK        -0.5000 
     95 CA         -2.9823  -23.5864  -55.5231 C.3       17 UNK         0.1400 
     96 CB         -1.7388  -22.6824  -55.4476 C.3       17 UNK        -0.1800 
     97 C          -4.0463  -22.9917  -56.4586 C.2       17 UNK         0.5000 
     98 O          -5.1289  -22.6125  -56.0047 O.2       17 UNK        -0.5000 
     99 N          -3.7102  -22.8900  -57.7514 N.am      18 UNK        -0.5000 
    100 CA        -4.5719  -22.3584  -58.8156 C.3       18 UNK         0.1400 
    101 CB        -3.8728  -22.5643  -60.1682 C.3       18 UNK        -0.1800 
    102 C         -4.9775  -20.8790  -58.6400 C.2       18 UNK         0.5000 
    103 O         -5.9605  -20.4449  -59.2430 O.2       18 UNK        -0.5000 
    104 N         -4.2375  -20.1367  -57.8059 N.am      19 UNK        -0.5000 
    105 CA        -4.5079  -18.7597  -57.3956 C.3       19 UNK         0.1400 
    106 CB        -3.2159  -18.1699  -56.8006 C.3       19 UNK        -0.1800 
    107 C         -5.6996  -18.6741  -56.4161 C.2       19 UNK         0.5000 
    108 O         -5.5149  -18.3334  -55.2468 O.2       19 UNK        -0.5000 
    109 N         -6.8991  -19.0155  -56.9094 N.am      20 UNK        -0.5000 
    110 CA        -8.2004  -18.9602  -56.2287 C.3       20 UNK         0.1400 
    111 CB        -8.6384  -17.4921  -56.0472 C.3       20 UNK        -0.1800 
    112 C         -8.2404  -19.7606  -54.9084 C.2       20 UNK         0.5000 
    113 O         -8.7729  -19.2794  -53.9052 O.2       20 UNK        -0.5000 
    114 N         -7.6180  -20.9502  -54.9188 N.am      21 UNK        -0.5000 
    115 CA        -7.4262  -21.8593  -53.7793 C.3       21 UNK         0.1400 
    116 CB        -8.7781  -22.4175  -53.2881 C.3       21 UNK        -0.1800 
    117 C         -6.5867  -21.2526  -52.6312 C.2       21 UNK         0.5000 
    118 O         -6.6317  -21.7619  -51.5114 O.2       21 UNK        -0.5000 
    119 N         -5.8513  -20.1722  -52.9277 N.am      22 UNK        -0.5000 
    120 CA        -5.1451  -19.3001  -51.9778 C.3       22 UNK         0.1400 
    121 C         -6.0884  -18.4973  -51.0293 C.2       22 UNK         0.5000 
    122 N         -7.3679  -18.3324  -51.3502 N.am      22 UNK        -0.7600 
    123 O         -5.6538  -17.9860  -50.0010 O.2       22 UNK        -0.5000 
    124 C124       -3.9769  -19.9977  -51.2270 C.3       23 UNK        -0.0398 
    125 S125       -2.7900  -20.8266  -52.3364 S.3       23 UNK        -0.2404 
    126 C126       -1.7824  -19.4270  -52.9202 C.3       23 UNK        -0.0205 
    127 H127        1.4208  -12.9654  -51.4549 H         1 UNK         0.0600 
    128 H128        2.9708  -13.3301  -50.6928 H         1 UNK         0.0600 
    129 H129        2.4315  -11.6546  -50.8360 H         1 UNK         0.0600 
    130 H130        2.7388  -14.1191  -48.6448 H         1 UNK         0.3000 
    131 H131        2.1460  -14.4917  -46.5831 H         1 UNK         0.0600 
    132 H132       -0.3263  -14.6662  -45.9766 H         1 UNK         0.0800 
    133 H133       -0.7229  -14.0686  -47.5657 H         1 UNK         0.0800 
    134 H134       -1.3947  -15.9051  -49.3510 H         1 UNK         0.0800 
    135 H135        0.1893  -15.3170  -49.7993 H         1 UNK         0.0800 
    136 H136       -1.9533  -17.3210  -51.1851 H         1 UNK         0.1150 
    137 H137        0.6556  -20.5023  -52.3859 H         1 UNK         0.1150 
    138 H138        1.9224  -17.7139  -49.3924 H         1 UNK         0.1150 
    139 H139        3.1556  -20.0610  -51.7801 H         1 UNK         0.0800 
    140 H140        3.5033  -19.2865  -50.2563 H         1 UNK         0.0800 
    141 H141        1.8982  -20.0620  -48.1272 H         1 UNK         0.0800 
    142 H142        3.3990  -20.8622  -47.7843 H         1 UNK         0.0800 
    143 H143        2.0748  -23.0868  -47.7130 H         1 UNK         0.0600 
    144 H144        1.1547  -21.6306  -45.3937 H         1 UNK         0.3000 
    145 H145        3.3878  -23.2596  -43.4058 H         1 UNK         0.0600 
    146 H146        4.5255  -21.2380  -42.4620 H         1 UNK         0.0600 
    147 H147        4.2852  -20.3884  -43.9869 H         1 UNK         0.0600 
    148 H148        5.3154  -21.8115  -43.9217 H         1 UNK         0.0600 
    149 H149        1.8840  -20.6940  -43.3457 H         1 UNK         0.3000 
    150 H150       -1.0122  -22.1759  -42.0993 H         1 UNK         0.0600 
    151 H151        0.2623  -22.2711  -39.9346 H         1 UNK         0.0600 
    152 H152       -0.8028  -20.8780  -40.0135 H         1 UNK         0.0600 
    153 H153        0.9306  -20.6759  -40.2665 H         1 UNK         0.0600 
    154 H154       -0.2998  -19.4558  -42.0232 H         1 UNK         0.3000 
    155 H155       -0.5565  -18.7034  -45.5263 H         1 UNK         0.0600 
    156 H156       -2.8763  -18.6496  -44.6256 H         1 UNK         0.0600 
    157 H157       -2.1554  -17.0462  -44.5690 H         1 UNK         0.0600 
    158 H158       -2.2901  -18.0134  -43.0994 H         1 UNK         0.0600 
    159 H159        0.0398  -16.9777  -43.4041 H         1 UNK         0.3000 
    160 H160        3.5859  -17.5255  -43.2801 H         1 UNK         0.0600 
    161 H161        1.8865  -15.1878  -44.2785 H         1 UNK         0.0600 
    162 H162        3.0775  -16.0621  -45.2468 H         1 UNK         0.0600 
    163 H163        3.5994  -15.1542  -43.8463 H         1 UNK         0.0600 
    164 H164        1.4720  -15.8980  -41.9921 H         1 UNK         0.3000 
    165 H165        1.4968  -17.8201  -39.0247 H         1 UNK         0.0600 
    166 H166        2.0931  -15.6893  -37.9103 H         1 UNK         0.0600 
    167 H167        3.5179  -16.3967  -38.6564 H         1 UNK         0.0600 
    168 H168        2.7113  -15.0359  -39.4258 H         1 UNK         0.0600 
    169 H169        0.2755  -15.3211  -39.7209 H         1 UNK         0.3000 
    170 H170       -2.6095  -16.6642  -41.3106 H         1 UNK         0.0600 
    171 H171       -2.3087  -15.5417  -38.4789 H         1 UNK         0.0600 
    172 H172       -3.7928  -15.5915  -39.4313 H         1 UNK         0.0600 
    173 H173       -3.0486  -17.0855  -38.8862 H         1 UNK         0.0600 
    174 H174       -2.1807  -14.0448  -40.5026 H         1 UNK         0.3000 
    175 H175       -1.3958  -12.8556  -43.4923 H         1 UNK         0.0600 
    176 H176       -1.4265  -12.0722  -40.5213 H         1 UNK         0.0600 
    177 H177       -1.6936  -10.9891  -41.8796 H         1 UNK         0.0600 
    178 H178       -2.8392  -12.2745  -41.5581 H         1 UNK         0.0600 
    179 H179        0.6973  -12.2141  -43.4988 H         1 UNK         0.3000 
    180 H180        2.9204  -11.1445  -41.4019 H         1 UNK         0.0600 
    181 H181        4.8353  -12.7673  -41.8395 H         1 UNK         0.0600 
    182 H182        3.6500  -14.0745  -41.8680 H         1 UNK         0.0600 
    183 H183        3.8787  -13.1219  -40.4137 H         1 UNK         0.0600 
    184 H184        3.2488  -12.5637  -43.9683 H         1 UNK         0.3000 
    185 H185        2.0245   -9.8757  -45.8850 H         1 UNK         0.0600 
    186 H186        4.2339   -9.8879  -47.0014 H         1 UNK         0.0600 
    187 H187        4.3509   -9.0590  -45.4582 H         1 UNK         0.0600 
    188 H188        4.9649  -10.7003  -45.6162 H         1 UNK         0.0600 
    189 H189        3.3202  -12.1915  -46.7749 H         1 UNK         0.3000 
    190 H190       -0.0674  -20.2256  -47.5908 H         1 UNK         0.3000 
    191 H191       -1.9578  -21.1706  -49.2670 H         1 UNK         0.0600 
    192 H192       -1.7753  -18.8119  -48.5161 H         1 UNK         0.0600 
    193 H193       -2.3642  -19.2439  -46.9164 H         1 UNK         0.0600 
    194 H194       -3.4284  -19.3653  -48.3003 H         1 UNK         0.0600 
    195 H195       -2.0348  -21.7009  -45.7346 H         1 UNK         0.3000 
    196 H196       -4.6570  -23.0847  -45.8789 H         1 UNK         0.0600 
    197 H197       -4.2241  -21.4092  -44.0692 H         1 UNK         0.0600 
    198 H198       -2.8705  -22.3808  -43.4955 H         1 UNK         0.0600 
    199 H199       -4.5070  -23.0166  -43.4171 H         1 UNK         0.0600 
    200 H200       -1.3138  -23.8667  -46.0905 H         1 UNK         0.3000 
    201 H201       -1.5242  -26.5514  -44.8942 H         1 UNK         0.0600 
    202 H202        0.5735  -25.2265  -44.6066 H         1 UNK         0.0600 
    203 H203        0.8084  -25.1987  -46.3521 H         1 UNK         0.0600 
    204 H204        0.8606  -26.7227  -45.4814 H         1 UNK         0.0600 
    205 H205       -1.2872  -24.9734  -48.1208 H         1 UNK         0.3000 
    206 H206       -2.6302  -27.2452  -49.3634 H         1 UNK         0.0600 
    207 H207        0.1958  -26.4064  -50.2297 H         1 UNK         0.0600 
    208 H208       -0.2578  -27.9731  -49.5593 H         1 UNK         0.0600 
    209 H209       -0.8591  -27.4846  -51.1367 H         1 UNK         0.0600 
    210 H210       -3.9021  -26.5635  -50.9938 H         1 UNK         0.3000 
    211 H211       -4.1176  -23.7199  -51.6480 H         1 UNK         0.0600 
    212 H212       -5.6421  -26.2132  -52.6011 H         1 UNK         0.0600 
    213 H213       -6.0754  -24.5577  -52.9939 H         1 UNK         0.0600 
    214 H214       -6.1552  -25.1024  -51.3292 H         1 UNK         0.0600 
    215 H215       -4.2001  -23.0089  -53.9261 H         1 UNK         0.3000 
    216 H216       -2.6995  -24.5623  -55.9230 H         1 UNK         0.0600 
    217 H217       -1.2213  -22.6374  -56.4061 H         1 UNK         0.0600 
    218 H218       -1.0240  -23.0541  -54.7130 H         1 UNK         0.0600 
    219 H219       -2.0025  -21.6622  -55.1688 H         1 UNK         0.0600 
    220 H220       -2.7999  -23.2165  -58.0427 H         1 UNK         0.3000 
    221 H221       -5.4940  -22.9433  -58.8154 H         1 UNK         0.0600 
    222 H222       -3.6671  -23.6193  -60.3504 H         1 UNK         0.0600 
    223 H223       -4.4971  -22.2111  -60.9902 H         1 UNK         0.0600 
    224 H224       -2.9273  -22.0228  -60.2182 H         1 UNK         0.0600 
    225 H225       -3.4642  -20.5916  -57.3453 H         1 UNK         0.3000 
    226 H226       -4.7677  -18.1744  -58.2801 H         1 UNK         0.0600 
    227 H227       -2.4057  -18.1791  -57.5300 H         1 UNK         0.0600 
    228 H228       -3.3635  -17.1334  -56.4946 H         1 UNK         0.0600 
    229 H229       -2.8839  -18.7277  -55.9239 H         1 UNK         0.0600 
    230 H230       -6.9145  -19.3596  -57.8651 H         1 UNK         0.3000 
    231 H231       -8.9185  -19.4397  -56.8953 H         1 UNK         0.0600 
    232 H232       -9.6515  -17.4309  -55.6481 H         1 UNK         0.0600 
    233 H233       -8.6335  -16.9589  -56.9978 H         1 UNK         0.0600 
    234 H234       -7.9821  -16.9575  -55.3595 H         1 UNK         0.0600 
    235 H235       -7.1541  -21.2376  -55.7711 H         1 UNK         0.3000 
    236 H236       -6.8539  -22.7039  -54.1577 H         1 UNK         0.0600 
    237 H237       -9.3866  -21.6487  -52.8115 H         1 UNK         0.0600 
    238 H238       -9.3534  -22.8396  -54.1120 H         1 UNK         0.0600 
    239 H239       -8.6299  -23.2138  -52.5576 H         1 UNK         0.0600 
    240 H240       -5.8842  -19.8105  -53.8742 H         1 UNK         0.3000 
    241 H241       -4.6970  -18.5263  -52.6002 H         1 UNK         0.0600 
    242 H242       -7.7502  -18.7222  -52.2052 H         1 UNK         0.3800 
    243 H243       -7.9652  -17.8028  -50.7357 H         1 UNK         0.3800 
    244 H244       -4.3626  -20.7385  -50.5252 H         1 UNK         0.0800 
    245 H245       -3.4278  -19.2722  -50.6292 H         1 UNK         0.0800 
    246 H246       -1.2559  -19.7340  -53.8246 H         1 UNK         0.0800 
    247 H247       -2.4273  -18.6006  -53.2206 H         1 UNK         0.0800 
@<TRIPOS>BOND
     1    1    2 1    
     2    1  127 1    
     3    1  128 1    
     4    1  129 1    
     5    2    3 2    
     6    2    4 am   BACKBONE|DICT|INTERRES
     7    4    5 1    
     8    4  130 1    
     9    5    6 1    
    10    5   65 1    
    11    5  131 1    
    12    6    7 1    
    13    6  132 1    
    14    6  133 1    
    15    7    8 1    
    16    8    9 1    
    17    8  134 1    
    18    8  135 1    
    19    9   10 ar   
    20    9   14 ar   
    21   10   11 ar   
    22   10  136 1    
    23   11   12 ar   
    24   11  126 1    
    25   12   13 ar   
    26   12  137 1    
    27   13   14 ar   
    28   13   15 1    
    29   14  138 1    
    30   15   16 1    
    31   15  139 1    
    32   15  140 1    
    33   16   17 1    
    34   17   18 1    
    35   17  141 1    
    36   17  142 1    
    37   18   19 1    
    38   18   67 1    
    39   18  143 1    
    40   19   20 am   BACKBONE|DICT|INTERRES
    41   19  144 1    
    42   20   21 2    
    43   20   22 1    
    44   22   23 1    
    45   22   24 1    
    46   22  145 1    
    47   23  146 1    
    48   23  147 1    
    49   23  148 1    
    50   24   25 am   BACKBONE|DICT|INTERRES
    51   24  149 1    
    52   25   26 2    
    53   25   27 1    
    54   27   28 1    
    55   27   29 1    
    56   27  150 1    
    57   28  151 1    
    58   28  152 1    
    59   28  153 1    
    60   29   30 am   BACKBONE|DICT|INTERRES
    61   29  154 1    
    62   30   31 2    
    63   30   32 1    
    64   32   33 1    
    65   32   34 1    
    66   32  155 1    
    67   33  156 1    
    68   33  157 1    
    69   33  158 1    
    70   34   35 am   BACKBONE|DICT|INTERRES
    71   34  159 1    
    72   35   36 2    
    73   35   37 1    
    74   37   38 1    
    75   37   39 1    
    76   37  160 1    
    77   38  161 1    
    78   38  162 1    
    79   38  163 1    
    80   39   40 am   BACKBONE|DICT|INTERRES
    81   39  164 1    
    82   40   41 2    
    83   40   42 1    
    84   42   43 1    
    85   42   44 1    
    86   42  165 1    
    87   43  166 1    
    88   43  167 1    
    89   43  168 1    
    90   44   45 am   BACKBONE|DICT|INTERRES
    91   44  169 1    
    92   45   46 2    
    93   45   47 1    
    94   47   48 1    
    95   47   49 1    
    96   47  170 1    
    97   48  171 1    
    98   48  172 1    
    99   48  173 1    
   100   49   50 am   BACKBONE|DICT|INTERRES
   101   49  174 1    
   102   50   51 2    
   103   50   52 1    
   104   52   53 1    
   105   52   54 1    
   106   52  175 1    
   107   53  176 1    
   108   53  177 1    
   109   53  178 1    
   110   54   55 am   BACKBONE|DICT|INTERRES
   111   54  179 1    
   112   55   56 2    
   113   55   57 1    
   114   57   58 1    
   115   57   59 1    
   116   57  180 1    
   117   58  181 1    
   118   58  182 1    
   119   58  183 1    
   120   59   60 am   BACKBONE|DICT|INTERRES
   121   59  184 1    
   122   60   61 2    
   123   60   62 1    
   124   62   63 1    
   125   62   64 1    
   126   62  185 1    
   127   63  186 1    
   128   63  187 1    
   129   63  188 1    
   130   64   65 am   BACKBONE|DICT|INTERRES
   131   64  189 1    
   132   65   66 2    
   133   67   68 2    
   134   67   69 am   BACKBONE|DICT|INTERRES
   135   69   70 1    
   136   69  190 1    
   137   70   71 1    
   138   70   72 1    
   139   70  191 1    
   140   71  192 1    
   141   71  193 1    
   142   71  194 1    
   143   72   73 2    
   144   72   74 am   BACKBONE|DICT|INTERRES
   145   74   75 1    
   146   74  195 1    
   147   75   76 1    
   148   75   77 1    
   149   75  196 1    
   150   76  197 1    
   151   76  198 1    
   152   76  199 1    
   153   77   78 2    
   154   77   79 am   BACKBONE|DICT|INTERRES
   155   79   80 1    
   156   79  200 1    
   157   80   81 1    
   158   80   82 1    
   159   80  201 1    
   160   81  202 1    
   161   81  203 1    
   162   81  204 1    
   163   82   83 2    
   164   82   84 am   BACKBONE|DICT|INTERRES
   165   84   85 1    
   166   84  205 1    
   167   85   86 1    
   168   85   87 1    
   169   85  206 1    
   170   86  207 1    
   171   86  208 1    
   172   86  209 1    
   173   87   88 2    
   174   87   89 am   BACKBONE|DICT|INTERRES
   175   89   90 1    
   176   89  210 1    
   177   90   91 1    
   178   90   92 1    
   179   90  211 1    
   180   91  212 1    
   181   91  213 1    
   182   91  214 1    
   183   92   93 2    
   184   92   94 am   BACKBONE|DICT|INTERRES
   185   94   95 1    
   186   94  215 1    
   187   95   96 1    
   188   95   97 1    
   189   95  216 1    
   190   96  217 1    
   191   96  218 1    
   192   96  219 1    
   193   97   98 2    
   194   97   99 am   BACKBONE|DICT|INTERRES
   195   99  100 1    
   196   99  220 1    
   197  100  101 1    
   198  100  102 1    
   199  100  221 1    
   200  101  222 1    
   201  101  223 1    
   202  101  224 1    
   203  102  103 2    
   204  102  104 am   BACKBONE|DICT|INTERRES
   205  104  105 1    
   206  104  225 1    
   207  105  106 1    
   208  105  107 1    
   209  105  226 1    
   210  106  227 1    
   211  106  228 1    
   212  106  229 1    
   213  107  108 2    
   214  107  109 am   BACKBONE|DICT|INTERRES
   215  109  110 1    
   216  109  230 1    
   217  110  111 1    
   218  110  112 1    
   219  110  231 1    
   220  111  232 1    
   221  111  233 1    
   222  111  234 1    
   223  112  113 2    
   224  112  114 am   BACKBONE|DICT|INTERRES
   225  114  115 1    
   226  114  235 1    
   227  115  116 1    
   228  115  117 1    
   229  115  236 1    
   230  116  237 1    
   231  116  238 1    
   232  116  239 1    
   233  117  118 2    
   234  117  119 am   BACKBONE|DICT|INTERRES
   235  119  120 1    
   236  119  240 1    
   237  120  121 1    
   238  120  124 1    
   239  120  241 1    
   240  121  122 am   BACKBONE|DICT|INTERRES
   241  121  123 2    
   242  122  242 1    
   243  122  243 1    
   244  124  125 1    
   245  124  244 1    
   246  124  245 1    
   247  125  126 1    
   248  126  246 1    
   249  126  247 1    
@<TRIPOS>SUBSTRUCTURE
     1 UNK         1 GROUP             0       ****    0 ROOT    
