@<TRIPOS>MOLECULE
3R540
247   249    1
SMALL
USER_CHARGES


@<TRIPOS>ATOM
      1 CA          4.6881  -13.4979  -45.6448 C.3       0 UNK        -0.1800 
      2 C           3.1764  -13.6315  -45.5416 C.2       0 UNK         0.5000 
      3 O           2.6606  -13.9071  -44.4598 O.2       0 UNK        -0.5000 
      4 N           2.4622  -13.4247  -46.6563 N.am      1 UNK        -0.5000 
      5 CA          0.9989  -13.5341  -46.7631 C.3       1 UNK         0.1400 
      6 C6          0.4991  -13.3726  -48.2199 C.3       23 UNK        -0.0398 
      7 S7          1.2911  -14.5272  -49.3890 S.3       23 UNK        -0.2404 
      8 C8          0.0595  -15.8629  -49.4480 C.3       23 UNK        -0.0205 
      9 C9          0.4626  -16.9274  -50.4553 C.ar      23 UNK        -0.0193 
     10 C10        -0.0521  -16.9072  -51.7547 C.ar      23 UNK        -0.1150 
     11 C11         0.3451  -17.8679  -52.6909 C.ar      23 UNK        -0.0193 
     12 C12         1.2604  -18.8559  -52.3172 C.ar      23 UNK        -0.1150 
     13 C13         1.7740  -18.8904  -51.0178 C.ar      23 UNK        -0.0193 
     14 C14         1.3657  -17.9278  -50.0908 C.ar      23 UNK        -0.1150 
     15 C15         2.7991  -19.9410  -50.6222 C.3       23 UNK        -0.0205 
     16 S16         2.1767  -21.0610  -49.3347 S.3       23 UNK        -0.2404 
     17 C17         0.9820  -22.0881  -50.2595 C.3       23 UNK        -0.0398 
     18 CA         -0.1863  -22.6077  -49.3850 C.3       11 UNK         0.1400 
     19 N           0.2831  -23.1654  -48.1113 N.am      11 UNK        -0.5000 
     20 C          -0.4717  -23.7380  -47.1678 C.2       10 UNK         0.5000 
     21 O          -1.6868  -23.9023  -47.2654 O.2       10 UNK        -0.5000 
     22 CA          0.2279  -24.1593  -45.8665 C.3       10 UNK         0.1400 
     23 CB          0.6152  -25.6435  -45.9346 C.3       10 UNK        -0.1800 
     24 N           1.4065  -23.3756  -45.4774 N.am      10 UNK        -0.5000 
     25 C           1.5081  -22.0427  -45.3556 C.2       9 UNK         0.5000 
     26 O           0.6467  -21.2477  -45.7446 O.2       9 UNK        -0.5000 
     27 CA          2.7443  -21.5467  -44.5772 C.3       9 UNK         0.1400 
     28 CB          4.0063  -22.4221  -44.7630 C.3       9 UNK        -0.1800 
     29 N           3.0218  -20.1200  -44.7539 N.am      9 UNK        -0.5000 
     30 C           3.6810  -19.5053  -45.7478 C.2       8 UNK         0.5000 
     31 O           4.1678  -20.0878  -46.7168 O.2       8 UNK        -0.5000 
     32 CA          3.8952  -17.9806  -45.5848 C.3       8 UNK         0.1400 
     33 CB          4.1643  -17.2532  -46.9198 C.3       8 UNK        -0.1800 
     34 N           2.8334  -17.3252  -44.8117 N.am      8 UNK        -0.5000 
     35 C           1.5416  -17.2200  -45.1550 C.2       7 UNK         0.5000 
     36 O           1.1098  -17.5247  -46.2643 O.2       7 UNK        -0.5000 
     37 CA          0.5658  -16.6987  -44.0757 C.3       7 UNK         0.1400 
     38 CB         -0.8395  -17.3175  -44.2204 C.3       7 UNK        -0.1800 
     39 N           1.0435  -16.8479  -42.6947 N.am      7 UNK        -0.5000 
     40 C           1.3875  -17.9730  -42.0486 C.2       6 UNK         0.5000 
     41 O           1.4112  -19.0862  -42.5709 O.2       6 UNK        -0.5000 
     42 CA          1.7938  -17.8256  -40.5737 C.3       6 UNK         0.1400 
     43 CB          3.2425  -17.3233  -40.4679 C.3       6 UNK        -0.1800 
     44 N           0.9086  -16.8887  -39.8839 N.am      6 UNK        -0.5000 
     45 C          -0.0090  -17.2214  -38.9662 C.2       5 UNK         0.5000 
     46 O          -0.1571  -18.3612  -38.5236 O.2       5 UNK        -0.5000 
     47 CA         -0.9312  -16.0906  -38.4606 C.3       5 UNK         0.1400 
     48 CB         -0.3456  -15.4447  -37.1958 C.3       5 UNK        -0.1800 
     49 N          -1.1635  -15.0488  -39.4634 N.am      5 UNK        -0.5000 
     50 C          -1.8249  -15.2326  -40.6142 C.2       4 UNK         0.5000 
     51 O          -2.4352  -16.2666  -40.8861 O.2       4 UNK        -0.5000 
     52 CA         -1.7851  -14.0911  -41.6519 C.3       4 UNK         0.1400 
     53 CB         -3.1372  -13.3640  -41.7033 C.3       4 UNK        -0.1800 
     54 N          -0.7239  -13.0905  -41.4827 N.am      4 UNK        -0.5000 
     55 C           0.5964  -13.3131  -41.4335 C.2       3 UNK         0.5000 
     56 O           1.0999  -14.4337  -41.3537 O.2       3 UNK        -0.5000 
     57 CA          1.4915  -12.0679  -41.5429 C.3       3 UNK         0.1400 
     58 CB          2.9752  -12.3755  -41.2716 C.3       3 UNK        -0.1800 
     59 N           1.3566  -11.5133  -42.8874 N.am      3 UNK        -0.5000 
     60 C           0.4095  -10.6455  -43.2690 C.2       2 UNK         0.5000 
     61 O          -0.4078  -10.1504  -42.4917 O.2       2 UNK        -0.5000 
     62 CA          0.3365  -10.2951  -44.7674 C.3       2 UNK         0.1400 
     63 CB          1.1082   -8.9980  -45.0532 C.3       2 UNK        -0.1800 
     64 N           0.8501  -11.3558  -45.6361 N.am      2 UNK        -0.5000 
     65 C           0.2544  -12.5399  -45.8446 C.2       1 UNK         0.5000 
     66 O          -0.8215  -12.8646  -45.3419 O.2       1 UNK        -0.5000 
     67 C          -1.3131  -21.5592  -49.2327 C.2       11 UNK         0.5000 
     68 O          -2.2001  -21.5094  -50.0862 O.2       11 UNK        -0.5000 
     69 N          -1.3078  -20.7985  -48.1305 N.am      12 UNK        -0.5000 
     70 CA         -2.4018  -19.9018  -47.7611 C.3       12 UNK         0.1400 
     71 CB         -1.9318  -18.4480  -47.8435 C.3       12 UNK        -0.1800 
     72 C          -2.9859  -20.2289  -46.3784 C.2       12 UNK         0.5000 
     73 O          -4.1660  -19.9542  -46.1632 O.2       12 UNK        -0.5000 
     74 N          -2.1973  -20.8268  -45.4720 N.am      13 UNK        -0.5000 
     75 CA         -2.6497  -21.1764  -44.1214 C.3       13 UNK         0.1400 
     76 CB         -1.4363  -21.4622  -43.2237 C.3       13 UNK        -0.1800 
     77 C          -3.6433  -22.3558  -44.0756 C.2       13 UNK         0.5000 
     78 O          -4.4116  -22.4422  -43.1166 O.2       13 UNK        -0.5000 
     79 N          -3.6147  -23.2375  -45.0857 N.am      14 UNK        -0.5000 
     80 CA         -4.4793  -24.4162  -45.1790 C.3       14 UNK         0.1400 
     81 CB         -3.6538  -25.6818  -44.8916 C.3       14 UNK        -0.1800 
     82 C          -5.1662  -24.5040  -46.5504 C.2       14 UNK         0.5000 
     83 O          -6.3814  -24.6916  -46.6101 O.2       14 UNK        -0.5000 
     84 N          -4.3842  -24.3597  -47.6281 N.am      15 UNK        -0.5000 
     85 CA         -4.8393  -24.4656  -49.0168 C.3       15 UNK         0.1400 
     86 CB         -3.6323  -24.8208  -49.8957 C.3       15 UNK        -0.1800 
     87 C          -5.5504  -23.1997  -49.5362 C.2       15 UNK         0.5000 
     88 O          -6.1860  -23.2570  -50.5914 O.2       15 UNK        -0.5000 
     89 N          -5.4360  -22.0908  -48.7882 N.am      16 UNK        -0.5000 
     90 CA         -6.1356  -20.8144  -48.9759 C.3       16 UNK         0.1400 
     91 CB         -7.6251  -20.9812  -48.6100 C.3       16 UNK        -0.1800 
     92 C          -5.9361  -20.1816  -50.3691 C.2       16 UNK         0.5000 
     93 O          -6.8693  -19.5788  -50.9020 O.2       16 UNK        -0.5000 
     94 N          -4.7420  -20.3636  -50.9552 N.am      17 UNK        -0.5000 
     95 CA         -4.2982  -19.9433  -52.2922 C.3       17 UNK         0.1400 
     96 CB         -4.3816  -18.4126  -52.4527 C.3       17 UNK        -0.1800 
     97 C          -4.9933  -20.6752  -53.4625 C.2       17 UNK         0.5000 
     98 O          -4.3445  -20.9671  -54.4686 O.2       17 UNK        -0.5000 
     99 N          -6.2873  -20.9793  -53.3116 N.am      18 UNK        -0.5000 
    100 CA        -7.1362  -21.6602  -54.2844 C.3       18 UNK         0.1400 
    101 CB        -8.5904  -21.6400  -53.7888 C.3       18 UNK        -0.1800 
    102 C         -6.6749  -23.0962  -54.5794 C.2       18 UNK         0.5000 
    103 O         -6.4645  -23.4345  -55.7446 O.2       18 UNK        -0.5000 
    104 N         -6.4854  -23.9067  -53.5271 N.am      19 UNK        -0.5000 
    105 CA        -6.0342  -25.2973  -53.6552 C.3       19 UNK         0.1400 
    106 CB        -6.4607  -26.1025  -52.4187 C.3       19 UNK        -0.1800 
    107 C         -4.5186  -25.4100  -53.9120 C.2       19 UNK         0.5000 
    108 O         -4.0613  -26.4501  -54.3861 O.2       19 UNK        -0.5000 
    109 N         -3.7734  -24.3306  -53.6328 N.am      20 UNK        -0.5000 
    110 CA        -2.3603  -24.1769  -53.9861 C.3       20 UNK         0.1400 
    111 CB        -1.7277  -23.1179  -53.0714 C.3       20 UNK        -0.1800 
    112 C         -2.1570  -23.8074  -55.4706 C.2       20 UNK         0.5000 
    113 O         -1.0278  -23.8841  -55.9558 O.2       20 UNK        -0.5000 
    114 N         -3.2459  -23.4253  -56.1569 N.am      21 UNK        -0.5000 
    115 CA        -3.3276  -23.0248  -57.5620 C.3       21 UNK         0.1400 
    116 CB        -2.9979  -24.2112  -58.4926 C.3       21 UNK        -0.1800 
    117 C         -2.5081  -21.7556  -57.8696 C.2       21 UNK         0.5000 
    118 O         -1.8074  -21.7011  -58.8829 O.2       21 UNK        -0.5000 
    119 N         -2.6142  -20.7547  -56.9854 N.am      22 UNK        -0.5000 
    120 CA        -2.0292  -19.4159  -57.1602 C.3       22 UNK         0.1400 
    121 C         -2.5820  -18.6766  -58.4131 C.2       22 UNK         0.5000 
    122 N         -1.7407  -17.9457  -59.1319 N.am      22 UNK        -0.7600 
    123 O         -3.7737  -18.7227  -58.7118 O.2       22 UNK        -0.5000 
    124 C124       -2.2435  -18.5404  -55.9031 C.3       23 UNK        -0.0398 
    125 S125       -1.3647  -19.1719  -54.4326 S.3       23 UNK        -0.2404 
    126 C126       -0.1911  -17.8192  -54.1129 C.3       23 UNK        -0.0205 
    127 H127        5.0263  -12.6324  -45.0753 H         1 UNK         0.0600 
    128 H128        5.1713  -14.3850  -45.2356 H         1 UNK         0.0600 
    129 H129        5.0146  -13.3784  -46.6781 H         1 UNK         0.0600 
    130 H130        2.9430  -13.2200  -47.5210 H         1 UNK         0.3000 
    131 H131        0.7292  -14.5381  -46.4311 H         1 UNK         0.0600 
    132 H132        0.6951  -12.3601  -48.5776 H         1 UNK         0.0800 
    133 H133       -0.5836  -13.5030  -48.2709 H         1 UNK         0.0800 
    134 H134       -0.9197  -15.4551  -49.7035 H         1 UNK         0.0800 
    135 H135       -0.0335  -16.3049  -48.4552 H         1 UNK         0.0800 
    136 H136       -0.7509  -16.1336  -52.0404 H         1 UNK         0.1150 
    137 H137        1.5741  -19.5932  -53.0429 H         1 UNK         0.1150 
    138 H138        1.7569  -17.9532  -49.0842 H         1 UNK         0.1150 
    139 H139        3.1217  -20.5248  -51.4856 H         1 UNK         0.0800 
    140 H140        3.6887  -19.4367  -50.2421 H         1 UNK         0.0800 
    141 H141        0.6062  -21.5429  -51.1275 H         1 UNK         0.0800 
    142 H142        1.5324  -22.9379  -50.6650 H         1 UNK         0.0800 
    143 H143       -0.6303  -23.4445  -49.9256 H         1 UNK         0.0600 
    144 H144        1.2626  -23.0212  -47.9111 H         1 UNK         0.3000 
    145 H145       -0.5071  -24.0475  -45.0686 H         1 UNK         0.0600 
    146 H146        0.9833  -26.0010  -44.9728 H         1 UNK         0.0600 
    147 H147       -0.2434  -26.2622  -46.2001 H         1 UNK         0.0600 
    148 H148        1.3914  -25.8218  -46.6799 H         1 UNK         0.0600 
    149 H149        2.1854  -23.9224  -45.1401 H         1 UNK         0.3000 
    150 H150        2.4613  -21.6326  -43.5273 H         1 UNK         0.0600 
    151 H151        3.8688  -23.4160  -44.3365 H         1 UNK         0.0600 
    152 H152        4.8682  -21.9824  -44.2609 H         1 UNK         0.0600 
    153 H153        4.2619  -22.5495  -45.8155 H         1 UNK         0.0600 
    154 H154        2.5841  -19.5358  -44.0473 H         1 UNK         0.3000 
    155 H155        4.7986  -17.8793  -44.9821 H         1 UNK         0.0600 
    156 H156        5.0508  -17.6542  -47.4120 H         1 UNK         0.0600 
    157 H157        4.3360  -16.1897  -46.7650 H         1 UNK         0.0600 
    158 H158        3.3344  -17.3576  -47.6156 H         1 UNK         0.0600 
    159 H159        3.0898  -17.0132  -43.8862 H         1 UNK         0.3000 
    160 H160        0.4719  -15.6247  -44.2398 H         1 UNK         0.0600 
    161 H161       -0.8009  -18.4068  -44.2053 H         1 UNK         0.0600 
    162 H162       -1.3027  -17.0182  -45.1605 H         1 UNK         0.0600 
    163 H163       -1.5030  -16.9950  -43.4188 H         1 UNK         0.0600 
    164 H164        1.1171  -15.9691  -42.1837 H         1 UNK         0.3000 
    165 H165        1.7422  -18.8149  -40.1144 H         1 UNK         0.0600 
    166 H166        3.3603  -16.3300  -40.9039 H         1 UNK         0.0600 
    167 H167        3.5627  -17.2698  -39.4273 H         1 UNK         0.0600 
    168 H168        3.9287  -17.9951  -40.9852 H         1 UNK         0.0600 
    169 H169        0.9355  -15.9282  -40.2138 H         1 UNK         0.3000 
    170 H170       -1.8943  -16.5370  -38.2043 H         1 UNK         0.0600 
    171 H171       -0.1826  -16.1904  -36.4165 H         1 UNK         0.0600 
    172 H172        0.6130  -14.9642  -37.3961 H         1 UNK         0.0600 
    173 H173       -1.0208  -14.6923  -36.7878 H         1 UNK         0.0600 
    174 H174       -0.6960  -14.1660  -39.3204 H         1 UNK         0.3000 
    175 H175       -1.6190  -14.5602  -42.6237 H         1 UNK         0.0600 
    176 H176       -3.3416  -12.8324  -40.7731 H         1 UNK         0.0600 
    177 H177       -3.1645  -12.6401  -42.5183 H         1 UNK         0.0600 
    178 H178       -3.9560  -14.0658  -41.8683 H         1 UNK         0.0600 
    179 H179       -1.0189  -12.1254  -41.5635 H         1 UNK         0.3000 
    180 H180        1.1575  -11.3417  -40.7989 H         1 UNK         0.0600 
    181 H181        3.3777  -13.0998  -41.9806 H         1 UNK         0.0600 
    182 H182        3.1107  -12.7871  -40.2708 H         1 UNK         0.0600 
    183 H183        3.5820  -11.4724  -41.3370 H         1 UNK         0.0600 
    184 H184        1.9239  -11.9545  -43.5999 H         1 UNK         0.3000 
    185 H185       -0.7141  -10.1303  -45.0159 H         1 UNK         0.0600 
    186 H186        2.1723   -9.1068  -44.8396 H         1 UNK         0.0600 
    187 H187        1.0030   -8.6974  -46.0958 H         1 UNK         0.0600 
    188 H188        0.7327   -8.1772  -44.4406 H         1 UNK         0.0600 
    189 H189        1.7367  -11.1817  -46.0870 H         1 UNK         0.3000 
    190 H190       -0.5381  -20.8899  -47.4762 H         1 UNK         0.3000 
    191 H191       -3.2310  -20.0042  -48.4615 H         1 UNK         0.0600 
    192 H192       -2.7121  -17.7569  -47.5228 H         1 UNK         0.0600 
    193 H193       -1.6645  -18.1889  -48.8674 H         1 UNK         0.0600 
    194 H194       -1.0611  -18.2833  -47.2147 H         1 UNK         0.0600 
    195 H195       -1.2140  -20.9859  -45.6736 H         1 UNK         0.3000 
    196 H196       -3.1630  -20.3055  -43.7079 H         1 UNK         0.0600 
    197 H197       -1.7455  -21.6129  -42.1888 H         1 UNK         0.0600 
    198 H198       -0.7315  -20.6314  -43.2315 H         1 UNK         0.0600 
    199 H199       -0.9022  -22.3580  -43.5356 H         1 UNK         0.0600 
    200 H200       -2.9513  -23.1033  -45.8388 H         1 UNK         0.3000 
    201 H201       -5.2773  -24.3630  -44.4354 H         1 UNK         0.0600 
    202 H202       -3.2305  -25.6537  -43.8876 H         1 UNK         0.0600 
    203 H203       -2.8307  -25.7998  -45.5968 H         1 UNK         0.0600 
    204 H204       -4.2743  -26.5764  -44.9581 H         1 UNK         0.0600 
    205 H205       -3.3810  -24.2320  -47.4990 H         1 UNK         0.3000 
    206 H206       -5.5575  -25.2852  -49.0845 H         1 UNK         0.0600 
    207 H207       -3.1885  -25.7690  -49.5922 H         1 UNK         0.0600 
    208 H208       -3.9122  -24.9139  -50.9428 H         1 UNK         0.0600 
    209 H209       -2.8610  -24.0580  -49.8337 H         1 UNK         0.0600 
    210 H210       -4.8817  -22.1652  -47.9485 H         1 UNK         0.3000 
    211 H211       -5.7047  -20.1099  -48.2659 H         1 UNK         0.0600 
    212 H212       -8.1422  -21.6334  -49.3148 H         1 UNK         0.0600 
    213 H213       -8.1417  -20.0207  -48.6107 H         1 UNK         0.0600 
    214 H214       -7.7399  -21.4075  -47.6133 H         1 UNK         0.0600 
    215 H215       -4.0438  -20.9051  -50.4529 H         1 UNK         0.3000 
    216 H216       -3.2438  -20.2154  -52.3407 H         1 UNK         0.0600 
    217 H217       -5.4084  -18.0491  -52.4208 H         1 UNK         0.0600 
    218 H218       -3.9624  -18.0947  -53.4061 H         1 UNK         0.0600 
    219 H219       -3.8189  -17.9056  -51.6687 H         1 UNK         0.0600 
    220 H220       -6.7333  -20.6631  -52.4558 H         1 UNK         0.3000 
    221 H221       -7.0871  -21.0969  -55.2185 H         1 UNK         0.0600 
    222 H222       -8.6956  -22.1385  -52.8241 H         1 UNK         0.0600 
    223 H223       -8.9527  -20.6179  -53.6765 H         1 UNK         0.0600 
    224 H224       -9.2520  -22.1436  -54.4947 H         1 UNK         0.0600 
    225 H225       -6.6223  -23.5541  -52.5841 H         1 UNK         0.3000 
    226 H226       -6.5347  -25.7435  -54.5175 H         1 UNK         0.0600 
    227 H227       -7.5415  -26.0680  -52.2813 H         1 UNK         0.0600 
    228 H228       -6.1801  -27.1515  -52.5212 H         1 UNK         0.0600 
    229 H229       -5.9981  -25.7305  -51.5078 H         1 UNK         0.0600 
    230 H230       -4.2369  -23.5187  -53.2525 H         1 UNK         0.3000 
    231 H231       -1.8487  -25.1253  -53.8095 H         1 UNK         0.0600 
    232 H232       -2.1622  -22.1322  -53.2330 H         1 UNK         0.0600 
    233 H233       -1.8610  -23.3779  -52.0229 H         1 UNK         0.0600 
    234 H234       -0.6556  -23.0334  -53.2524 H         1 UNK         0.0600 
    235 H235       -4.1199  -23.3705  -55.6512 H         1 UNK         0.3000 
    236 H236       -4.3706  -22.7564  -57.7362 H         1 UNK         0.0600 
    237 H237       -3.6124  -25.0797  -58.2553 H         1 UNK         0.0600 
    238 H238       -3.1898  -23.9540  -59.5348 H         1 UNK         0.0600 
    239 H239       -1.9518  -24.5093  -58.4176 H         1 UNK         0.0600 
    240 H240       -3.1963  -20.8828  -56.1634 H         1 UNK         0.3000 
    241 H241       -0.9551  -19.5528  -57.3005 H         1 UNK         0.0600 
    242 H242       -2.0890  -17.4491  -59.9376 H         1 UNK         0.3800 
    243 H243       -0.7598  -17.8883  -58.9042 H         1 UNK         0.3800 
    244 H244       -1.9230  -17.5153  -56.0959 H         1 UNK         0.0800 
    245 H245       -3.3071  -18.4788  -55.6681 H         1 UNK         0.0800 
    246 H246       -0.6782  -16.8589  -54.2882 H         1 UNK         0.0800 
    247 H247        0.6354  -17.8818  -54.8221 H         1 UNK         0.0800 
@<TRIPOS>BOND
     1    1    2 1    
     2    1  127 1    
     3    1  128 1    
     4    1  129 1    
     5    2    3 2    
     6    2    4 am   BACKBONE|DICT|INTERRES
     7    4    5 1    
     8    4  130 1    
     9    5    6 1    
    10    5   65 1    
    11    5  131 1    
    12    6    7 1    
    13    6  132 1    
    14    6  133 1    
    15    7    8 1    
    16    8    9 1    
    17    8  134 1    
    18    8  135 1    
    19    9   10 ar   
    20    9   14 ar   
    21   10   11 ar   
    22   10  136 1    
    23   11   12 ar   
    24   11  126 1    
    25   12   13 ar   
    26   12  137 1    
    27   13   14 ar   
    28   13   15 1    
    29   14  138 1    
    30   15   16 1    
    31   15  139 1    
    32   15  140 1    
    33   16   17 1    
    34   17   18 1    
    35   17  141 1    
    36   17  142 1    
    37   18   19 1    
    38   18   67 1    
    39   18  143 1    
    40   19   20 am   BACKBONE|DICT|INTERRES
    41   19  144 1    
    42   20   21 2    
    43   20   22 1    
    44   22   23 1    
    45   22   24 1    
    46   22  145 1    
    47   23  146 1    
    48   23  147 1    
    49   23  148 1    
    50   24   25 am   BACKBONE|DICT|INTERRES
    51   24  149 1    
    52   25   26 2    
    53   25   27 1    
    54   27   28 1    
    55   27   29 1    
    56   27  150 1    
    57   28  151 1    
    58   28  152 1    
    59   28  153 1    
    60   29   30 am   BACKBONE|DICT|INTERRES
    61   29  154 1    
    62   30   31 2    
    63   30   32 1    
    64   32   33 1    
    65   32   34 1    
    66   32  155 1    
    67   33  156 1    
    68   33  157 1    
    69   33  158 1    
    70   34   35 am   BACKBONE|DICT|INTERRES
    71   34  159 1    
    72   35   36 2    
    73   35   37 1    
    74   37   38 1    
    75   37   39 1    
    76   37  160 1    
    77   38  161 1    
    78   38  162 1    
    79   38  163 1    
    80   39   40 am   BACKBONE|DICT|INTERRES
    81   39  164 1    
    82   40   41 2    
    83   40   42 1    
    84   42   43 1    
    85   42   44 1    
    86   42  165 1    
    87   43  166 1    
    88   43  167 1    
    89   43  168 1    
    90   44   45 am   BACKBONE|DICT|INTERRES
    91   44  169 1    
    92   45   46 2    
    93   45   47 1    
    94   47   48 1    
    95   47   49 1    
    96   47  170 1    
    97   48  171 1    
    98   48  172 1    
    99   48  173 1    
   100   49   50 am   BACKBONE|DICT|INTERRES
   101   49  174 1    
   102   50   51 2    
   103   50   52 1    
   104   52   53 1    
   105   52   54 1    
   106   52  175 1    
   107   53  176 1    
   108   53  177 1    
   109   53  178 1    
   110   54   55 am   BACKBONE|DICT|INTERRES
   111   54  179 1    
   112   55   56 2    
   113   55   57 1    
   114   57   58 1    
   115   57   59 1    
   116   57  180 1    
   117   58  181 1    
   118   58  182 1    
   119   58  183 1    
   120   59   60 am   BACKBONE|DICT|INTERRES
   121   59  184 1    
   122   60   61 2    
   123   60   62 1    
   124   62   63 1    
   125   62   64 1    
   126   62  185 1    
   127   63  186 1    
   128   63  187 1    
   129   63  188 1    
   130   64   65 am   BACKBONE|DICT|INTERRES
   131   64  189 1    
   132   65   66 2    
   133   67   68 2    
   134   67   69 am   BACKBONE|DICT|INTERRES
   135   69   70 1    
   136   69  190 1    
   137   70   71 1    
   138   70   72 1    
   139   70  191 1    
   140   71  192 1    
   141   71  193 1    
   142   71  194 1    
   143   72   73 2    
   144   72   74 am   BACKBONE|DICT|INTERRES
   145   74   75 1    
   146   74  195 1    
   147   75   76 1    
   148   75   77 1    
   149   75  196 1    
   150   76  197 1    
   151   76  198 1    
   152   76  199 1    
   153   77   78 2    
   154   77   79 am   BACKBONE|DICT|INTERRES
   155   79   80 1    
   156   79  200 1    
   157   80   81 1    
   158   80   82 1    
   159   80  201 1    
   160   81  202 1    
   161   81  203 1    
   162   81  204 1    
   163   82   83 2    
   164   82   84 am   BACKBONE|DICT|INTERRES
   165   84   85 1    
   166   84  205 1    
   167   85   86 1    
   168   85   87 1    
   169   85  206 1    
   170   86  207 1    
   171   86  208 1    
   172   86  209 1    
   173   87   88 2    
   174   87   89 am   BACKBONE|DICT|INTERRES
   175   89   90 1    
   176   89  210 1    
   177   90   91 1    
   178   90   92 1    
   179   90  211 1    
   180   91  212 1    
   181   91  213 1    
   182   91  214 1    
   183   92   93 2    
   184   92   94 am   BACKBONE|DICT|INTERRES
   185   94   95 1    
   186   94  215 1    
   187   95   96 1    
   188   95   97 1    
   189   95  216 1    
   190   96  217 1    
   191   96  218 1    
   192   96  219 1    
   193   97   98 2    
   194   97   99 am   BACKBONE|DICT|INTERRES
   195   99  100 1    
   196   99  220 1    
   197  100  101 1    
   198  100  102 1    
   199  100  221 1    
   200  101  222 1    
   201  101  223 1    
   202  101  224 1    
   203  102  103 2    
   204  102  104 am   BACKBONE|DICT|INTERRES
   205  104  105 1    
   206  104  225 1    
   207  105  106 1    
   208  105  107 1    
   209  105  226 1    
   210  106  227 1    
   211  106  228 1    
   212  106  229 1    
   213  107  108 2    
   214  107  109 am   BACKBONE|DICT|INTERRES
   215  109  110 1    
   216  109  230 1    
   217  110  111 1    
   218  110  112 1    
   219  110  231 1    
   220  111  232 1    
   221  111  233 1    
   222  111  234 1    
   223  112  113 2    
   224  112  114 am   BACKBONE|DICT|INTERRES
   225  114  115 1    
   226  114  235 1    
   227  115  116 1    
   228  115  117 1    
   229  115  236 1    
   230  116  237 1    
   231  116  238 1    
   232  116  239 1    
   233  117  118 2    
   234  117  119 am   BACKBONE|DICT|INTERRES
   235  119  120 1    
   236  119  240 1    
   237  120  121 1    
   238  120  124 1    
   239  120  241 1    
   240  121  122 am   BACKBONE|DICT|INTERRES
   241  121  123 2    
   242  122  242 1    
   243  122  243 1    
   244  124  125 1    
   245  124  244 1    
   246  124  245 1    
   247  125  126 1    
   248  126  246 1    
   249  126  247 1    
@<TRIPOS>SUBSTRUCTURE
     1 UNK         1 GROUP             0       ****    0 ROOT    
