@<TRIPOS>MOLECULE
3R540
247   249    1
SMALL
USER_CHARGES


@<TRIPOS>ATOM
      1 CA          3.5653  -11.9556  -51.8295 C.3       0 UNK        -0.1800 
      2 C           3.2225  -13.0611  -50.8418 C.2       0 UNK         0.5000 
      3 O           2.0621  -13.4607  -50.7525 O.2       0 UNK        -0.5000 
      4 N           4.2237  -13.5420  -50.0916 N.am      1 UNK        -0.5000 
      5 CA          4.1902  -14.6349  -49.1014 C.3       1 UNK         0.1400 
      6 C6          3.6741  -15.9876  -49.6523 C.3       23 UNK        -0.0398 
      7 S7          4.5522  -16.5591  -51.1494 S.3       23 UNK        -0.2404 
      8 C8          3.1914  -16.6499  -52.3638 C.3       23 UNK        -0.0205 
      9 C9          2.0435  -17.5311  -51.8860 C.ar      23 UNK        -0.0193 
     10 C10         0.7580  -17.0004  -51.7390 C.ar      23 UNK        -0.1150 
     11 C11        -0.2904  -17.7928  -51.2593 C.ar      23 UNK        -0.0193 
     12 C12        -0.0397  -19.1248  -50.9138 C.ar      23 UNK        -0.1150 
     13 C13         1.2434  -19.6630  -51.0501 C.ar      23 UNK        -0.0193 
     14 C14         2.2733  -18.8686  -51.5575 C.ar      23 UNK        -0.1150 
     15 C15         1.5301  -21.0988  -50.6469 C.3       23 UNK        -0.0205 
     16 S16         2.5917  -21.1955  -49.1655 S.3       23 UNK        -0.2404 
     17 C17         1.4786  -20.6421  -47.8252 C.3       23 UNK        -0.0398 
     18 CA          0.7882  -21.8392  -47.1270 C.3       11 UNK         0.1400 
     19 N           0.4669  -21.5860  -45.7200 N.am      11 UNK        -0.5000 
     20 C           0.0625  -22.5428  -44.8695 C.2       10 UNK         0.5000 
     21 O          -0.0434  -23.7312  -45.1743 O.2       10 UNK        -0.5000 
     22 CA         -0.3377  -22.0978  -43.4540 C.3       10 UNK         0.1400 
     23 CB          0.9061  -21.8261  -42.5948 C.3       10 UNK        -0.1800 
     24 N          -1.2119  -20.9255  -43.4605 N.am      10 UNK        -0.5000 
     25 C          -2.4303  -20.8932  -44.0204 C.2       9 UNK         0.5000 
     26 O          -2.9626  -21.8640  -44.5586 O.2       9 UNK        -0.5000 
     27 CA         -3.1681  -19.5433  -44.0102 C.3       9 UNK         0.1400 
     28 CB         -3.8447  -19.3079  -42.6519 C.3       9 UNK        -0.1800 
     29 N          -2.3043  -18.4081  -44.3341 N.am      9 UNK        -0.5000 
     30 C          -1.6306  -18.2565  -45.4848 C.2       8 UNK         0.5000 
     31 O          -1.6367  -19.0776  -46.4009 O.2       8 UNK        -0.5000 
     32 CA         -0.7372  -17.0084  -45.5950 C.3       8 UNK         0.1400 
     33 CB         -1.5817  -15.7303  -45.7070 C.3       8 UNK        -0.1800 
     34 N           0.1736  -16.8909  -44.4575 N.am      8 UNK        -0.5000 
     35 C           1.0997  -17.8006  -44.1205 C.2       7 UNK         0.5000 
     36 O           1.3412  -18.8181  -44.7724 O.2       7 UNK        -0.5000 
     37 CA          1.8410  -17.5528  -42.7961 C.3       7 UNK         0.1400 
     38 CB          2.9809  -16.5387  -42.9838 C.3       7 UNK        -0.1800 
     39 N           0.9353  -17.0924  -41.7411 N.am      7 UNK        -0.5000 
     40 C          -0.0240  -17.8476  -41.1849 C.2       6 UNK         0.5000 
     41 O          -0.2309  -19.0217  -41.4857 O.2       6 UNK        -0.5000 
     42 CA         -0.9306  -17.1656  -40.1450 C.3       6 UNK         0.1400 
     43 CB         -0.2538  -17.1431  -38.7664 C.3       6 UNK        -0.1800 
     44 N          -1.2957  -15.8028  -40.5292 N.am      6 UNK        -0.5000 
     45 C          -2.0577  -15.4898  -41.5870 C.2       5 UNK         0.5000 
     46 O          -2.5756  -16.3236  -42.3280 O.2       5 UNK        -0.5000 
     47 CA         -2.2216  -13.9906  -41.8973 C.3       5 UNK         0.1400 
     48 CB         -3.4179  -13.4067  -41.1317 C.3       5 UNK        -0.1800 
     49 N          -1.0176  -13.2124  -41.5903 N.am      5 UNK        -0.5000 
     50 C           0.1595  -13.3777  -42.2053 C.2       4 UNK         0.5000 
     51 O           0.3533  -14.2008  -43.1069 O.2       4 UNK        -0.5000 
     52 CA          1.3243  -12.5174  -41.7007 C.3       4 UNK         0.1400 
     53 CB          2.0147  -13.1779  -40.4959 C.3       4 UNK        -0.1800 
     54 N           2.2702  -12.3905  -42.7962 N.am      4 UNK        -0.5000 
     55 C           3.0283  -11.3275  -43.0801 C.2       3 UNK         0.5000 
     56 O           3.1331  -10.3415  -42.3496 O.2       3 UNK        -0.5000 
     57 CA          3.7760  -11.3680  -44.4285 C.3       3 UNK         0.1400 
     58 CB          5.2280  -11.8273  -44.2276 C.3       3 UNK        -0.1800 
     59 N           3.1300  -12.2529  -45.4023 N.am      3 UNK        -0.5000 
     60 C           1.9498  -12.0275  -45.9929 C.2       2 UNK         0.5000 
     61 O           1.3179  -10.9777  -45.8627 O.2       2 UNK        -0.5000 
     62 CA          1.3888  -13.1774  -46.8567 C.3       2 UNK         0.1400 
     63 CB          0.0251  -12.8390  -47.4863 C.3       2 UNK        -0.1800 
     64 N           2.2986  -13.5842  -47.9256 N.am      2 UNK        -0.5000 
     65 C           3.4313  -14.2846  -47.8029 C.2       1 UNK         0.5000 
     66 O           3.8837  -14.6546  -46.7181 O.2       1 UNK        -0.5000 
     67 C          -0.4506  -22.3050  -47.9124 C.2       11 UNK         0.5000 
     68 O          -0.3696  -23.3048  -48.6238 O.2       11 UNK        -0.5000 
     69 N          -1.5763  -21.5999  -47.7393 N.am      12 UNK        -0.5000 
     70 CA         -2.8612  -21.9015  -48.3664 C.3       12 UNK         0.1400 
     71 CB         -3.8896  -20.8434  -47.9418 C.3       12 UNK        -0.1800 
     72 C          -3.3702  -23.3202  -48.0619 C.2       12 UNK         0.5000 
     73 O          -3.7838  -24.0240  -48.9836 O.2       12 UNK        -0.5000 
     74 N          -3.2910  -23.7249  -46.7872 N.am      13 UNK        -0.5000 
     75 CA         -3.6492  -25.0633  -46.3220 C.3       13 UNK         0.1400 
     76 CB         -3.6819  -25.0758  -44.7862 C.3       13 UNK        -0.1800 
     77 C          -2.7065  -26.1599  -46.8511 C.2       13 UNK         0.5000 
     78 O          -3.1794  -27.2411  -47.2038 O.2       13 UNK        -0.5000 
     79 N          -1.3983  -25.8713  -46.8887 N.am      14 UNK        -0.5000 
     80 CA         -0.3660  -26.8005  -47.3454 C.3       14 UNK         0.1400 
     81 CB          1.0137  -26.3054  -46.8838 C.3       14 UNK        -0.1800 
     82 C          -0.3828  -27.0152  -48.8686 C.2       14 UNK         0.5000 
     83 O          -0.3243  -28.1599  -49.3202 O.2       14 UNK        -0.5000 
     84 N          -0.4358  -25.9155  -49.6301 N.am      15 UNK        -0.5000 
     85 CA         -0.3599  -25.9232  -51.0893 C.3       15 UNK         0.1400 
     86 CB          0.0878  -24.5384  -51.5808 C.3       15 UNK        -0.1800 
     87 C          -1.6825  -26.3340  -51.7559 C.2       15 UNK         0.5000 
     88 O          -1.6497  -27.0725  -52.7418 O.2       15 UNK        -0.5000 
     89 N          -2.8094  -25.8497  -51.2097 N.am      16 UNK        -0.5000 
     90 CA         -4.1723  -25.9919  -51.7339 C.3       16 UNK         0.1400 
     91 CB         -4.6389  -27.4608  -51.6328 C.3       16 UNK        -0.1800 
     92 C          -4.3349  -25.3881  -53.1506 C.2       16 UNK         0.5000 
     93 O          -3.5402  -24.5337  -53.5495 O.2       16 UNK        -0.5000 
     94 N          -5.3752  -25.8190  -53.8800 N.am      17 UNK        -0.5000 
     95 CA         -5.7100  -25.4192  -55.2529 C.3       17 UNK         0.1400 
     96 CB         -4.7057  -26.0489  -56.2450 C.3       17 UNK        -0.1800 
     97 C          -5.8647  -23.8877  -55.3969 C.2       17 UNK         0.5000 
     98 O          -6.5794  -23.2802  -54.5991 O.2       17 UNK        -0.5000 
     99 N          -5.1906  -23.2809  -56.3831 N.am      18 UNK        -0.5000 
    100 CA        -5.1909  -21.8360  -56.6285 C.3       18 UNK         0.1400 
    101 CB        -4.5277  -21.5590  -57.9861 C.3       18 UNK        -0.1800 
    102 C         -4.5025  -21.0190  -55.5163 C.2       18 UNK         0.5000 
    103 O         -4.8603  -19.8593  -55.3087 O.2       18 UNK        -0.5000 
    104 N         -3.5488  -21.6355  -54.8035 N.am      19 UNK        -0.5000 
    105 CA        -2.8287  -21.0270  -53.6833 C.3       19 UNK         0.1400 
    106 CB        -1.5025  -21.7702  -53.4643 C.3       19 UNK        -0.1800 
    107 C         -3.6593  -20.9715  -52.3866 C.2       19 UNK         0.5000 
    108 O         -3.2631  -20.2733  -51.4558 O.2       19 UNK        -0.5000 
    109 N         -4.8112  -21.6597  -52.3437 N.am      20 UNK        -0.5000 
    110 CA        -5.7488  -21.6339  -51.2176 C.3       20 UNK         0.1400 
    111 CB        -6.8188  -22.7174  -51.4128 C.3       20 UNK        -0.1800 
    112 C         -6.4223  -20.2617  -51.0003 C.2       20 UNK         0.5000 
    113 O         -6.9605  -20.0184  -49.9197 O.2       20 UNK        -0.5000 
    114 N         -6.3874  -19.3975  -52.0258 N.am      21 UNK        -0.5000 
    115 CA        -7.0427  -18.0902  -52.0911 C.3       21 UNK         0.1400 
    116 CB        -6.7471  -17.4606  -53.4609 C.3       21 UNK        -0.1800 
    117 C         -6.6786  -17.1071  -50.9609 C.2       21 UNK         0.5000 
    118 O         -7.5214  -16.2830  -50.6026 O.2       21 UNK        -0.5000 
    119 N         -5.4576  -17.2069  -50.4166 N.am      22 UNK        -0.5000 
    120 CA        -5.0071  -16.4137  -49.2598 C.3       22 UNK         0.1400 
    121 C         -5.3021  -17.0636  -47.8739 C.2       22 UNK         0.5000 
    122 N         -5.9758  -18.2059  -47.7968 N.am      22 UNK        -0.7600 
    123 O         -4.9472  -16.5009  -46.8422 O.2       22 UNK        -0.5000 
    124 C124       -3.5486  -15.9116  -49.4203 C.3       23 UNK        -0.0398 
    125 S125       -2.2576  -17.2042  -49.3905 S.3       23 UNK        -0.2404 
    126 C126       -1.6889  -17.2058  -51.1206 C.3       23 UNK        -0.0205 
    127 H127        2.9865  -11.0597  -51.6052 H         1 UNK         0.0600 
    128 H128        4.6234  -11.6950  -51.7966 H         1 UNK         0.0600 
    129 H129        3.3248  -12.2735  -52.8439 H         1 UNK         0.0600 
    130 H130        5.1393  -13.1328  -50.2152 H         1 UNK         0.3000 
    131 H131        5.2313  -14.7831  -48.8101 H         1 UNK         0.0600 
    132 H132        3.7871  -16.7691  -48.8984 H         1 UNK         0.0800 
    133 H133        2.6037  -15.9229  -49.8474 H         1 UNK         0.0800 
    134 H134        2.8412  -15.6388  -52.5766 H         1 UNK         0.0800 
    135 H135        3.5785  -17.0470  -53.3029 H         1 UNK         0.0800 
    136 H136        0.5772  -15.9639  -51.9884 H         1 UNK         0.1150 
    137 H137       -0.8443  -19.7345  -50.5264 H         1 UNK         0.1150 
    138 H138        3.2669  -19.2822  -51.6598 H         1 UNK         0.1150 
    139 H139        0.6032  -21.6478  -50.4856 H         1 UNK         0.0800 
    140 H140        2.0359  -21.6024  -51.4718 H         1 UNK         0.0800 
    141 H141        0.7614  -19.9036  -48.1890 H         1 UNK         0.0800 
    142 H142        2.1050  -20.1100  -47.1082 H         1 UNK         0.0800 
    143 H143        1.4934  -22.6737  -47.1201 H         1 UNK         0.0600 
    144 H144        0.5309  -20.6261  -45.3962 H         1 UNK         0.3000 
    145 H145       -0.8913  -22.9194  -42.9947 H         1 UNK         0.0600 
    146 H146        0.6323  -21.6282  -41.5585 H         1 UNK         0.0600 
    147 H147        1.5766  -22.6864  -42.5936 H         1 UNK         0.0600 
    148 H148        1.4709  -20.9687  -42.9617 H         1 UNK         0.0600 
    149 H149       -0.8622  -20.0968  -42.9885 H         1 UNK         0.3000 
    150 H150       -3.9485  -19.5849  -44.7719 H         1 UNK         0.0600 
    151 H151       -4.5020  -20.1388  -42.3925 H         1 UNK         0.0600 
    152 H152       -4.4541  -18.4042  -42.6675 H         1 UNK         0.0600 
    153 H153       -3.1123  -19.2039  -41.8507 H         1 UNK         0.0600 
    154 H154       -2.2500  -17.6730  -43.6339 H         1 UNK         0.3000 
    155 H155       -0.1319  -17.1005  -46.4994 H         1 UNK         0.0600 
    156 H156       -0.9564  -14.8402  -45.7224 H         1 UNK         0.0600 
    157 H157       -2.2800  -15.6258  -44.8775 H         1 UNK         0.0600 
    158 H158       -2.1691  -15.7370  -46.6240 H         1 UNK         0.0600 
    159 H159        0.0687  -16.0691  -43.8721 H         1 UNK         0.3000 
    160 H160        2.2794  -18.5004  -42.4762 H         1 UNK         0.0600 
    161 H161        2.6140  -15.5669  -43.3133 H         1 UNK         0.0600 
    162 H162        3.6904  -16.8882  -43.7349 H         1 UNK         0.0600 
    163 H163        3.5353  -16.3913  -42.0570 H         1 UNK         0.0600 
    164 H164        1.0045  -16.1227  -41.4738 H         1 UNK         0.3000 
    165 H165       -1.8479  -17.7529  -40.0660 H         1 UNK         0.0600 
    166 H166        0.6581  -16.5446  -38.7728 H         1 UNK         0.0600 
    167 H167       -0.9197  -16.7326  -38.0072 H         1 UNK         0.0600 
    168 H168        0.0169  -18.1510  -38.4489 H         1 UNK         0.0600 
    169 H169       -0.9156  -15.0526  -39.9717 H         1 UNK         0.3000 
    170 H170       -2.4205  -13.8949  -42.9669 H         1 UNK         0.0600 
    171 H171       -4.3319  -13.9575  -41.3582 H         1 UNK         0.0600 
    172 H172       -3.2672  -13.4503  -40.0523 H         1 UNK         0.0600 
    173 H173       -3.5914  -12.3659  -41.4054 H         1 UNK         0.0600 
    174 H174       -1.1009  -12.5206  -40.8590 H         1 UNK         0.3000 
    175 H175        0.9415  -11.5336  -41.4209 H         1 UNK         0.0600 
    176 H176        2.8490  -12.5721  -40.1418 H         1 UNK         0.0600 
    177 H177        1.3228  -13.2958  -39.6613 H         1 UNK         0.0600 
    178 H178        2.4038  -14.1658  -40.7458 H         1 UNK         0.0600 
    179 H179        2.2022  -13.1337  -43.4792 H         1 UNK         0.3000 
    180 H180        3.7856  -10.3549  -44.8358 H         1 UNK         0.0600 
    181 H181        5.2772  -12.8437  -43.8345 H         1 UNK         0.0600 
    182 H182        5.7502  -11.1767  -43.5248 H         1 UNK         0.0600 
    183 H183        5.7825  -11.8033  -45.1659 H         1 UNK         0.0600 
    184 H184        3.5941  -13.1338  -45.6076 H         1 UNK         0.3000 
    185 H185        1.2465  -14.0303  -46.1899 H         1 UNK         0.0600 
    186 H186       -0.3826  -13.6943  -48.0262 H         1 UNK         0.0600 
    187 H187       -0.7035  -12.5612  -46.7236 H         1 UNK         0.0600 
    188 H188        0.1022  -12.0073  -48.1876 H         1 UNK         0.0600 
    189 H189        2.0151  -13.3463  -48.8724 H         1 UNK         0.3000 
    190 H190       -1.5535  -20.7695  -47.1498 H         1 UNK         0.3000 
    191 H191       -2.7198  -21.8356  -49.4456 H         1 UNK         0.0600 
    192 H192       -3.6451  -19.8720  -48.3720 H         1 UNK         0.0600 
    193 H193       -3.9235  -20.7293  -46.8598 H         1 UNK         0.0600 
    194 H194       -4.8980  -21.1000  -48.2622 H         1 UNK         0.0600 
    195 H195       -2.9731  -23.0670  -46.0802 H         1 UNK         0.3000 
    196 H196       -4.6546  -25.2866  -46.6850 H         1 UNK         0.0600 
    197 H197       -3.9553  -26.0614  -44.4075 H         1 UNK         0.0600 
    198 H198       -4.4138  -24.3649  -44.4025 H         1 UNK         0.0600 
    199 H199       -2.7109  -24.8163  -44.3621 H         1 UNK         0.0600 
    200 H200       -1.0813  -24.9683  -46.5531 H         1 UNK         0.3000 
    201 H201       -0.5468  -27.7682  -46.8724 H         1 UNK         0.0600 
    202 H202        1.0673  -26.2491  -45.7965 H         1 UNK         0.0600 
    203 H203        1.2408  -25.3152  -47.2807 H         1 UNK         0.0600 
    204 H204        1.8034  -26.9816  -47.2135 H         1 UNK         0.0600 
    205 H205       -0.4703  -25.0004  -49.1816 H         1 UNK         0.3000 
    206 H206        0.4028  -26.6442  -51.3917 H         1 UNK         0.0600 
    207 H207       -0.6237  -23.7643  -51.2921 H         1 UNK         0.0600 
    208 H208        1.0600  -24.2686  -51.1680 H         1 UNK         0.0600 
    209 H209        0.1763  -24.5177  -52.6677 H         1 UNK         0.0600 
    210 H210       -2.7313  -25.2419  -50.4026 H         1 UNK         0.3000 
    211 H211       -4.8060  -25.3992  -51.0746 H         1 UNK         0.0600 
    212 H212       -4.1384  -28.0974  -52.3633 H         1 UNK         0.0600 
    213 H213       -5.7131  -27.5509  -51.7954 H         1 UNK         0.0600 
    214 H214       -4.4343  -27.8679  -50.6422 H         1 UNK         0.0600 
    215 H215       -6.0030  -26.4896  -53.4608 H         1 UNK         0.3000 
    216 H216       -6.6931  -25.8409  -55.4661 H         1 UNK         0.0600 
    217 H217       -4.6600  -27.1302  -56.1151 H         1 UNK         0.0600 
    218 H218       -3.6955  -25.6608  -56.1080 H         1 UNK         0.0600 
    219 H219       -5.0001  -25.8674  -57.2794 H         1 UNK         0.0600 
    220 H220       -4.6151  -23.8440  -56.9923 H         1 UNK         0.3000 
    221 H221       -6.2297  -21.5033  -56.6824 H         1 UNK         0.0600 
    222 H222       -3.4888  -21.8909  -58.0018 H         1 UNK         0.0600 
    223 H223       -5.0555  -22.0656  -58.7943 H         1 UNK         0.0600 
    224 H224       -4.5349  -20.4922  -58.2139 H         1 UNK         0.0600 
    225 H225       -3.3566  -22.6126  -54.9819 H         1 UNK         0.3000 
    226 H226       -2.5871  -19.9950  -53.9468 H         1 UNK         0.0600 
    227 H227       -0.8723  -21.7226  -54.3522 H         1 UNK         0.0600 
    228 H228       -0.9370  -21.3317  -52.6421 H         1 UNK         0.0600 
    229 H229       -1.6651  -22.8194  -53.2254 H         1 UNK         0.0600 
    230 H230       -5.0796  -22.2122  -53.1480 H         1 UNK         0.3000 
    231 H231       -5.1843  -21.8832  -50.3211 H         1 UNK         0.0600 
    232 H232       -7.4426  -22.8106  -50.5230 H         1 UNK         0.0600 
    233 H233       -6.3732  -23.6929  -51.5989 H         1 UNK         0.0600 
    234 H234       -7.4786  -22.4838  -52.2488 H         1 UNK         0.0600 
    235 H235       -5.9090  -19.6924  -52.8656 H         1 UNK         0.3000 
    236 H236       -8.1175  -18.2696  -52.0246 H         1 UNK         0.0600 
    237 H237       -7.2390  -16.4923  -53.5634 H         1 UNK         0.0600 
    238 H238       -5.6775  -17.3042  -53.6073 H         1 UNK         0.0600 
    239 H239       -7.1060  -18.0936  -54.2728 H         1 UNK         0.0600 
    240 H240       -4.8297  -17.9311  -50.7365 H         1 UNK         0.3000 
    241 H241       -5.6052  -15.5010  -49.2366 H         1 UNK         0.0600 
    242 H242       -6.2992  -18.6909  -48.6273 H         1 UNK         0.3800 
    243 H243       -6.1728  -18.5935  -46.8896 H         1 UNK         0.3800 
    244 H244       -3.4710  -15.3379  -50.3441 H         1 UNK         0.0800 
    245 H245       -3.3173  -15.1965  -48.6300 H         1 UNK         0.0800 
    246 H246       -2.3874  -17.7774  -51.7319 H         1 UNK         0.0800 
    247 H247       -1.7010  -16.1870  -51.5095 H         1 UNK         0.0800 
@<TRIPOS>BOND
     1    1    2 1    
     2    1  127 1    
     3    1  128 1    
     4    1  129 1    
     5    2    3 2    
     6    2    4 am   BACKBONE|DICT|INTERRES
     7    4    5 1    
     8    4  130 1    
     9    5    6 1    
    10    5   65 1    
    11    5  131 1    
    12    6    7 1    
    13    6  132 1    
    14    6  133 1    
    15    7    8 1    
    16    8    9 1    
    17    8  134 1    
    18    8  135 1    
    19    9   10 ar   
    20    9   14 ar   
    21   10   11 ar   
    22   10  136 1    
    23   11   12 ar   
    24   11  126 1    
    25   12   13 ar   
    26   12  137 1    
    27   13   14 ar   
    28   13   15 1    
    29   14  138 1    
    30   15   16 1    
    31   15  139 1    
    32   15  140 1    
    33   16   17 1    
    34   17   18 1    
    35   17  141 1    
    36   17  142 1    
    37   18   19 1    
    38   18   67 1    
    39   18  143 1    
    40   19   20 am   BACKBONE|DICT|INTERRES
    41   19  144 1    
    42   20   21 2    
    43   20   22 1    
    44   22   23 1    
    45   22   24 1    
    46   22  145 1    
    47   23  146 1    
    48   23  147 1    
    49   23  148 1    
    50   24   25 am   BACKBONE|DICT|INTERRES
    51   24  149 1    
    52   25   26 2    
    53   25   27 1    
    54   27   28 1    
    55   27   29 1    
    56   27  150 1    
    57   28  151 1    
    58   28  152 1    
    59   28  153 1    
    60   29   30 am   BACKBONE|DICT|INTERRES
    61   29  154 1    
    62   30   31 2    
    63   30   32 1    
    64   32   33 1    
    65   32   34 1    
    66   32  155 1    
    67   33  156 1    
    68   33  157 1    
    69   33  158 1    
    70   34   35 am   BACKBONE|DICT|INTERRES
    71   34  159 1    
    72   35   36 2    
    73   35   37 1    
    74   37   38 1    
    75   37   39 1    
    76   37  160 1    
    77   38  161 1    
    78   38  162 1    
    79   38  163 1    
    80   39   40 am   BACKBONE|DICT|INTERRES
    81   39  164 1    
    82   40   41 2    
    83   40   42 1    
    84   42   43 1    
    85   42   44 1    
    86   42  165 1    
    87   43  166 1    
    88   43  167 1    
    89   43  168 1    
    90   44   45 am   BACKBONE|DICT|INTERRES
    91   44  169 1    
    92   45   46 2    
    93   45   47 1    
    94   47   48 1    
    95   47   49 1    
    96   47  170 1    
    97   48  171 1    
    98   48  172 1    
    99   48  173 1    
   100   49   50 am   BACKBONE|DICT|INTERRES
   101   49  174 1    
   102   50   51 2    
   103   50   52 1    
   104   52   53 1    
   105   52   54 1    
   106   52  175 1    
   107   53  176 1    
   108   53  177 1    
   109   53  178 1    
   110   54   55 am   BACKBONE|DICT|INTERRES
   111   54  179 1    
   112   55   56 2    
   113   55   57 1    
   114   57   58 1    
   115   57   59 1    
   116   57  180 1    
   117   58  181 1    
   118   58  182 1    
   119   58  183 1    
   120   59   60 am   BACKBONE|DICT|INTERRES
   121   59  184 1    
   122   60   61 2    
   123   60   62 1    
   124   62   63 1    
   125   62   64 1    
   126   62  185 1    
   127   63  186 1    
   128   63  187 1    
   129   63  188 1    
   130   64   65 am   BACKBONE|DICT|INTERRES
   131   64  189 1    
   132   65   66 2    
   133   67   68 2    
   134   67   69 am   BACKBONE|DICT|INTERRES
   135   69   70 1    
   136   69  190 1    
   137   70   71 1    
   138   70   72 1    
   139   70  191 1    
   140   71  192 1    
   141   71  193 1    
   142   71  194 1    
   143   72   73 2    
   144   72   74 am   BACKBONE|DICT|INTERRES
   145   74   75 1    
   146   74  195 1    
   147   75   76 1    
   148   75   77 1    
   149   75  196 1    
   150   76  197 1    
   151   76  198 1    
   152   76  199 1    
   153   77   78 2    
   154   77   79 am   BACKBONE|DICT|INTERRES
   155   79   80 1    
   156   79  200 1    
   157   80   81 1    
   158   80   82 1    
   159   80  201 1    
   160   81  202 1    
   161   81  203 1    
   162   81  204 1    
   163   82   83 2    
   164   82   84 am   BACKBONE|DICT|INTERRES
   165   84   85 1    
   166   84  205 1    
   167   85   86 1    
   168   85   87 1    
   169   85  206 1    
   170   86  207 1    
   171   86  208 1    
   172   86  209 1    
   173   87   88 2    
   174   87   89 am   BACKBONE|DICT|INTERRES
   175   89   90 1    
   176   89  210 1    
   177   90   91 1    
   178   90   92 1    
   179   90  211 1    
   180   91  212 1    
   181   91  213 1    
   182   91  214 1    
   183   92   93 2    
   184   92   94 am   BACKBONE|DICT|INTERRES
   185   94   95 1    
   186   94  215 1    
   187   95   96 1    
   188   95   97 1    
   189   95  216 1    
   190   96  217 1    
   191   96  218 1    
   192   96  219 1    
   193   97   98 2    
   194   97   99 am   BACKBONE|DICT|INTERRES
   195   99  100 1    
   196   99  220 1    
   197  100  101 1    
   198  100  102 1    
   199  100  221 1    
   200  101  222 1    
   201  101  223 1    
   202  101  224 1    
   203  102  103 2    
   204  102  104 am   BACKBONE|DICT|INTERRES
   205  104  105 1    
   206  104  225 1    
   207  105  106 1    
   208  105  107 1    
   209  105  226 1    
   210  106  227 1    
   211  106  228 1    
   212  106  229 1    
   213  107  108 2    
   214  107  109 am   BACKBONE|DICT|INTERRES
   215  109  110 1    
   216  109  230 1    
   217  110  111 1    
   218  110  112 1    
   219  110  231 1    
   220  111  232 1    
   221  111  233 1    
   222  111  234 1    
   223  112  113 2    
   224  112  114 am   BACKBONE|DICT|INTERRES
   225  114  115 1    
   226  114  235 1    
   227  115  116 1    
   228  115  117 1    
   229  115  236 1    
   230  116  237 1    
   231  116  238 1    
   232  116  239 1    
   233  117  118 2    
   234  117  119 am   BACKBONE|DICT|INTERRES
   235  119  120 1    
   236  119  240 1    
   237  120  121 1    
   238  120  124 1    
   239  120  241 1    
   240  121  122 am   BACKBONE|DICT|INTERRES
   241  121  123 2    
   242  122  242 1    
   243  122  243 1    
   244  124  125 1    
   245  124  244 1    
   246  124  245 1    
   247  125  126 1    
   248  126  246 1    
   249  126  247 1    
@<TRIPOS>SUBSTRUCTURE
     1 UNK         1 GROUP             0       ****    0 ROOT    
