@<TRIPOS>MOLECULE
3R540
247   249    1
SMALL
USER_CHARGES


@<TRIPOS>ATOM
      1 CA          3.4907  -10.9424  -48.4619 C.3       0 UNK        -0.1800 
      2 C           4.4562  -12.1186  -48.4881 C.2       0 UNK         0.5000 
      3 O           5.6362  -11.9512  -48.1798 O.2       0 UNK        -0.5000 
      4 N           3.9594  -13.3074  -48.8531 N.am      1 UNK        -0.5000 
      5 CA          4.7320  -14.5563  -48.9329 C.3       1 UNK         0.1400 
      6 C6          3.9911  -15.6424  -49.7485 C.3       23 UNK        -0.0398 
      7 S7          3.6166  -15.1184  -51.4564 S.3       23 UNK        -0.2404 
      8 C8          3.8766  -16.6701  -52.3750 C.3       23 UNK        -0.0205 
      9 C9          2.9406  -17.7716  -51.8989 C.ar      23 UNK        -0.0193 
     10 C10         1.5748  -17.7047  -52.1899 C.ar      23 UNK        -0.1150 
     11 C11         0.7032  -18.6959  -51.7318 C.ar      23 UNK        -0.0193 
     12 C12         1.2098  -19.7659  -50.9910 C.ar      23 UNK        -0.1150 
     13 C13         2.5728  -19.8481  -50.6974 C.ar      23 UNK        -0.0193 
     14 C14         3.4351  -18.8489  -51.1564 C.ar      23 UNK        -0.1150 
     15 C15         3.1098  -21.0221  -49.8934 C.3       23 UNK        -0.0205 
     16 S16         3.4312  -20.5987  -48.1488 S.3       23 UNK        -0.2404 
     17 C17         1.7961  -20.0779  -47.5250 C.3       23 UNK        -0.0398 
     18 CA          0.9446  -21.2477  -46.9683 C.3       11 UNK         0.1400 
     19 N           0.0849  -20.8272  -45.8595 N.am      11 UNK        -0.5000 
     20 C          -0.5694  -21.6605  -45.0368 C.2       10 UNK         0.5000 
     21 O          -0.4620  -22.8854  -45.0757 O.2       10 UNK        -0.5000 
     22 CA         -1.5497  -21.0117  -44.0399 C.3       10 UNK         0.1400 
     23 CB         -0.8395  -20.6555  -42.7274 C.3       10 UNK        -0.1800 
     24 N          -2.1862  -19.8157  -44.5976 N.am      10 UNK        -0.5000 
     25 C          -3.0549  -19.8493  -45.6189 C.2       9 UNK         0.5000 
     26 O          -3.4681  -20.8917  -46.1262 O.2       9 UNK        -0.5000 
     27 CA         -3.4737  -18.4957  -46.2127 C.3       9 UNK         0.1400 
     28 CB         -4.6035  -17.8626  -45.3875 C.3       9 UNK        -0.1800 
     29 N          -2.3470  -17.5671  -46.2822 N.am      9 UNK        -0.5000 
     30 C          -1.3218  -17.6471  -47.1412 C.2       8 UNK         0.5000 
     31 O          -1.2295  -18.5363  -47.9856 O.2       8 UNK        -0.5000 
     32 CA         -0.1698  -16.6233  -47.0052 C.3       8 UNK         0.1400 
     33 CB          0.0345  -15.8135  -48.3002 C.3       8 UNK        -0.1800 
     34 N          -0.2694  -15.7538  -45.8242 N.am      8 UNK        -0.5000 
     35 C          -1.1844  -14.8110  -45.5523 C.2       7 UNK         0.5000 
     36 O          -2.0209  -14.4158  -46.3641 O.2       7 UNK        -0.5000 
     37 CA         -1.2076  -14.2703  -44.1052 C.3       7 UNK         0.1400 
     38 CB         -2.6416  -13.9609  -43.6296 C.3       7 UNK        -0.1800 
     39 N          -0.5314  -15.1288  -43.1220 N.am      7 UNK        -0.5000 
     40 C          -0.7997  -16.4030  -42.7909 C.2       6 UNK         0.5000 
     41 O          -1.6381  -17.1066  -43.3571 O.2       6 UNK        -0.5000 
     42 CA          0.0422  -16.9980  -41.6510 C.3       6 UNK         0.1400 
     43 CB          1.4015  -17.4763  -42.1855 C.3       6 UNK        -0.1800 
     44 N           0.2721  -16.0145  -40.5940 N.am      6 UNK        -0.5000 
     45 C          -0.4705  -15.8818  -39.4874 C.2       5 UNK         0.5000 
     46 O          -1.4071  -16.6268  -39.1970 O.2       5 UNK        -0.5000 
     47 CA         -0.1064  -14.7185  -38.5409 C.3       5 UNK         0.1400 
     48 CB          0.8874  -15.1908  -37.4687 C.3       5 UNK        -0.1800 
     49 N           0.4633  -13.5656  -39.2420 N.am      5 UNK        -0.5000 
     50 C          -0.2279  -12.7500  -40.0504 C.2       4 UNK         0.5000 
     51 O          -1.4458  -12.8261  -40.2120 O.2       4 UNK        -0.5000 
     52 CA          0.5694  -11.6820  -40.8297 C.3       4 UNK         0.1400 
     53 CB          0.4484  -10.3156  -40.1377 C.3       4 UNK        -0.1800 
     54 N           1.9924  -11.9832  -41.0393 N.am      4 UNK        -0.5000 
     55 C           2.4772  -13.0603  -41.6708 C.2       3 UNK         0.5000 
     56 O           1.7722  -13.9948  -42.0566 O.2       3 UNK        -0.5000 
     57 CA          4.0058  -13.1251  -41.8523 C.3       3 UNK         0.1400 
     58 CB          4.6765  -13.5521  -40.5370 C.3       3 UNK        -0.1800 
     59 N           4.4089  -14.0623  -42.9043 N.am      3 UNK        -0.5000 
     60 C           4.1153  -13.9390  -44.2048 C.2       2 UNK         0.5000 
     61 O           3.5135  -12.9752  -44.6892 O.2       2 UNK        -0.5000 
     62 CA          4.5699  -15.0937  -45.1115 C.3       2 UNK         0.1400 
     63 CB          3.7736  -16.3828  -44.8367 C.3       2 UNK        -0.1800 
     64 N           4.3811  -14.7003  -46.5010 N.am      2 UNK        -0.5000 
     65 C           5.1064  -15.1189  -47.5433 C.2       1 UNK         0.5000 
     66 O           6.0324  -15.9256  -47.4476 O.2       1 UNK        -0.5000 
     67 C           0.1163  -21.9411  -48.0696 C.2       11 UNK         0.5000 
     68 O           0.4963  -23.0208  -48.5179 O.2       11 UNK        -0.5000 
     69 N          -1.0263  -21.3429  -48.4444 N.am      12 UNK        -0.5000 
     70 CA         -2.0013  -21.9068  -49.3819 C.3       12 UNK         0.1400 
     71 CB         -3.1552  -20.9159  -49.6051 C.3       12 UNK        -0.1800 
     72 C          -2.5464  -23.2667  -48.9159 C.2       12 UNK         0.5000 
     73 O          -2.5942  -24.2014  -49.7135 O.2       12 UNK        -0.5000 
     74 N          -2.8938  -23.3651  -47.6248 N.am      13 UNK        -0.5000 
     75 CA         -3.3359  -24.5998  -46.9776 C.3       13 UNK         0.1400 
     76 CB         -3.8033  -24.2953  -45.5468 C.3       13 UNK        -0.1800 
     77 C          -2.2563  -25.6989  -46.9851 C.2       13 UNK         0.5000 
     78 O          -2.5682  -26.8450  -47.3084 O.2       13 UNK        -0.5000 
     79 N          -1.0038  -25.3290  -46.6782 N.am      14 UNK        -0.5000 
     80 CA          0.1618  -26.2176  -46.7254 C.3       14 UNK         0.1400 
     81 CB          1.3704  -25.5163  -46.0872 C.3       14 UNK        -0.1800 
     82 C           0.4979  -26.6973  -48.1515 C.2       14 UNK         0.5000 
     83 O           0.8691  -27.8574  -48.3322 O.2       14 UNK        -0.5000 
     84 N           0.3251  -25.8096  -49.1395 N.am      15 UNK        -0.5000 
     85 CA          0.4658  -26.0907  -50.5704 C.3       15 UNK         0.1400 
     86 CB          0.6325  -24.7576  -51.3192 C.3       15 UNK        -0.1800 
     87 C          -0.7095  -26.8991  -51.1622 C.2       15 UNK         0.5000 
     88 O          -0.6110  -27.3443  -52.3064 O.2       15 UNK        -0.5000 
     89 N          -1.7923  -27.0630  -50.3875 N.am      16 UNK        -0.5000 
     90 CA         -3.0586  -27.7161  -50.7306 C.3       16 UNK         0.1400 
     91 CB         -2.8514  -29.2164  -51.0266 C.3       16 UNK        -0.1800 
     92 C          -3.8455  -26.9778  -51.8350 C.2       16 UNK         0.5000 
     93 O          -4.5726  -27.6104  -52.6038 O.2       16 UNK        -0.5000 
     94 N          -3.7064  -25.6473  -51.8815 N.am      17 UNK        -0.5000 
     95 CA         -4.5025  -24.7561  -52.7187 C.3       17 UNK         0.1400 
     96 CB         -3.6940  -23.4805  -53.0030 C.3       17 UNK        -0.1800 
     97 C          -5.8193  -24.4138  -52.0028 C.2       17 UNK         0.5000 
     98 O          -5.8530  -24.3419  -50.7708 O.2       17 UNK        -0.5000 
     99 N          -6.8804  -24.1760  -52.7823 N.am      18 UNK        -0.5000 
    100 CA        -8.2202  -23.8365  -52.2969 C.3       18 UNK         0.1400 
    101 CB        -9.2526  -24.2098  -53.3763 C.3       18 UNK        -0.1800 
    102 C         -8.3215  -22.3621  -51.8499 C.2       18 UNK         0.5000 
    103 O         -9.0759  -21.5863  -52.4409 O.2       18 UNK        -0.5000 
    104 N         -7.5382  -22.0086  -50.8205 N.am      19 UNK        -0.5000 
    105 CA        -7.4567  -20.7107  -50.1443 C.3       19 UNK         0.1400 
    106 CB        -8.6985  -20.5035  -49.2498 C.3       19 UNK        -0.1800 
    107 C         -7.2035  -19.5532  -51.1307 C.2       19 UNK         0.5000 
    108 O         -6.0767  -19.4005  -51.6034 O.2       19 UNK        -0.5000 
    109 N         -8.2587  -18.7927  -51.4569 N.am      20 UNK        -0.5000 
    110 CA        -8.2649  -17.6748  -52.4039 C.3       20 UNK         0.1400 
    111 CB        -9.6692  -17.0533  -52.4308 C.3       20 UNK        -0.1800 
    112 C         -7.8123  -18.0431  -53.8313 C.2       20 UNK         0.5000 
    113 O         -7.3134  -17.1707  -54.5439 O.2       20 UNK        -0.5000 
    114 N         -7.9305  -19.3262  -54.2090 N.am      21 UNK        -0.5000 
    115 CA        -7.4092  -19.8851  -55.4621 C.3       21 UNK         0.1400 
    116 CB        -7.8458  -21.3517  -55.5785 C.3       21 UNK        -0.1800 
    117 C         -5.8754  -19.7745  -55.6050 C.2       21 UNK         0.5000 
    118 O         -5.3700  -19.8111  -56.7274 O.2       21 UNK        -0.5000 
    119 N         -5.1694  -19.6186  -54.4771 N.am      22 UNK        -0.5000 
    120 CA        -3.7400  -19.2870  -54.4111 C.3       22 UNK         0.1400 
    121 C         -3.4041  -17.8236  -54.8407 C.2       22 UNK         0.5000 
    122 N         -4.3688  -16.9171  -54.9604 N.am      22 UNK        -0.7600 
    123 O         -2.2467  -17.5029  -55.0930 O.2       22 UNK        -0.5000 
    124 C124       -3.1877  -19.6199  -53.0018 C.3       23 UNK        -0.0398 
    125 S125       -1.4069  -20.0057  -52.9711 S.3       23 UNK        -0.2404 
    126 C126       -0.7891  -18.5951  -51.9992 C.3       23 UNK        -0.0205 
    127 H127        2.4903  -11.2314  -48.7850 H         1 UNK         0.0600 
    128 H128        3.8452  -10.1503  -49.1213 H         1 UNK         0.0600 
    129 H129        3.4186  -10.5405  -47.4511 H         1 UNK         0.0600 
    130 H130        2.9894  -13.3770  -49.1254 H         1 UNK         0.3000 
    131 H131        5.6704  -14.3352  -49.4461 H         1 UNK         0.0600 
    132 H132        4.5977  -16.5488  -49.7891 H         1 UNK         0.0800 
    133 H133        3.0550  -15.9253  -49.2642 H         1 UNK         0.0800 
    134 H134        3.7064  -16.4868  -53.4368 H         1 UNK         0.0800 
    135 H135        4.9196  -16.9764  -52.2807 H         1 UNK         0.0800 
    136 H136        1.1911  -16.8678  -52.7565 H         1 UNK         0.1150 
    137 H137        0.5357  -20.5338  -50.6416 H         1 UNK         0.1150 
    138 H138        4.4896  -18.9082  -50.9258 H         1 UNK         0.1150 
    139 H139        2.4266  -21.8698  -49.9474 H         1 UNK         0.0800 
    140 H140        4.0421  -21.3661  -50.3435 H         1 UNK         0.0800 
    141 H141        2.0128  -19.3747  -46.7200 H         1 UNK         0.0800 
    142 H142        1.2612  -19.4934  -48.2731 H         1 UNK         0.0800 
    143 H143        1.6256  -21.9965  -46.5572 H         1 UNK         0.0600 
    144 H144       -0.0966  -19.8403  -45.7713 H         1 UNK         0.3000 
    145 H145       -2.3315  -21.7403  -43.8156 H         1 UNK         0.0600 
    146 H146       -1.5274  -20.1981  -42.0160 H         1 UNK         0.0600 
    147 H147       -0.4270  -21.5478  -42.2548 H         1 UNK         0.0600 
    148 H148       -0.0154  -19.9641  -42.8929 H         1 UNK         0.0600 
    149 H149       -1.9281  -18.9159  -44.2036 H         1 UNK         0.3000 
    150 H150       -3.8426  -18.6689  -47.2257 H         1 UNK         0.0600 
    151 H151       -5.4660  -18.5280  -45.3315 H         1 UNK         0.0600 
    152 H152       -4.9416  -16.9283  -45.8362 H         1 UNK         0.0600 
    153 H153       -4.2862  -17.6471  -44.3662 H         1 UNK         0.0600 
    154 H154       -2.3193  -16.8464  -45.5743 H         1 UNK         0.3000 
    155 H155        0.7346  -17.2129  -46.8524 H         1 UNK         0.0600 
    156 H156       -0.8597  -15.2558  -48.5783 H         1 UNK         0.0600 
    157 H157        0.2772  -16.4721  -49.1357 H         1 UNK         0.0600 
    158 H158        0.8554  -15.1042  -48.1969 H         1 UNK         0.0600 
    159 H159        0.3519  -15.9911  -45.0649 H         1 UNK         0.3000 
    160 H160       -0.6508  -13.3324  -44.1226 H         1 UNK         0.0600 
    161 H161       -3.2729  -14.8501  -43.6464 H         1 UNK         0.0600 
    162 H162       -3.1152  -13.2101  -44.2631 H         1 UNK         0.0600 
    163 H163       -2.6431  -13.5696  -42.6125 H         1 UNK         0.0600 
    164 H164        0.2507  -14.6831  -42.6445 H         1 UNK         0.3000 
    165 H165       -0.4948  -17.8624  -41.2552 H         1 UNK         0.0600 
    166 H166        2.0451  -16.6369  -42.4456 H         1 UNK         0.0600 
    167 H167        1.9249  -18.0745  -41.4396 H         1 UNK         0.0600 
    168 H168        1.2925  -18.0898  -43.0799 H         1 UNK         0.0600 
    169 H169        0.9840  -15.3186  -40.7842 H         1 UNK         0.3000 
    170 H170       -1.0228  -14.3985  -38.0403 H         1 UNK         0.0600 
    171 H171        0.4851  -16.0363  -36.9089 H         1 UNK         0.0600 
    172 H172        1.8337  -15.5086  -37.9084 H         1 UNK         0.0600 
    173 H173        1.0993  -14.3985  -36.7505 H         1 UNK         0.0600 
    174 H174        1.4582  -13.4223  -39.1540 H         1 UNK         0.3000 
    175 H175        0.1087  -11.6041  -41.8167 H         1 UNK         0.0600 
    176 H176        0.9268  -10.3186  -39.1575 H         1 UNK         0.0600 
    177 H177        0.9081   -9.5278  -40.7347 H         1 UNK         0.0600 
    178 H178       -0.5972  -10.0408  -39.9919 H         1 UNK         0.0600 
    179 H179        2.6416  -11.2753  -40.7273 H         1 UNK         0.3000 
    180 H180        4.3622  -12.1306  -42.1283 H         1 UNK         0.0600 
    181 H181        4.3491  -14.5440  -40.2220 H         1 UNK         0.0600 
    182 H182        4.4423  -12.8576  -39.7291 H         1 UNK         0.0600 
    183 H183        5.7620  -13.5733  -40.6364 H         1 UNK         0.0600 
    184 H184        4.8848  -14.8960  -42.5931 H         1 UNK         0.3000 
    185 H185        5.6311  -15.2702  -44.9238 H         1 UNK         0.0600 
    186 H186        4.0529  -17.1777  -45.5287 H         1 UNK         0.0600 
    187 H187        3.9669  -16.7547  -43.8306 H         1 UNK         0.0600 
    188 H188        2.7000  -16.2190  -44.9326 H         1 UNK         0.0600 
    189 H189        3.6948  -13.9687  -46.6370 H         1 UNK         0.3000 
    190 H190       -1.2365  -20.4163  -48.0838 H         1 UNK         0.3000 
    191 H191       -1.4926  -22.0582  -50.3359 H         1 UNK         0.0600 
    192 H192       -2.7921  -19.9573  -49.9708 H         1 UNK         0.0600 
    193 H193       -3.8641  -21.2997  -50.3390 H         1 UNK         0.0600 
    194 H194       -3.7153  -20.7280  -48.6909 H         1 UNK         0.0600 
    195 H195       -2.8742  -22.5276  -47.0506 H         1 UNK         0.3000 
    196 H196       -4.1933  -24.9747  -47.5408 H         1 UNK         0.0600 
    197 H197       -4.1827  -25.1950  -45.0609 H         1 UNK         0.0600 
    198 H198       -4.6074  -23.5590  -45.5432 H         1 UNK         0.0600 
    199 H199       -2.9925  -23.9071  -44.9308 H         1 UNK         0.0600 
    200 H200       -0.8327  -24.3734  -46.3813 H         1 UNK         0.3000 
    201 H201       -0.0701  -27.1011  -46.1271 H         1 UNK         0.0600 
    202 H202        1.1659  -25.2435  -45.0518 H         1 UNK         0.0600 
    203 H203        1.6400  -24.6071  -46.6250 H         1 UNK         0.0600 
    204 H204        2.2446  -26.1684  -46.0855 H         1 UNK         0.0600 
    205 H205        0.0941  -24.8506  -48.8919 H         1 UNK         0.3000 
    206 H206        1.3730  -26.6800  -50.7176 H         1 UNK         0.0600 
    207 H207        1.4924  -24.2004  -50.9470 H         1 UNK         0.0600 
    208 H208        0.7894  -24.9220  -52.3858 H         1 UNK         0.0600 
    209 H209       -0.2483  -24.1239  -51.2115 H         1 UNK         0.0600 
    210 H210       -1.7731  -26.6279  -49.4741 H         1 UNK         0.3000 
    211 H211       -3.6764  -27.6460  -49.8344 H         1 UNK         0.0600 
    212 H212       -2.3078  -29.3764  -51.9579 H         1 UNK         0.0600 
    213 H213       -3.8081  -29.7322  -51.1158 H         1 UNK         0.0600 
    214 H214       -2.2960  -29.7027  -50.2247 H         1 UNK         0.0600 
    215 H215       -3.1691  -25.1952  -51.1437 H         1 UNK         0.3000 
    216 H216       -4.7256  -25.2464  -53.6686 H         1 UNK         0.0600 
    217 H217       -2.7612  -23.7117  -53.5175 H         1 UNK         0.0600 
    218 H218       -3.4425  -22.9508  -52.0844 H         1 UNK         0.0600 
    219 H219       -4.2543  -22.7928  -53.6378 H         1 UNK         0.0600 
    220 H220       -6.7716  -24.2289  -53.7846 H         1 UNK         0.3000 
    221 H221       -8.4390  -24.4480  -51.4188 H         1 UNK         0.0600 
    222 H222       -9.0860  -23.6684  -54.3069 H         1 UNK         0.0600 
    223 H223       -9.2176  -25.2761  -53.6004 H         1 UNK         0.0600 
    224 H224      -10.2663  -23.9843  -53.0425 H         1 UNK         0.0600 
    225 H225       -6.9058  -22.7247  -50.4739 H         1 UNK         0.3000 
    226 H226       -6.5826  -20.7524  -49.4924 H         1 UNK         0.0600 
    227 H227       -8.7533  -21.2749  -48.4814 H         1 UNK         0.0600 
    228 H228       -8.6582  -19.5425  -48.7351 H         1 UNK         0.0600 
    229 H229       -9.6295  -20.5416  -49.8165 H         1 UNK         0.0600 
    230 H230       -9.1513  -19.0346  -51.0519 H         1 UNK         0.3000 
    231 H231       -7.5651  -16.9259  -52.0279 H         1 UNK         0.0600 
    232 H232       -9.7058  -16.1972  -53.1060 H         1 UNK         0.0600 
    233 H233       -9.9635  -16.6983  -51.4430 H         1 UNK         0.0600 
    234 H234      -10.4186  -17.7704  -52.7684 H         1 UNK         0.0600 
    235 H235       -8.3537  -19.9832  -53.5611 H         1 UNK         0.3000 
    236 H236       -7.8573  -19.3257  -56.2856 H         1 UNK         0.0600 
    237 H237       -8.9286  -21.4502  -55.4991 H         1 UNK         0.0600 
    238 H238       -7.5498  -21.7731  -56.5400 H         1 UNK         0.0600 
    239 H239       -7.3910  -21.9628  -54.7992 H         1 UNK         0.0600 
    240 H240       -5.6651  -19.5868  -53.5923 H         1 UNK         0.3000 
    241 H241       -3.2375  -19.9383  -55.1288 H         1 UNK         0.0600 
    242 H242       -5.3419  -17.1461  -54.7886 H         1 UNK         0.3800 
    243 H243       -4.1269  -15.9828  -55.2497 H         1 UNK         0.3800 
    244 H244       -3.6876  -20.5073  -52.6141 H         1 UNK         0.0800 
    245 H245       -3.4252  -18.8252  -52.2923 H         1 UNK         0.0800 
    246 H246       -1.0249  -17.6699  -52.5272 H         1 UNK         0.0800 
    247 H247       -1.3077  -18.5467  -51.0413 H         1 UNK         0.0800 
@<TRIPOS>BOND
     1    1    2 1    
     2    1  127 1    
     3    1  128 1    
     4    1  129 1    
     5    2    3 2    
     6    2    4 am   BACKBONE|DICT|INTERRES
     7    4    5 1    
     8    4  130 1    
     9    5    6 1    
    10    5   65 1    
    11    5  131 1    
    12    6    7 1    
    13    6  132 1    
    14    6  133 1    
    15    7    8 1    
    16    8    9 1    
    17    8  134 1    
    18    8  135 1    
    19    9   10 ar   
    20    9   14 ar   
    21   10   11 ar   
    22   10  136 1    
    23   11   12 ar   
    24   11  126 1    
    25   12   13 ar   
    26   12  137 1    
    27   13   14 ar   
    28   13   15 1    
    29   14  138 1    
    30   15   16 1    
    31   15  139 1    
    32   15  140 1    
    33   16   17 1    
    34   17   18 1    
    35   17  141 1    
    36   17  142 1    
    37   18   19 1    
    38   18   67 1    
    39   18  143 1    
    40   19   20 am   BACKBONE|DICT|INTERRES
    41   19  144 1    
    42   20   21 2    
    43   20   22 1    
    44   22   23 1    
    45   22   24 1    
    46   22  145 1    
    47   23  146 1    
    48   23  147 1    
    49   23  148 1    
    50   24   25 am   BACKBONE|DICT|INTERRES
    51   24  149 1    
    52   25   26 2    
    53   25   27 1    
    54   27   28 1    
    55   27   29 1    
    56   27  150 1    
    57   28  151 1    
    58   28  152 1    
    59   28  153 1    
    60   29   30 am   BACKBONE|DICT|INTERRES
    61   29  154 1    
    62   30   31 2    
    63   30   32 1    
    64   32   33 1    
    65   32   34 1    
    66   32  155 1    
    67   33  156 1    
    68   33  157 1    
    69   33  158 1    
    70   34   35 am   BACKBONE|DICT|INTERRES
    71   34  159 1    
    72   35   36 2    
    73   35   37 1    
    74   37   38 1    
    75   37   39 1    
    76   37  160 1    
    77   38  161 1    
    78   38  162 1    
    79   38  163 1    
    80   39   40 am   BACKBONE|DICT|INTERRES
    81   39  164 1    
    82   40   41 2    
    83   40   42 1    
    84   42   43 1    
    85   42   44 1    
    86   42  165 1    
    87   43  166 1    
    88   43  167 1    
    89   43  168 1    
    90   44   45 am   BACKBONE|DICT|INTERRES
    91   44  169 1    
    92   45   46 2    
    93   45   47 1    
    94   47   48 1    
    95   47   49 1    
    96   47  170 1    
    97   48  171 1    
    98   48  172 1    
    99   48  173 1    
   100   49   50 am   BACKBONE|DICT|INTERRES
   101   49  174 1    
   102   50   51 2    
   103   50   52 1    
   104   52   53 1    
   105   52   54 1    
   106   52  175 1    
   107   53  176 1    
   108   53  177 1    
   109   53  178 1    
   110   54   55 am   BACKBONE|DICT|INTERRES
   111   54  179 1    
   112   55   56 2    
   113   55   57 1    
   114   57   58 1    
   115   57   59 1    
   116   57  180 1    
   117   58  181 1    
   118   58  182 1    
   119   58  183 1    
   120   59   60 am   BACKBONE|DICT|INTERRES
   121   59  184 1    
   122   60   61 2    
   123   60   62 1    
   124   62   63 1    
   125   62   64 1    
   126   62  185 1    
   127   63  186 1    
   128   63  187 1    
   129   63  188 1    
   130   64   65 am   BACKBONE|DICT|INTERRES
   131   64  189 1    
   132   65   66 2    
   133   67   68 2    
   134   67   69 am   BACKBONE|DICT|INTERRES
   135   69   70 1    
   136   69  190 1    
   137   70   71 1    
   138   70   72 1    
   139   70  191 1    
   140   71  192 1    
   141   71  193 1    
   142   71  194 1    
   143   72   73 2    
   144   72   74 am   BACKBONE|DICT|INTERRES
   145   74   75 1    
   146   74  195 1    
   147   75   76 1    
   148   75   77 1    
   149   75  196 1    
   150   76  197 1    
   151   76  198 1    
   152   76  199 1    
   153   77   78 2    
   154   77   79 am   BACKBONE|DICT|INTERRES
   155   79   80 1    
   156   79  200 1    
   157   80   81 1    
   158   80   82 1    
   159   80  201 1    
   160   81  202 1    
   161   81  203 1    
   162   81  204 1    
   163   82   83 2    
   164   82   84 am   BACKBONE|DICT|INTERRES
   165   84   85 1    
   166   84  205 1    
   167   85   86 1    
   168   85   87 1    
   169   85  206 1    
   170   86  207 1    
   171   86  208 1    
   172   86  209 1    
   173   87   88 2    
   174   87   89 am   BACKBONE|DICT|INTERRES
   175   89   90 1    
   176   89  210 1    
   177   90   91 1    
   178   90   92 1    
   179   90  211 1    
   180   91  212 1    
   181   91  213 1    
   182   91  214 1    
   183   92   93 2    
   184   92   94 am   BACKBONE|DICT|INTERRES
   185   94   95 1    
   186   94  215 1    
   187   95   96 1    
   188   95   97 1    
   189   95  216 1    
   190   96  217 1    
   191   96  218 1    
   192   96  219 1    
   193   97   98 2    
   194   97   99 am   BACKBONE|DICT|INTERRES
   195   99  100 1    
   196   99  220 1    
   197  100  101 1    
   198  100  102 1    
   199  100  221 1    
   200  101  222 1    
   201  101  223 1    
   202  101  224 1    
   203  102  103 2    
   204  102  104 am   BACKBONE|DICT|INTERRES
   205  104  105 1    
   206  104  225 1    
   207  105  106 1    
   208  105  107 1    
   209  105  226 1    
   210  106  227 1    
   211  106  228 1    
   212  106  229 1    
   213  107  108 2    
   214  107  109 am   BACKBONE|DICT|INTERRES
   215  109  110 1    
   216  109  230 1    
   217  110  111 1    
   218  110  112 1    
   219  110  231 1    
   220  111  232 1    
   221  111  233 1    
   222  111  234 1    
   223  112  113 2    
   224  112  114 am   BACKBONE|DICT|INTERRES
   225  114  115 1    
   226  114  235 1    
   227  115  116 1    
   228  115  117 1    
   229  115  236 1    
   230  116  237 1    
   231  116  238 1    
   232  116  239 1    
   233  117  118 2    
   234  117  119 am   BACKBONE|DICT|INTERRES
   235  119  120 1    
   236  119  240 1    
   237  120  121 1    
   238  120  124 1    
   239  120  241 1    
   240  121  122 am   BACKBONE|DICT|INTERRES
   241  121  123 2    
   242  122  242 1    
   243  122  243 1    
   244  124  125 1    
   245  124  244 1    
   246  124  245 1    
   247  125  126 1    
   248  126  246 1    
   249  126  247 1    
@<TRIPOS>SUBSTRUCTURE
     1 UNK         1 GROUP             0       ****    0 ROOT    
