@<TRIPOS>MOLECULE
3R540
247   249    1
SMALL
USER_CHARGES


@<TRIPOS>ATOM
      1 CA         -3.4528  -15.5743  -44.4067 C.3       0 UNK        -0.1800 
      2 C          -3.1526  -14.4549  -45.3951 C.2       0 UNK         0.5000 
      3 O          -3.6165  -13.3297  -45.2078 O.2       0 UNK        -0.5000 
      4 N          -2.3882  -14.7654  -46.4479 N.am      1 UNK        -0.5000 
      5 CA         -1.9147  -13.8246  -47.4690 C.3       1 UNK         0.1400 
      6 C6         -1.6737  -14.5422  -48.8236 C.3       23 UNK        -0.0398 
      7 S7         -0.5717  -15.9955  -48.7347 S.3       23 UNK        -0.2404 
      8 C8          1.0014  -15.3052  -49.3359 C.3       23 UNK        -0.0205 
      9 C9          1.9480  -16.4212  -49.7400 C.ar      23 UNK        -0.0193 
     10 C10         2.2188  -16.6709  -51.0886 C.ar      23 UNK        -0.1150 
     11 C11         3.0407  -17.7396  -51.4604 C.ar      23 UNK        -0.0193 
     12 C12         3.6001  -18.5538  -50.4717 C.ar      23 UNK        -0.1150 
     13 C13         3.3263  -18.3171  -49.1220 C.ar      23 UNK        -0.0193 
     14 C14         2.5181  -17.2372  -48.7613 C.ar      23 UNK        -0.1150 
     15 C15         3.8418  -19.2660  -48.0532 C.3       23 UNK        -0.0205 
     16 S16         2.9591  -20.8607  -48.0900 S.3       23 UNK        -0.2404 
     17 C17         1.2075  -20.3338  -48.0984 C.3       23 UNK        -0.0398 
     18 CA          0.2800  -21.4361  -47.5451 C.3       11 UNK         0.1400 
     19 N           0.4298  -21.6241  -46.1033 N.am      11 UNK        -0.5000 
     20 C          -0.0321  -22.6820  -45.4273 C.2       10 UNK         0.5000 
     21 O          -0.6352  -23.6175  -45.9538 O.2       10 UNK        -0.5000 
     22 CA          0.1805  -22.6739  -43.9036 C.3       10 UNK         0.1400 
     23 CB          1.6317  -23.0329  -43.5506 C.3       10 UNK        -0.1800 
     24 N          -0.1744  -21.3925  -43.2916 N.am      10 UNK        -0.5000 
     25 C          -1.4122  -20.8764  -43.2865 C.2       9 UNK         0.5000 
     26 O          -2.3887  -21.4336  -43.7883 O.2       9 UNK        -0.5000 
     27 CA         -1.5849  -19.4895  -42.6428 C.3       9 UNK         0.1400 
     28 CB         -1.5991  -19.5968  -41.1109 C.3       9 UNK        -0.1800 
     29 N          -0.5535  -18.5404  -43.0582 N.am      9 UNK        -0.5000 
     30 C          -0.3754  -18.1197  -44.3188 C.2       8 UNK         0.5000 
     31 O          -1.0771  -18.4647  -45.2671 O.2       8 UNK        -0.5000 
     32 CA          0.8185  -17.1897  -44.5734 C.3       8 UNK         0.1400 
     33 CB          0.5209  -15.7817  -44.0394 C.3       8 UNK        -0.1800 
     34 N           2.0533  -17.6884  -43.9744 N.am      8 UNK        -0.5000 
     35 C           2.6125  -18.8829  -44.2058 C.2       7 UNK         0.5000 
     36 O           2.1589  -19.7146  -44.9870 O.2       7 UNK        -0.5000 
     37 CA          3.8637  -19.2245  -43.3844 C.3       7 UNK         0.1400 
     38 CB          5.1076  -18.5296  -43.9607 C.3       7 UNK        -0.1800 
     39 N           3.6971  -18.8596  -41.9788 N.am      7 UNK        -0.5000 
     40 C           2.8712  -19.4825  -41.1270 C.2       6 UNK         0.5000 
     41 O           2.1795  -20.4562  -41.4285 O.2       6 UNK        -0.5000 
     42 CA          2.7831  -18.8941  -39.7070 C.3       6 UNK         0.1400 
     43 CB          3.9679  -19.3627  -38.8489 C.3       6 UNK        -0.1800 
     44 N           2.7274  -17.4306  -39.7028 N.am      6 UNK        -0.5000 
     45 C           1.6908  -16.7214  -40.1685 C.2       5 UNK         0.5000 
     46 O           0.6777  -17.2281  -40.6519 O.2       5 UNK        -0.5000 
     47 CA          1.8166  -15.1860  -40.1149 C.3       5 UNK         0.1400 
     48 CB          1.5136  -14.6722  -38.6989 C.3       5 UNK        -0.1800 
     49 N           3.0965  -14.6246  -40.5705 N.am      5 UNK        -0.5000 
     50 C           3.7209  -14.9256  -41.7170 C.2       4 UNK         0.5000 
     51 O           3.4317  -15.8867  -42.4278 O.2       4 UNK        -0.5000 
     52 CA          4.8572  -13.9921  -42.1733 C.3       4 UNK         0.1400 
     53 CB          6.2231  -14.5987  -41.8192 C.3       4 UNK        -0.1800 
     54 N           4.7892  -13.7712  -43.6227 N.am      4 UNK        -0.5000 
     55 C           3.7601  -13.1802  -44.2464 C.2       3 UNK         0.5000 
     56 O           2.8423  -12.6101  -43.6472 O.2       3 UNK        -0.5000 
     57 CA          3.7429  -13.2441  -45.7851 C.3       3 UNK         0.1400 
     58 CB          3.7667  -14.6947  -46.3113 C.3       3 UNK        -0.1800 
     59 N           2.5401  -12.5629  -46.2522 N.am      3 UNK        -0.5000 
     60 C           2.3243  -12.0329  -47.4568 C.2       2 UNK         0.5000 
     61 O           3.1134  -12.1294  -48.3984 O.2       2 UNK        -0.5000 
     62 CA          0.9918  -11.2708  -47.6290 C.3       2 UNK         0.1400 
     63 CB          1.0584  -10.2378  -48.7681 C.3       2 UNK        -0.1800 
     64 N          -0.1437  -12.1624  -47.8765 N.am      2 UNK        -0.5000 
     65 C          -0.6995  -12.9935  -46.9829 C.2       1 UNK         0.5000 
     66 O          -0.3006  -13.0889  -45.8202 O.2       1 UNK        -0.5000 
     67 C          -1.1886  -21.2033  -47.9488 C.2       11 UNK         0.5000 
     68 O          -1.6126  -21.7609  -48.9586 O.2       11 UNK        -0.5000 
     69 N          -1.9595  -20.4477  -47.1512 N.am      12 UNK        -0.5000 
     70 CA         -3.3984  -20.2538  -47.3572 C.3       12 UNK         0.1400 
     71 CB         -3.9271  -19.1594  -46.4191 C.3       12 UNK        -0.1800 
     72 C          -4.2067  -21.5532  -47.1859 C.2       12 UNK         0.5000 
     73 O          -5.1560  -21.7772  -47.9381 O.2       12 UNK        -0.5000 
     74 N          -3.8039  -22.4015  -46.2290 N.am      13 UNK        -0.5000 
     75 CA         -4.3673  -23.7359  -46.0272 C.3       13 UNK         0.1400 
     76 CB         -3.8879  -24.3128  -44.6868 C.3       13 UNK        -0.1800 
     77 C          -4.0390  -24.6856  -47.1936 C.2       13 UNK         0.5000 
     78 O          -4.9363  -25.3754  -47.6771 O.2       13 UNK        -0.5000 
     79 N          -2.7793  -24.6718  -47.6550 N.am      14 UNK        -0.5000 
     80 CA         -2.3014  -25.4462  -48.8052 C.3       14 UNK         0.1400 
     81 CB         -0.7723  -25.3355  -48.8992 C.3       14 UNK        -0.1800 
     82 C          -2.9618  -25.0254  -50.1331 C.2       14 UNK         0.5000 
     83 O          -3.3043  -25.8866  -50.9437 O.2       14 UNK        -0.5000 
     84 N          -3.1634  -23.7133  -50.3096 N.am      15 UNK        -0.5000 
     85 CA         -3.8837  -23.1077  -51.4300 C.3       15 UNK         0.1400 
     86 CB         -3.6282  -21.5919  -51.4146 C.3       15 UNK        -0.1800 
     87 C          -5.4013  -23.3660  -51.3981 C.2       15 UNK         0.5000 
     88 O          -6.0605  -23.1665  -52.4187 O.2       15 UNK        -0.5000 
     89 N          -5.9320  -23.7513  -50.2258 N.am      16 UNK        -0.5000 
     90 CA         -7.3536  -23.8448  -49.8824 C.3       16 UNK         0.1400 
     91 CB         -8.0143  -25.0424  -50.5897 C.3       16 UNK        -0.1800 
     92 C          -8.0544  -22.4976  -50.1424 C.2       16 UNK         0.5000 
     93 O          -8.9438  -22.3986  -50.9908 O.2       16 UNK        -0.5000 
     94 N          -7.5390  -21.4670  -49.4592 N.am      17 UNK        -0.5000 
     95 CA         -7.7598  -20.0356  -49.6589 C.3       17 UNK         0.1400 
     96 CB         -9.2465  -19.6369  -49.5544 C.3       17 UNK        -0.1800 
     97 C          -7.0947  -19.5490  -50.9574 C.2       17 UNK         0.5000 
     98 O          -6.0852  -18.8479  -50.8859 O.2       17 UNK        -0.5000 
     99 N          -7.6496  -19.9428  -52.1096 N.am      18 UNK        -0.5000 
    100 CA        -7.1578  -19.5845  -53.4405 C.3       18 UNK         0.1400 
    101 CB        -7.4697  -18.1027  -53.7460 C.3       18 UNK        -0.1800 
    102 C         -7.6996  -20.5299  -54.5301 C.2       18 UNK         0.5000 
    103 O         -7.8132  -20.1176  -55.6862 O.2       18 UNK        -0.5000 
    104 N         -8.0391  -21.7758  -54.1673 N.am      19 UNK        -0.5000 
    105 CA        -8.4681  -22.8030  -55.1230 C.3       19 UNK         0.1400 
    106 CB        -9.2034  -23.9246  -54.3771 C.3       19 UNK        -0.1800 
    107 C         -7.2795  -23.3711  -55.9233 C.2       19 UNK         0.5000 
    108 O         -7.4363  -23.7091  -57.0974 O.2       19 UNK        -0.5000 
    109 N         -6.1148  -23.4387  -55.2726 N.am      20 UNK        -0.5000 
    110 CA        -4.8148  -23.7717  -55.8397 C.3       20 UNK         0.1400 
    111 CB        -4.3452  -25.1032  -55.2291 C.3       20 UNK        -0.1800 
    112 C         -3.8285  -22.6361  -55.5168 C.2       20 UNK         0.5000 
    113 O         -4.1571  -21.7267  -54.7493 O.2       20 UNK        -0.5000 
    114 N         -2.6246  -22.7054  -56.0990 N.am      21 UNK        -0.5000 
    115 CA        -1.5218  -21.7781  -55.8308 C.3       21 UNK         0.1400 
    116 CB        -0.3529  -22.1105  -56.7711 C.3       21 UNK        -0.1800 
    117 C         -1.0636  -21.8464  -54.3535 C.2       21 UNK         0.5000 
    118 O         -1.0709  -22.9377  -53.7829 O.2       21 UNK        -0.5000 
    119 N         -0.6463  -20.7433  -53.7198 N.am      22 UNK        -0.5000 
    120 CA        -0.5043  -19.3694  -54.2388 C.3       22 UNK         0.1400 
    121 C         -1.8269  -18.5433  -54.3083 C.2       22 UNK         0.5000 
    122 N         -3.0018  -19.1135  -54.0787 N.am      22 UNK        -0.7600 
    123 O         -1.7918  -17.3515  -54.5998 O.2       22 UNK        -0.5000 
    124 C124        0.5860  -18.5946  -53.4509 C.3       23 UNK        -0.0398 
    125 S125        2.2309  -19.3815  -53.5423 S.3       23 UNK        -0.2404 
    126 C126        3.2990  -18.0381  -52.9296 C.3       23 UNK        -0.0205 
    127 H127       -3.0037  -15.3507  -43.4390 H         1 UNK         0.0600 
    128 H128       -3.0621  -16.5328  -44.7482 H         1 UNK         0.0600 
    129 H129       -4.5292  -15.6782  -44.2700 H         1 UNK         0.0600 
    130 H130       -2.0218  -15.7026  -46.5370 H         1 UNK         0.3000 
    131 H131       -2.7112  -13.0975  -47.6409 H         1 UNK         0.0600 
    132 H132       -2.6333  -14.9052  -49.1944 H         1 UNK         0.0800 
    133 H133       -1.3274  -13.8523  -49.5937 H         1 UNK         0.0800 
    134 H134        0.8210  -14.6386  -50.1804 H         1 UNK         0.0800 
    135 H135        1.4590  -14.7028  -48.5509 H         1 UNK         0.0800 
    136 H136        1.7697  -16.0498  -51.8508 H         1 UNK         0.1150 
    137 H137        4.2137  -19.3978  -50.7541 H         1 UNK         0.1150 
    138 H138        2.2901  -17.0588  -47.7203 H         1 UNK         0.1150 
    139 H139        4.9079  -19.4420  -48.2018 H         1 UNK         0.0800 
    140 H140        3.7380  -18.8221  -47.0628 H         1 UNK         0.0800 
    141 H141        0.9490  -20.0857  -49.1299 H         1 UNK         0.0800 
    142 H142        1.0893  -19.4159  -47.5198 H         1 UNK         0.0800 
    143 H143        0.5753  -22.3743  -48.0198 H         1 UNK         0.0600 
    144 H144        0.9575  -20.9062  -45.6086 H         1 UNK         0.3000 
    145 H145       -0.4707  -23.4388  -43.4754 H         1 UNK         0.0600 
    146 H146        1.7654  -23.1144  -42.4718 H         1 UNK         0.0600 
    147 H147        1.9145  -23.9913  -43.9875 H         1 UNK         0.0600 
    148 H148        2.3338  -22.2838  -43.9179 H         1 UNK         0.0600 
    149 H149        0.5778  -20.8748  -42.8517 H         1 UNK         0.3000 
    150 H150       -2.5502  -19.0929  -42.9645 H         1 UNK         0.0600 
    151 H151       -2.3600  -20.3020  -40.7743 H         1 UNK         0.0600 
    152 H152       -1.8224  -18.6335  -40.6518 H         1 UNK         0.0600 
    153 H153       -0.6382  -19.9364  -40.7220 H         1 UNK         0.0600 
    154 H154        0.0557  -18.1831  -42.3288 H         1 UNK         0.3000 
    155 H155        0.9714  -17.1262  -45.6523 H         1 UNK         0.0600 
    156 H156        0.3992  -15.7762  -42.9570 H         1 UNK         0.0600 
    157 H157       -0.3986  -15.3896  -44.4702 H         1 UNK         0.0600 
    158 H158        1.3170  -15.0810  -44.2851 H         1 UNK         0.0600 
    159 H159        2.5229  -17.0601  -43.3221 H         1 UNK         0.3000 
    160 H160        4.0201  -20.3038  -43.4419 H         1 UNK         0.0600 
    161 H161        5.0133  -17.4434  -43.9435 H         1 UNK         0.0600 
    162 H162        5.2728  -18.8269  -44.9969 H         1 UNK         0.0600 
    163 H163        6.0032  -18.7968  -43.4000 H         1 UNK         0.0600 
    164 H164        4.1505  -18.0091  -41.6766 H         1 UNK         0.3000 
    165 H165        1.8647  -19.2696  -39.2503 H         1 UNK         0.0600 
    166 H166        3.8683  -19.0197  -37.8189 H         1 UNK         0.0600 
    167 H167        4.0242  -20.4518  -38.8237 H         1 UNK         0.0600 
    168 H168        4.9186  -18.9935  -39.2356 H         1 UNK         0.0600 
    169 H169        3.5288  -16.9368  -39.3384 H         1 UNK         0.3000 
    170 H170        1.0505  -14.7855  -40.7815 H         1 UNK         0.0600 
    171 H171        0.5600  -15.0595  -38.3369 H         1 UNK         0.0600 
    172 H172        2.2826  -14.9753  -37.9875 H         1 UNK         0.0600 
    173 H173        1.4475  -13.5842  -38.6789 H         1 UNK         0.0600 
    174 H174        3.4326  -13.8315  -40.0437 H         1 UNK         0.3000 
    175 H175        4.7550  -13.0278  -41.6716 H         1 UNK         0.0600 
    176 H176        6.3739  -15.5633  -42.3062 H         1 UNK         0.0600 
    177 H177        7.0377  -13.9396  -42.1197 H         1 UNK         0.0600 
    178 H178        6.3133  -14.7565  -40.7437 H         1 UNK         0.0600 
    179 H179        5.4953  -14.2325  -44.1764 H         1 UNK         0.3000 
    180 H180        4.6214  -12.7085  -46.1499 H         1 UNK         0.0600 
    181 H181        2.8926  -15.2568  -45.9846 H         1 UNK         0.0600 
    182 H182        4.6497  -15.2335  -45.9671 H         1 UNK         0.0600 
    183 H183        3.7864  -14.7182  -47.4008 H         1 UNK         0.0600 
    184 H184        1.8235  -12.4655  -45.5390 H         1 UNK         0.3000 
    185 H185        0.8021  -10.7239  -46.7027 H         1 UNK         0.0600 
    186 H186        1.8914   -9.5489  -48.6219 H         1 UNK         0.0600 
    187 H187        1.1931  -10.7144  -49.7400 H         1 UNK         0.0600 
    188 H188        0.1483   -9.6393  -48.8115 H         1 UNK         0.0600 
    189 H189       -0.5216  -12.1293  -48.8114 H         1 UNK         0.3000 
    190 H190       -1.5469  -19.9665  -46.3562 H         1 UNK         0.3000 
    191 H191       -3.5449  -19.9105  -48.3833 H         1 UNK         0.0600 
    192 H192       -3.7534  -19.4083  -45.3717 H         1 UNK         0.0600 
    193 H193       -5.0000  -19.0145  -46.5509 H         1 UNK         0.0600 
    194 H194       -3.4447  -18.2036  -46.6233 H         1 UNK         0.0600 
    195 H195       -3.0549  -22.1213  -45.6043 H         1 UNK         0.3000 
    196 H196       -5.4537  -23.6363  -45.9772 H         1 UNK         0.0600 
    197 H197       -4.3168  -25.3002  -44.5116 H         1 UNK         0.0600 
    198 H198       -4.1886  -23.6753  -43.8552 H         1 UNK         0.0600 
    199 H199       -2.8037  -24.4153  -44.6517 H         1 UNK         0.0600 
    200 H200       -2.0878  -24.1101  -47.1659 H         1 UNK         0.3000 
    201 H201       -2.5546  -26.4932  -48.6268 H         1 UNK         0.0600 
    202 H202       -0.2938  -25.6811  -47.9827 H         1 UNK         0.0600 
    203 H203       -0.4539  -24.3083  -49.0766 H         1 UNK         0.0600 
    204 H204       -0.3869  -25.9441  -49.7182 H         1 UNK         0.0600 
    205 H205       -2.7662  -23.0649  -49.6335 H         1 UNK         0.3000 
    206 H206       -3.4915  -23.5188  -52.3616 H         1 UNK         0.0600 
    207 H207       -2.5710  -21.3670  -51.5504 H         1 UNK         0.0600 
    208 H208       -4.1758  -21.0881  -52.2104 H         1 UNK         0.0600 
    209 H209       -3.9498  -21.1421  -50.4751 H         1 UNK         0.0600 
    210 H210       -5.2949  -23.8789  -49.4508 H         1 UNK         0.3000 
    211 H211       -7.4082  -24.0250  -48.8077 H         1 UNK         0.0600 
    212 H212       -7.9262  -24.9742  -51.6712 H         1 UNK         0.0600 
    213 H213       -9.0756  -25.1051  -50.3471 H         1 UNK         0.0600 
    214 H214       -7.5523  -25.9796  -50.2796 H         1 UNK         0.0600 
    215 H215       -6.7484  -21.6738  -48.8499 H         1 UNK         0.3000 
    216 H216       -7.2387  -19.5439  -48.8356 H         1 UNK         0.0600 
    217 H217       -9.3569  -18.5532  -49.6046 H         1 UNK         0.0600 
    218 H218       -9.6727  -19.9627  -48.6056 H         1 UNK         0.0600 
    219 H219       -9.8542  -20.0587  -50.3545 H         1 UNK         0.0600 
    220 H220       -8.4496  -20.5642  -52.0694 H         1 UNK         0.3000 
    221 H221       -6.0740  -19.7171  -53.4480 H         1 UNK         0.0600 
    222 H222       -8.5442  -17.9172  -53.7553 H         1 UNK         0.0600 
    223 H223       -7.0221  -17.4352  -53.0101 H         1 UNK         0.0600 
    224 H224       -7.0747  -17.8064  -54.7184 H         1 UNK         0.0600 
    225 H225       -7.8394  -22.0927  -53.2255 H         1 UNK         0.3000 
    226 H226       -9.1697  -22.3538  -55.8291 H         1 UNK         0.0600 
    227 H227      -10.0044  -23.5307  -53.7512 H         1 UNK         0.0600 
    228 H228       -9.6508  -24.6285  -55.0797 H         1 UNK         0.0600 
    229 H229       -8.5234  -24.4889  -53.7417 H         1 UNK         0.0600 
    230 H230       -6.0839  -23.1175  -54.3070 H         1 UNK         0.3000 
    231 H231       -4.8791  -23.8685  -56.9252 H         1 UNK         0.0600 
    232 H232       -3.3783  -25.4069  -55.6313 H         1 UNK         0.0600 
    233 H233       -5.0517  -25.9042  -55.4471 H         1 UNK         0.0600 
    234 H234       -4.2443  -25.0358  -54.1452 H         1 UNK         0.0600 
    235 H235       -2.4128  -23.4924  -56.6943 H         1 UNK         0.3000 
    236 H236       -1.8850  -20.7798  -56.0721 H         1 UNK         0.0600 
    237 H237       -0.6505  -22.0286  -57.8167 H         1 UNK         0.0600 
    238 H238        0.4820  -21.4258  -56.6173 H         1 UNK         0.0600 
    239 H239        0.0203  -23.1221  -56.6056 H         1 UNK         0.0600 
    240 H240       -0.3600  -20.8484  -52.7588 H         1 UNK         0.3000 
    241 H241       -0.1534  -19.4345  -55.2693 H         1 UNK         0.0600 
    242 H242       -3.8258  -18.5385  -54.1359 H         1 UNK         0.3800 
    243 H243       -3.1072  -20.1096  -53.9364 H         1 UNK         0.3800 
    244 H244        0.6881  -17.5780  -53.8350 H         1 UNK         0.0800 
    245 H245        0.2998  -18.4995  -52.4019 H         1 UNK         0.0800 
    246 H246        4.3423  -18.3278  -53.0633 H         1 UNK         0.0800 
    247 H247        3.1516  -17.1442  -53.5377 H         1 UNK         0.0800 
@<TRIPOS>BOND
     1    1    2 1    
     2    1  127 1    
     3    1  128 1    
     4    1  129 1    
     5    2    3 2    
     6    2    4 am   BACKBONE|DICT|INTERRES
     7    4    5 1    
     8    4  130 1    
     9    5    6 1    
    10    5   65 1    
    11    5  131 1    
    12    6    7 1    
    13    6  132 1    
    14    6  133 1    
    15    7    8 1    
    16    8    9 1    
    17    8  134 1    
    18    8  135 1    
    19    9   10 ar   
    20    9   14 ar   
    21   10   11 ar   
    22   10  136 1    
    23   11   12 ar   
    24   11  126 1    
    25   12   13 ar   
    26   12  137 1    
    27   13   14 ar   
    28   13   15 1    
    29   14  138 1    
    30   15   16 1    
    31   15  139 1    
    32   15  140 1    
    33   16   17 1    
    34   17   18 1    
    35   17  141 1    
    36   17  142 1    
    37   18   19 1    
    38   18   67 1    
    39   18  143 1    
    40   19   20 am   BACKBONE|DICT|INTERRES
    41   19  144 1    
    42   20   21 2    
    43   20   22 1    
    44   22   23 1    
    45   22   24 1    
    46   22  145 1    
    47   23  146 1    
    48   23  147 1    
    49   23  148 1    
    50   24   25 am   BACKBONE|DICT|INTERRES
    51   24  149 1    
    52   25   26 2    
    53   25   27 1    
    54   27   28 1    
    55   27   29 1    
    56   27  150 1    
    57   28  151 1    
    58   28  152 1    
    59   28  153 1    
    60   29   30 am   BACKBONE|DICT|INTERRES
    61   29  154 1    
    62   30   31 2    
    63   30   32 1    
    64   32   33 1    
    65   32   34 1    
    66   32  155 1    
    67   33  156 1    
    68   33  157 1    
    69   33  158 1    
    70   34   35 am   BACKBONE|DICT|INTERRES
    71   34  159 1    
    72   35   36 2    
    73   35   37 1    
    74   37   38 1    
    75   37   39 1    
    76   37  160 1    
    77   38  161 1    
    78   38  162 1    
    79   38  163 1    
    80   39   40 am   BACKBONE|DICT|INTERRES
    81   39  164 1    
    82   40   41 2    
    83   40   42 1    
    84   42   43 1    
    85   42   44 1    
    86   42  165 1    
    87   43  166 1    
    88   43  167 1    
    89   43  168 1    
    90   44   45 am   BACKBONE|DICT|INTERRES
    91   44  169 1    
    92   45   46 2    
    93   45   47 1    
    94   47   48 1    
    95   47   49 1    
    96   47  170 1    
    97   48  171 1    
    98   48  172 1    
    99   48  173 1    
   100   49   50 am   BACKBONE|DICT|INTERRES
   101   49  174 1    
   102   50   51 2    
   103   50   52 1    
   104   52   53 1    
   105   52   54 1    
   106   52  175 1    
   107   53  176 1    
   108   53  177 1    
   109   53  178 1    
   110   54   55 am   BACKBONE|DICT|INTERRES
   111   54  179 1    
   112   55   56 2    
   113   55   57 1    
   114   57   58 1    
   115   57   59 1    
   116   57  180 1    
   117   58  181 1    
   118   58  182 1    
   119   58  183 1    
   120   59   60 am   BACKBONE|DICT|INTERRES
   121   59  184 1    
   122   60   61 2    
   123   60   62 1    
   124   62   63 1    
   125   62   64 1    
   126   62  185 1    
   127   63  186 1    
   128   63  187 1    
   129   63  188 1    
   130   64   65 am   BACKBONE|DICT|INTERRES
   131   64  189 1    
   132   65   66 2    
   133   67   68 2    
   134   67   69 am   BACKBONE|DICT|INTERRES
   135   69   70 1    
   136   69  190 1    
   137   70   71 1    
   138   70   72 1    
   139   70  191 1    
   140   71  192 1    
   141   71  193 1    
   142   71  194 1    
   143   72   73 2    
   144   72   74 am   BACKBONE|DICT|INTERRES
   145   74   75 1    
   146   74  195 1    
   147   75   76 1    
   148   75   77 1    
   149   75  196 1    
   150   76  197 1    
   151   76  198 1    
   152   76  199 1    
   153   77   78 2    
   154   77   79 am   BACKBONE|DICT|INTERRES
   155   79   80 1    
   156   79  200 1    
   157   80   81 1    
   158   80   82 1    
   159   80  201 1    
   160   81  202 1    
   161   81  203 1    
   162   81  204 1    
   163   82   83 2    
   164   82   84 am   BACKBONE|DICT|INTERRES
   165   84   85 1    
   166   84  205 1    
   167   85   86 1    
   168   85   87 1    
   169   85  206 1    
   170   86  207 1    
   171   86  208 1    
   172   86  209 1    
   173   87   88 2    
   174   87   89 am   BACKBONE|DICT|INTERRES
   175   89   90 1    
   176   89  210 1    
   177   90   91 1    
   178   90   92 1    
   179   90  211 1    
   180   91  212 1    
   181   91  213 1    
   182   91  214 1    
   183   92   93 2    
   184   92   94 am   BACKBONE|DICT|INTERRES
   185   94   95 1    
   186   94  215 1    
   187   95   96 1    
   188   95   97 1    
   189   95  216 1    
   190   96  217 1    
   191   96  218 1    
   192   96  219 1    
   193   97   98 2    
   194   97   99 am   BACKBONE|DICT|INTERRES
   195   99  100 1    
   196   99  220 1    
   197  100  101 1    
   198  100  102 1    
   199  100  221 1    
   200  101  222 1    
   201  101  223 1    
   202  101  224 1    
   203  102  103 2    
   204  102  104 am   BACKBONE|DICT|INTERRES
   205  104  105 1    
   206  104  225 1    
   207  105  106 1    
   208  105  107 1    
   209  105  226 1    
   210  106  227 1    
   211  106  228 1    
   212  106  229 1    
   213  107  108 2    
   214  107  109 am   BACKBONE|DICT|INTERRES
   215  109  110 1    
   216  109  230 1    
   217  110  111 1    
   218  110  112 1    
   219  110  231 1    
   220  111  232 1    
   221  111  233 1    
   222  111  234 1    
   223  112  113 2    
   224  112  114 am   BACKBONE|DICT|INTERRES
   225  114  115 1    
   226  114  235 1    
   227  115  116 1    
   228  115  117 1    
   229  115  236 1    
   230  116  237 1    
   231  116  238 1    
   232  116  239 1    
   233  117  118 2    
   234  117  119 am   BACKBONE|DICT|INTERRES
   235  119  120 1    
   236  119  240 1    
   237  120  121 1    
   238  120  124 1    
   239  120  241 1    
   240  121  122 am   BACKBONE|DICT|INTERRES
   241  121  123 2    
   242  122  242 1    
   243  122  243 1    
   244  124  125 1    
   245  124  244 1    
   246  124  245 1    
   247  125  126 1    
   248  126  246 1    
   249  126  247 1    
@<TRIPOS>SUBSTRUCTURE
     1 UNK         1 GROUP             0       ****    0 ROOT    
