@<TRIPOS>MOLECULE
3R540
247   249    1
SMALL
USER_CHARGES


@<TRIPOS>ATOM
      1 CA         -2.0848  -12.8419  -47.7871 C.3       0 UNK        -0.1800 
      2 C          -0.8378  -13.3455  -47.0742 C.2       0 UNK         0.5000 
      3 O          -0.9357  -13.8312  -45.9486 O.2       0 UNK        -0.5000 
      4 N           0.3278  -13.2208  -47.7260 N.am      1 UNK        -0.5000 
      5 CA          1.6413  -13.7032  -47.2703 C.3       1 UNK         0.1400 
      6 C6          1.7445  -15.2500  -47.2367 C.3       23 UNK        -0.0398 
      7 S7          1.5659  -16.0090  -48.8850 S.3       23 UNK        -0.2404 
      8 C8          0.5708  -17.4838  -48.5045 C.3       23 UNK        -0.0205 
      9 C9         -0.9183  -17.1804  -48.5169 C.ar      23 UNK        -0.0193 
     10 C10        -1.6266  -17.2236  -49.7208 C.ar      23 UNK        -0.1150 
     11 C11        -3.0029  -16.9854  -49.7451 C.ar      23 UNK        -0.0193 
     12 C12        -3.6708  -16.6929  -48.5537 C.ar      23 UNK        -0.1150 
     13 C13        -2.9718  -16.6318  -47.3449 C.ar      23 UNK        -0.0193 
     14 C14        -1.5947  -16.8776  -47.3321 C.ar      23 UNK        -0.1150 
     15 C15        -3.7080  -16.2889  -46.0581 C.3       23 UNK        -0.0205 
     16 S16        -3.6138  -17.6166  -44.8177 S.3       23 UNK        -0.2404 
     17 C17        -4.3425  -19.0414  -45.6953 C.3       23 UNK        -0.0398 
     18 CA         -3.2823  -19.9919  -46.3099 C.3       11 UNK         0.1400 
     19 N          -2.1871  -20.2919  -45.3782 N.am      11 UNK        -0.5000 
     20 C          -1.1143  -21.0524  -45.6304 C.2       10 UNK         0.5000 
     21 O          -0.9721  -21.6888  -46.6746 O.2       10 UNK        -0.5000 
     22 CA         -0.0179  -21.1232  -44.5479 C.3       10 UNK         0.1400 
     23 CB          1.3874  -21.1132  -45.1749 C.3       10 UNK        -0.1800 
     24 N          -0.1071  -20.0451  -43.5568 N.am      10 UNK        -0.5000 
     25 C          -0.8157  -20.1022  -42.4189 C.2       9 UNK         0.5000 
     26 O          -1.5534  -21.0475  -42.1386 O.2       9 UNK        -0.5000 
     27 CA         -0.6963  -18.9296  -41.4231 C.3       9 UNK         0.1400 
     28 CB         -0.0416  -19.3988  -40.1136 C.3       9 UNK        -0.1800 
     29 N           0.0913  -17.8220  -41.9605 N.am      9 UNK        -0.5000 
     30 C          -0.4076  -16.6892  -42.4719 C.2       8 UNK         0.5000 
     31 O          -1.6039  -16.4043  -42.4475 O.2       8 UNK        -0.5000 
     32 CA          0.5870  -15.6964  -43.1122 C.3       8 UNK         0.1400 
     33 CB          0.7094  -14.4290  -42.2524 C.3       8 UNK        -0.1800 
     34 N           1.9262  -16.2470  -43.3315 N.am      8 UNK        -0.5000 
     35 C           2.2305  -17.2342  -44.1831 C.2       7 UNK         0.5000 
     36 O           1.4010  -17.7922  -44.8990 O.2       7 UNK        -0.5000 
     37 CA          3.6827  -17.7425  -44.1601 C.3       7 UNK         0.1400 
     38 CB          4.6049  -16.8691  -45.0231 C.3       7 UNK        -0.1800 
     39 N           4.2061  -17.8040  -42.7954 N.am      7 UNK        -0.5000 
     40 C           3.8268  -18.7081  -41.8812 C.2       6 UNK         0.5000 
     41 O           3.0133  -19.6039  -42.1036 O.2       6 UNK        -0.5000 
     42 CA          4.4350  -18.5651  -40.4747 C.3       6 UNK         0.1400 
     43 CB          5.8137  -19.2391  -40.4091 C.3       6 UNK        -0.1800 
     44 N           4.5591  -17.1663  -40.0636 N.am      6 UNK        -0.5000 
     45 C           3.5215  -16.3748  -39.7572 C.2       5 UNK         0.5000 
     46 O           2.3517  -16.7561  -39.7379 O.2       5 UNK        -0.5000 
     47 CA          3.8453  -14.9006  -39.4483 C.3       5 UNK         0.1400 
     48 CB          4.1366  -14.7155  -37.9515 C.3       5 UNK        -0.1800 
     49 N           4.9666  -14.3675  -40.2297 N.am      5 UNK        -0.5000 
     50 C           4.9692  -14.2425  -41.5628 C.2       4 UNK         0.5000 
     51 O           4.0482  -14.6219  -42.2866 O.2       4 UNK        -0.5000 
     52 CA          6.2220  -13.6340  -42.1990 C.3       4 UNK         0.1400 
     53 CB          7.1984  -14.7346  -42.6479 C.3       4 UNK        -0.1800 
     54 N           5.8207  -12.8253  -43.3456 N.am      4 UNK        -0.5000 
     55 C           6.4755  -11.7417  -43.7807 C.2       3 UNK         0.5000 
     56 O           7.5361  -11.3485  -43.2921 O.2       3 UNK        -0.5000 
     57 CA          5.8567  -10.9494  -44.9515 C.3       3 UNK         0.1400 
     58 CB          6.5209  -11.3523  -46.2773 C.3       3 UNK        -0.1800 
     59 N           4.4070  -11.0988  -45.0900 N.am      3 UNK        -0.5000 
     60 C           3.4849  -10.7114  -44.1982 C.2       2 UNK         0.5000 
     61 O           3.7644  -10.1493  -43.1385 O.2       2 UNK        -0.5000 
     62 CA          2.0008  -10.9804  -44.5393 C.3       2 UNK         0.1400 
     63 CB          1.2239   -9.6593  -44.6612 C.3       2 UNK        -0.1800 
     64 N           1.7597  -11.7691  -45.7542 N.am      2 UNK        -0.5000 
     65 C           2.0988  -13.0526  -45.9421 C.2       1 UNK         0.5000 
     66 O           2.7664  -13.6949  -45.1327 O.2       1 UNK        -0.5000 
     67 C          -3.9687  -21.2543  -46.8677 C.2       11 UNK         0.5000 
     68 O          -4.2594  -21.3136  -48.0612 O.2       11 UNK        -0.5000 
     69 N          -4.1823  -22.2549  -46.0011 N.am      12 UNK        -0.5000 
     70 CA         -4.7805  -23.5415  -46.3597 C.3       12 UNK         0.1400 
     71 CB         -5.1225  -24.3178  -45.0795 C.3       12 UNK        -0.1800 
     72 C          -3.8790  -24.3833  -47.2804 C.2       12 UNK         0.5000 
     73 O          -4.3855  -25.0314  -48.1957 O.2       12 UNK        -0.5000 
     74 N          -2.5613  -24.3371  -47.0418 N.am      13 UNK        -0.5000 
     75 CA         -1.5527  -25.0128  -47.8581 C.3       13 UNK         0.1400 
     76 CB         -0.2284  -25.0904  -47.0825 C.3       13 UNK        -0.1800 
     77 C          -1.3565  -24.3208  -49.2179 C.2       13 UNK         0.5000 
     78 O          -1.1775  -25.0061  -50.2244 O.2       13 UNK        -0.5000 
     79 N          -1.4193  -22.9820  -49.2227 N.am      14 UNK        -0.5000 
     80 CA         -1.3660  -22.1473  -50.4210 C.3       14 UNK         0.1400 
     81 CB         -1.2031  -20.6762  -50.0123 C.3       14 UNK        -0.1800 
     82 C          -2.5974  -22.3390  -51.3239 C.2       14 UNK         0.5000 
     83 O          -2.4379  -22.4712  -52.5372 O.2       14 UNK        -0.5000 
     84 N          -3.7921  -22.3750  -50.7163 N.am      15 UNK        -0.5000 
     85 CA         -5.0584  -22.6076  -51.4087 C.3       15 UNK         0.1400 
     86 CB         -6.2259  -22.2135  -50.4929 C.3       15 UNK        -0.1800 
     87 C          -5.2194  -24.0612  -51.8864 C.2       15 UNK         0.5000 
     88 O          -5.8067  -24.2933  -52.9431 O.2       15 UNK        -0.5000 
     89 N          -4.7351  -25.0196  -51.0813 N.am      16 UNK        -0.5000 
     90 CA         -4.6880  -26.4682  -51.3302 C.3       16 UNK         0.1400 
     91 CB         -3.6932  -26.7671  -52.4700 C.3       16 UNK        -0.1800 
     92 C          -6.0618  -27.1323  -51.5862 C.2       16 UNK         0.5000 
     93 O          -6.1073  -28.2557  -52.0899 O.2       16 UNK        -0.5000 
     94 N          -7.1515  -26.4167  -51.2656 N.am      17 UNK        -0.5000 
     95 CA         -8.5495  -26.7082  -51.6037 C.3       17 UNK         0.1400 
     96 CB         -9.0468  -27.9576  -50.8469 C.3       17 UNK        -0.1800 
     97 C          -8.8130  -26.7832  -53.1279 C.2       17 UNK         0.5000 
     98 O          -9.7544  -27.4581  -53.5495 O.2       17 UNK        -0.5000 
     99 N          -7.9858  -26.0968  -53.9308 N.am      18 UNK        -0.5000 
    100 CA        -8.0066  -26.1528  -55.3953 C.3       18 UNK         0.1400 
    101 CB        -7.1467  -27.3417  -55.8681 C.3       18 UNK        -0.1800 
    102 C         -7.5602  -24.8210  -56.0289 C.2       18 UNK         0.5000 
    103 O         -7.0798  -24.8170  -57.1642 O.2       18 UNK        -0.5000 
    104 N         -7.6986  -23.7179  -55.2788 N.am      19 UNK        -0.5000 
    105 CA        -7.2196  -22.3539  -55.5441 C.3       19 UNK         0.1400 
    106 CB        -7.8261  -21.7586  -56.8294 C.3       19 UNK        -0.1800 
    107 C         -5.6836  -22.2346  -55.5262 C.2       19 UNK         0.5000 
    108 O         -5.1599  -21.4441  -54.7442 O.2       19 UNK        -0.5000 
    109 N         -5.0026  -23.0368  -56.3564 N.am      20 UNK        -0.5000 
    110 CA        -3.5534  -23.2375  -56.4395 C.3       20 UNK         0.1400 
    111 CB        -3.1154  -24.2585  -55.3706 C.3       20 UNK        -0.1800 
    112 C         -2.7466  -21.9202  -56.4395 C.2       20 UNK         0.5000 
    113 O         -2.8792  -21.1424  -57.3870 O.2       20 UNK        -0.5000 
    114 N         -1.9456  -21.6726  -55.3927 N.am      21 UNK        -0.5000 
    115 CA        -1.1091  -20.4765  -55.2570 C.3       21 UNK         0.1400 
    116 CB        -0.0585  -20.7056  -54.1592 C.3       21 UNK        -0.1800 
    117 C         -1.9135  -19.1907  -54.9827 C.2       21 UNK         0.5000 
    118 O         -1.3977  -18.0991  -55.2277 O.2       21 UNK        -0.5000 
    119 N         -3.1555  -19.3345  -54.5061 N.am      22 UNK        -0.5000 
    120 CA        -4.1193  -18.2398  -54.3261 C.3       22 UNK         0.1400 
    121 C         -4.9489  -17.9299  -55.6084 C.2       22 UNK         0.5000 
    122 N         -4.7818  -18.6497  -56.7134 N.am      22 UNK        -0.7600 
    123 O         -5.7518  -17.0008  -55.6089 O.2       22 UNK        -0.5000 
    124 C124       -5.0432  -18.4687  -53.0998 C.3       23 UNK        -0.0398 
    125 S125       -4.1316  -18.7480  -51.5437 S.3       23 UNK        -0.2404 
    126 C126       -3.7633  -17.0352  -51.0595 C.3       23 UNK        -0.0205 
    127 H127       -1.8490  -12.4007  -48.7556 H         1 UNK         0.0600 
    128 H128       -2.5852  -12.0870  -47.1810 H         1 UNK         0.0600 
    129 H129       -2.7795  -13.6657  -47.9501 H         1 UNK         0.0600 
    130 H130        0.3237  -12.8095  -48.6488 H         1 UNK         0.3000 
    131 H131        2.3590  -13.3500  -48.0122 H         1 UNK         0.0600 
    132 H132        2.7182  -15.5611  -46.8625 H         1 UNK         0.0800 
    133 H133        1.0071  -15.6621  -46.5484 H         1 UNK         0.0800 
    134 H134        0.7895  -18.2499  -49.2494 H         1 UNK         0.0800 
    135 H135        0.8711  -17.9065  -47.5445 H         1 UNK         0.0800 
    136 H136       -1.1081  -17.4546  -50.6408 H         1 UNK         0.1150 
    137 H137       -4.7356  -16.5076  -48.5702 H         1 UNK         0.1150 
    138 H138       -1.0546  -16.8390  -46.3962 H         1 UNK         0.1150 
    139 H139       -3.2713  -15.3837  -45.6339 H         1 UNK         0.0800 
    140 H140       -4.7567  -16.0612  -46.2547 H         1 UNK         0.0800 
    141 H141       -5.0246  -18.6807  -46.4675 H         1 UNK         0.0800 
    142 H142       -4.9612  -19.5747  -44.9712 H         1 UNK         0.0800 
    143 H143       -2.8274  -19.4838  -47.1617 H         1 UNK         0.0600 
    144 H144       -2.2125  -19.7913  -44.5020 H         1 UNK         0.3000 
    145 H145       -0.1396  -22.0821  -44.0404 H         1 UNK         0.0600 
    146 H146        2.1638  -21.1086  -44.4095 H         1 UNK         0.0600 
    147 H147        1.5469  -21.9986  -45.7913 H         1 UNK         0.0600 
    148 H148        1.5381  -20.2430  -45.8137 H         1 UNK         0.0600 
    149 H149        0.4276  -19.2095  -43.7674 H         1 UNK         0.3000 
    150 H150       -1.7101  -18.5961  -41.1932 H         1 UNK         0.0600 
    151 H151        0.0237  -18.5835  -39.3927 H         1 UNK         0.0600 
    152 H152       -0.6203  -20.1978  -39.6486 H         1 UNK         0.0600 
    153 H153        0.9673  -19.7775  -40.2800 H         1 UNK         0.0600 
    154 H154        1.0929  -17.9555  -41.9814 H         1 UNK         0.3000 
    155 H155        0.1829  -15.4138  -44.0856 H         1 UNK         0.0600 
    156 H156        1.0722  -14.6601  -41.2510 H         1 UNK         0.0600 
    157 H157       -0.2555  -13.9316  -42.1488 H         1 UNK         0.0600 
    158 H158        1.3978  -13.7136  -42.7008 H         1 UNK         0.0600 
    159 H159        2.6849  -15.7861  -42.8347 H         1 UNK         0.3000 
    160 H160        3.6921  -18.7532  -44.5741 H         1 UNK         0.0600 
    161 H161        4.5518  -15.8168  -44.7410 H         1 UNK         0.0600 
    162 H162        4.3345  -16.9466  -46.0757 H         1 UNK         0.0600 
    163 H163        5.6440  -17.1874  -44.9386 H         1 UNK         0.0600 
    164 H164        4.8328  -17.0646  -42.5164 H         1 UNK         0.3000 
    165 H165        3.7724  -19.0739  -39.7710 H         1 UNK         0.0600 
    166 H166        6.2214  -19.2045  -39.3986 H         1 UNK         0.0600 
    167 H167        5.7478  -20.2895  -40.6960 H         1 UNK         0.0600 
    168 H168        6.5306  -18.7605  -41.0774 H         1 UNK         0.0600 
    169 H169        5.4881  -16.7729  -40.0427 H         1 UNK         0.3000 
    170 H170        2.9596  -14.3123  -39.6961 H         1 UNK         0.0600 
    171 H171        3.3085  -15.0837  -37.3443 H         1 UNK         0.0600 
    172 H172        5.0336  -15.2552  -37.6453 H         1 UNK         0.0600 
    173 H173        4.2758  -13.6630  -37.7037 H         1 UNK         0.0600 
    174 H174        5.7670  -14.0462  -39.7041 H         1 UNK         0.3000 
    175 H175        6.7091  -12.9993  -41.4556 H         1 UNK         0.0600 
    176 H176        6.7557  -15.3790  -43.4079 H         1 UNK         0.0600 
    177 H177        8.1099  -14.3062  -43.0650 H         1 UNK         0.0600 
    178 H178        7.4918  -15.3663  -41.8087 H         1 UNK         0.0600 
    179 H179        4.9319  -13.0812  -43.7616 H         1 UNK         0.3000 
    180 H180        6.0638   -9.8924  -44.7726 H         1 UNK         0.0600 
    181 H181        6.3233  -12.3964  -46.5239 H         1 UNK         0.0600 
    182 H182        7.6033  -11.2261  -46.2273 H         1 UNK         0.0600 
    183 H183        6.1619  -10.7372  -47.1027 H         1 UNK         0.0600 
    184 H184        4.0810  -11.5669  -45.9217 H         1 UNK         0.3000 
    185 H185        1.5845  -11.5384  -43.6989 H         1 UNK         0.0600 
    186 H186        1.3249   -9.0569  -43.7574 H         1 UNK         0.0600 
    187 H187        1.5831   -9.0589  -45.4978 H         1 UNK         0.0600 
    188 H188        0.1588   -9.8398  -44.8086 H         1 UNK         0.0600 
    189 H189        1.2220  -11.3156  -46.4785 H         1 UNK         0.3000 
    190 H190       -3.8984  -22.1329  -45.0398 H         1 UNK         0.3000 
    191 H191       -5.7106  -23.3448  -46.8976 H         1 UNK         0.0600 
    192 H192       -5.8250  -23.7627  -44.4576 H         1 UNK         0.0600 
    193 H193       -5.5871  -25.2758  -45.3169 H         1 UNK         0.0600 
    194 H194       -4.2336  -24.5231  -44.4817 H         1 UNK         0.0600 
    195 H195       -2.2199  -23.7256  -46.3147 H         1 UNK         0.3000 
    196 H196       -1.8921  -26.0333  -48.0489 H         1 UNK         0.0600 
    197 H197        0.5267  -25.6281  -47.6573 H         1 UNK         0.0600 
    198 H198       -0.3550  -25.6194  -46.1379 H         1 UNK         0.0600 
    199 H199        0.1730  -24.1011  -46.8621 H         1 UNK         0.0600 
    200 H200       -1.4965  -22.4983  -48.3322 H         1 UNK         0.3000 
    201 H201       -0.4835  -22.4389  -50.9941 H         1 UNK         0.0600 
    202 H202       -0.3050  -20.5302  -49.4125 H         1 UNK         0.0600 
    203 H203       -2.0537  -20.3217  -49.4296 H         1 UNK         0.0600 
    204 H204       -1.1207  -20.0341  -50.8897 H         1 UNK         0.0600 
    205 H205       -3.8463  -22.1759  -49.7212 H         1 UNK         0.3000 
    206 H206       -5.0864  -21.9584  -52.2829 H         1 UNK         0.0600 
    207 H207       -6.1637  -21.1617  -50.2122 H         1 UNK         0.0600 
    208 H208       -7.1836  -22.3599  -50.9939 H         1 UNK         0.0600 
    209 H209       -6.2363  -22.8041  -49.5759 H         1 UNK         0.0600 
    210 H210       -4.3578  -24.7383  -50.1821 H         1 UNK         0.3000 
    211 H211       -4.2961  -26.9182  -50.4171 H         1 UNK         0.0600 
    212 H212       -4.0738  -26.4255  -53.4328 H         1 UNK         0.0600 
    213 H213       -3.5008  -27.8370  -52.5552 H         1 UNK         0.0600 
    214 H214       -2.7342  -26.2785  -52.2962 H         1 UNK         0.0600 
    215 H215       -6.9866  -25.5106  -50.8517 H         1 UNK         0.3000 
    216 H216       -9.1289  -25.8568  -51.2445 H         1 UNK         0.0600 
    217 H217      -10.1233  -28.0853  -50.9661 H         1 UNK         0.0600 
    218 H218       -8.8485  -27.8763  -49.7782 H         1 UNK         0.0600 
    219 H219       -8.5689  -28.8683  -51.2088 H         1 UNK         0.0600 
    220 H220       -7.2229  -25.5646  -53.5187 H         1 UNK         0.3000 
    221 H221       -9.0312  -26.3122  -55.7368 H         1 UNK         0.0600 
    222 H222       -6.1028  -27.2160  -55.5780 H         1 UNK         0.0600 
    223 H223       -7.5003  -28.2807  -55.4417 H         1 UNK         0.0600 
    224 H224       -7.1793  -27.4499  -56.9528 H         1 UNK         0.0600 
    225 H225       -8.0785  -23.8516  -54.3527 H         1 UNK         0.3000 
    226 H226       -7.5852  -21.7526  -54.7100 H         1 UNK         0.0600 
    227 H227       -8.9151  -21.7947  -56.8037 H         1 UNK         0.0600 
    228 H228       -7.5374  -20.7126  -56.9414 H         1 UNK         0.0600 
    229 H229       -7.4941  -22.2821  -57.7258 H         1 UNK         0.0600 
    230 H230       -5.5645  -23.6517  -56.9377 H         1 UNK         0.3000 
    231 H231       -3.3658  -23.6926  -57.4128 H         1 UNK         0.0600 
    232 H232       -3.4055  -23.9456  -54.3694 H         1 UNK         0.0600 
    233 H233       -2.0364  -24.4164  -55.3788 H         1 UNK         0.0600 
    234 H234       -3.5816  -25.2267  -55.5526 H         1 UNK         0.0600 
    235 H235       -1.9828  -22.2881  -54.5865 H         1 UNK         0.3000 
    236 H236       -0.5788  -20.3315  -56.2006 H         1 UNK         0.0600 
    237 H237        0.5165  -21.6135  -54.3418 H         1 UNK         0.0600 
    238 H238        0.6476  -19.8754  -54.1188 H         1 UNK         0.0600 
    239 H239       -0.5163  -20.7881  -53.1745 H         1 UNK         0.0600 
    240 H240       -3.5324  -20.2682  -54.3765 H         1 UNK         0.3000 
    241 H241       -3.5580  -17.3256  -54.1277 H         1 UNK         0.0600 
    242 H242       -4.1245  -19.4181  -56.7394 H         1 UNK         0.3800 
    243 H243       -5.3184  -18.4235  -57.5354 H         1 UNK         0.3800 
    244 H244       -5.7147  -17.6202  -52.9585 H         1 UNK         0.0800 
    245 H245       -5.6867  -19.3330  -53.2672 H         1 UNK         0.0800 
    246 H246       -3.1717  -16.5541  -51.8394 H         1 UNK         0.0800 
    247 H247       -4.6936  -16.4705  -50.9817 H         1 UNK         0.0800 
@<TRIPOS>BOND
     1    1    2 1    
     2    1  127 1    
     3    1  128 1    
     4    1  129 1    
     5    2    3 2    
     6    2    4 am   BACKBONE|DICT|INTERRES
     7    4    5 1    
     8    4  130 1    
     9    5    6 1    
    10    5   65 1    
    11    5  131 1    
    12    6    7 1    
    13    6  132 1    
    14    6  133 1    
    15    7    8 1    
    16    8    9 1    
    17    8  134 1    
    18    8  135 1    
    19    9   10 ar   
    20    9   14 ar   
    21   10   11 ar   
    22   10  136 1    
    23   11   12 ar   
    24   11  126 1    
    25   12   13 ar   
    26   12  137 1    
    27   13   14 ar   
    28   13   15 1    
    29   14  138 1    
    30   15   16 1    
    31   15  139 1    
    32   15  140 1    
    33   16   17 1    
    34   17   18 1    
    35   17  141 1    
    36   17  142 1    
    37   18   19 1    
    38   18   67 1    
    39   18  143 1    
    40   19   20 am   BACKBONE|DICT|INTERRES
    41   19  144 1    
    42   20   21 2    
    43   20   22 1    
    44   22   23 1    
    45   22   24 1    
    46   22  145 1    
    47   23  146 1    
    48   23  147 1    
    49   23  148 1    
    50   24   25 am   BACKBONE|DICT|INTERRES
    51   24  149 1    
    52   25   26 2    
    53   25   27 1    
    54   27   28 1    
    55   27   29 1    
    56   27  150 1    
    57   28  151 1    
    58   28  152 1    
    59   28  153 1    
    60   29   30 am   BACKBONE|DICT|INTERRES
    61   29  154 1    
    62   30   31 2    
    63   30   32 1    
    64   32   33 1    
    65   32   34 1    
    66   32  155 1    
    67   33  156 1    
    68   33  157 1    
    69   33  158 1    
    70   34   35 am   BACKBONE|DICT|INTERRES
    71   34  159 1    
    72   35   36 2    
    73   35   37 1    
    74   37   38 1    
    75   37   39 1    
    76   37  160 1    
    77   38  161 1    
    78   38  162 1    
    79   38  163 1    
    80   39   40 am   BACKBONE|DICT|INTERRES
    81   39  164 1    
    82   40   41 2    
    83   40   42 1    
    84   42   43 1    
    85   42   44 1    
    86   42  165 1    
    87   43  166 1    
    88   43  167 1    
    89   43  168 1    
    90   44   45 am   BACKBONE|DICT|INTERRES
    91   44  169 1    
    92   45   46 2    
    93   45   47 1    
    94   47   48 1    
    95   47   49 1    
    96   47  170 1    
    97   48  171 1    
    98   48  172 1    
    99   48  173 1    
   100   49   50 am   BACKBONE|DICT|INTERRES
   101   49  174 1    
   102   50   51 2    
   103   50   52 1    
   104   52   53 1    
   105   52   54 1    
   106   52  175 1    
   107   53  176 1    
   108   53  177 1    
   109   53  178 1    
   110   54   55 am   BACKBONE|DICT|INTERRES
   111   54  179 1    
   112   55   56 2    
   113   55   57 1    
   114   57   58 1    
   115   57   59 1    
   116   57  180 1    
   117   58  181 1    
   118   58  182 1    
   119   58  183 1    
   120   59   60 am   BACKBONE|DICT|INTERRES
   121   59  184 1    
   122   60   61 2    
   123   60   62 1    
   124   62   63 1    
   125   62   64 1    
   126   62  185 1    
   127   63  186 1    
   128   63  187 1    
   129   63  188 1    
   130   64   65 am   BACKBONE|DICT|INTERRES
   131   64  189 1    
   132   65   66 2    
   133   67   68 2    
   134   67   69 am   BACKBONE|DICT|INTERRES
   135   69   70 1    
   136   69  190 1    
   137   70   71 1    
   138   70   72 1    
   139   70  191 1    
   140   71  192 1    
   141   71  193 1    
   142   71  194 1    
   143   72   73 2    
   144   72   74 am   BACKBONE|DICT|INTERRES
   145   74   75 1    
   146   74  195 1    
   147   75   76 1    
   148   75   77 1    
   149   75  196 1    
   150   76  197 1    
   151   76  198 1    
   152   76  199 1    
   153   77   78 2    
   154   77   79 am   BACKBONE|DICT|INTERRES
   155   79   80 1    
   156   79  200 1    
   157   80   81 1    
   158   80   82 1    
   159   80  201 1    
   160   81  202 1    
   161   81  203 1    
   162   81  204 1    
   163   82   83 2    
   164   82   84 am   BACKBONE|DICT|INTERRES
   165   84   85 1    
   166   84  205 1    
   167   85   86 1    
   168   85   87 1    
   169   85  206 1    
   170   86  207 1    
   171   86  208 1    
   172   86  209 1    
   173   87   88 2    
   174   87   89 am   BACKBONE|DICT|INTERRES
   175   89   90 1    
   176   89  210 1    
   177   90   91 1    
   178   90   92 1    
   179   90  211 1    
   180   91  212 1    
   181   91  213 1    
   182   91  214 1    
   183   92   93 2    
   184   92   94 am   BACKBONE|DICT|INTERRES
   185   94   95 1    
   186   94  215 1    
   187   95   96 1    
   188   95   97 1    
   189   95  216 1    
   190   96  217 1    
   191   96  218 1    
   192   96  219 1    
   193   97   98 2    
   194   97   99 am   BACKBONE|DICT|INTERRES
   195   99  100 1    
   196   99  220 1    
   197  100  101 1    
   198  100  102 1    
   199  100  221 1    
   200  101  222 1    
   201  101  223 1    
   202  101  224 1    
   203  102  103 2    
   204  102  104 am   BACKBONE|DICT|INTERRES
   205  104  105 1    
   206  104  225 1    
   207  105  106 1    
   208  105  107 1    
   209  105  226 1    
   210  106  227 1    
   211  106  228 1    
   212  106  229 1    
   213  107  108 2    
   214  107  109 am   BACKBONE|DICT|INTERRES
   215  109  110 1    
   216  109  230 1    
   217  110  111 1    
   218  110  112 1    
   219  110  231 1    
   220  111  232 1    
   221  111  233 1    
   222  111  234 1    
   223  112  113 2    
   224  112  114 am   BACKBONE|DICT|INTERRES
   225  114  115 1    
   226  114  235 1    
   227  115  116 1    
   228  115  117 1    
   229  115  236 1    
   230  116  237 1    
   231  116  238 1    
   232  116  239 1    
   233  117  118 2    
   234  117  119 am   BACKBONE|DICT|INTERRES
   235  119  120 1    
   236  119  240 1    
   237  120  121 1    
   238  120  124 1    
   239  120  241 1    
   240  121  122 am   BACKBONE|DICT|INTERRES
   241  121  123 2    
   242  122  242 1    
   243  122  243 1    
   244  124  125 1    
   245  124  244 1    
   246  124  245 1    
   247  125  126 1    
   248  126  246 1    
   249  126  247 1    
@<TRIPOS>SUBSTRUCTURE
     1 UNK         1 GROUP             0       ****    0 ROOT    
