@<TRIPOS>MOLECULE
3R540
247   249    1
SMALL
USER_CHARGES


@<TRIPOS>ATOM
      1 CA         -7.4820  -12.6280  -49.3660 C.3       0 UNK        -0.1800 
      2 C          -6.1482  -12.1024  -48.8536 C.2       0 UNK         0.5000 
      3 O          -5.9101  -10.8948  -48.8919 O.2       0 UNK        -0.5000 
      4 N          -5.2767  -13.0031  -48.3832 N.am      1 UNK        -0.5000 
      5 CA         -3.9772  -12.6792  -47.7892 C.3       1 UNK         0.1400 
      6 C6         -3.0781  -13.9395  -47.6995 C.3       23 UNK        -0.0398 
      7 S7         -1.3222  -13.5492  -47.3783 S.3       23 UNK        -0.2404 
      8 C8         -0.6219  -15.2211  -47.1858 C.3       23 UNK        -0.0205 
      9 C9         -0.6516  -16.0385  -48.4725 C.ar      23 UNK        -0.0193 
     10 C10        -0.2131  -15.4949  -49.6854 C.ar      23 UNK        -0.1150 
     11 C11        -0.2371  -16.2572  -50.8568 C.ar      23 UNK        -0.0193 
     12 C12        -0.6943  -17.5744  -50.8084 C.ar      23 UNK        -0.1150 
     13 C13        -1.0912  -18.1470  -49.5977 C.ar      23 UNK        -0.0193 
     14 C14        -1.0825  -17.3671  -48.4385 C.ar      23 UNK        -0.1150 
     15 C15        -1.4524  -19.6236  -49.5445 C.3       23 UNK        -0.0205 
     16 S16        -3.1753  -19.9304  -49.0542 S.3       23 UNK        -0.2404 
     17 C17        -2.9940  -20.3547  -47.2879 C.3       23 UNK        -0.0398 
     18 CA         -2.6575  -21.8556  -47.0866 C.3       11 UNK         0.1400 
     19 N          -1.2175  -22.0983  -46.9409 N.am      11 UNK        -0.5000 
     20 C          -0.6512  -23.3135  -46.9575 C.2       10 UNK         0.5000 
     21 O          -1.2772  -24.3550  -47.1388 O.2       10 UNK        -0.5000 
     22 CA          0.8536  -23.3864  -46.6613 C.3       10 UNK         0.1400 
     23 CB          1.6811  -23.0313  -47.9069 C.3       10 UNK        -0.1800 
     24 N           1.2207  -22.5215  -45.5406 N.am      10 UNK        -0.5000 
     25 C           0.8768  -22.7568  -44.2660 C.2       9 UNK         0.5000 
     26 O           0.2468  -23.7503  -43.9024 O.2       9 UNK        -0.5000 
     27 CA          1.2687  -21.6868  -43.2298 C.3       9 UNK         0.1400 
     28 CB          2.7018  -21.9180  -42.7290 C.3       9 UNK        -0.1800 
     29 N           1.1521  -20.3242  -43.7501 N.am      9 UNK        -0.5000 
     30 C          -0.0095  -19.7333  -44.0676 C.2       8 UNK         0.5000 
     31 O          -1.1090  -20.2683  -43.9294 O.2       8 UNK        -0.5000 
     32 CA          0.0727  -18.3338  -44.7088 C.3       8 UNK         0.1400 
     33 CB          0.1440  -17.2553  -43.6206 C.3       8 UNK        -0.1800 
     34 N           1.2067  -18.1692  -45.6229 N.am      8 UNK        -0.5000 
     35 C           1.4883  -18.9792  -46.6563 C.2       7 UNK         0.5000 
     36 O           0.7645  -19.9171  -46.9853 O.2       7 UNK        -0.5000 
     37 CA          2.8123  -18.7597  -47.4166 C.3       7 UNK         0.1400 
     38 CB          2.5531  -18.0875  -48.7728 C.3       7 UNK        -0.1800 
     39 N           3.8025  -17.9758  -46.6769 N.am      7 UNK        -0.5000 
     40 C           4.3302  -18.2941  -45.4855 C.2       6 UNK         0.5000 
     41 O           4.0951  -19.3491  -44.8943 O.2       6 UNK        -0.5000 
     42 CA          5.2238  -17.2294  -44.8164 C.3       6 UNK         0.1400 
     43 CB          6.7068  -17.5917  -44.9863 C.3       6 UNK        -0.1800 
     44 N           5.0071  -15.8607  -45.3054 N.am      6 UNK        -0.5000 
     45 C           3.8593  -15.1739  -45.2155 C.2       5 UNK         0.5000 
     46 O           2.8153  -15.6392  -44.7516 O.2       5 UNK        -0.5000 
     47 CA          3.8678  -13.7573  -45.8131 C.3       5 UNK         0.1400 
     48 CB          3.4553  -13.7979  -47.2935 C.3       5 UNK        -0.1800 
     49 N           2.9533  -12.8784  -45.0882 N.am      5 UNK        -0.5000 
     50 C           3.2436  -12.2652  -43.9327 C.2       4 UNK         0.5000 
     51 O           4.3441  -12.3270  -43.3828 O.2       4 UNK        -0.5000 
     52 CA          2.1175  -11.4373  -43.2842 C.3       4 UNK         0.1400 
     53 CB          2.1747   -9.9785  -43.7636 C.3       4 UNK        -0.1800 
     54 N           0.7893  -11.9792  -43.5718 N.am      4 UNK        -0.5000 
     55 C           0.2538  -13.0455  -42.9615 C.2       3 UNK         0.5000 
     56 O           0.8132  -13.6580  -42.0511 O.2       3 UNK        -0.5000 
     57 CA         -1.1246  -13.5155  -43.4718 C.3       3 UNK         0.1400 
     58 CB         -1.9904  -14.1664  -42.3734 C.3       3 UNK        -0.1800 
     59 N          -1.8671  -12.4858  -44.2067 N.am      3 UNK        -0.5000 
     60 C          -2.4323  -11.3644  -43.7324 C.2       2 UNK         0.5000 
     61 O          -2.4016  -11.0256  -42.5493 O.2       2 UNK        -0.5000 
     62 CA         -3.1314  -10.4492  -44.7631 C.3       2 UNK         0.1400 
     63 CB         -2.3597   -9.1284  -44.9170 C.3       2 UNK        -0.1800 
     64 N          -3.2634  -11.0683  -46.0863 N.am      2 UNK        -0.5000 
     65 C          -4.1547  -12.0163  -46.4051 C.2       1 UNK         0.5000 
     66 O          -5.0404  -12.4086  -45.6414 O.2       1 UNK        -0.5000 
     67 C          -3.4674  -22.4745  -45.9305 C.2       11 UNK         0.5000 
     68 O          -4.5256  -23.0461  -46.1908 O.2       11 UNK        -0.5000 
     69 N          -2.9543  -22.3983  -44.6947 N.am      12 UNK        -0.5000 
     70 CA         -3.5514  -23.0427  -43.5236 C.3       12 UNK         0.1400 
     71 CB         -2.8216  -22.5891  -42.2503 C.3       12 UNK        -0.1800 
     72 C          -3.5640  -24.5794  -43.6331 C.2       12 UNK         0.5000 
     73 O          -4.5838  -25.1989  -43.3288 O.2       12 UNK        -0.5000 
     74 N          -2.4469  -25.1615  -44.0912 N.am      13 UNK        -0.5000 
     75 CA         -2.2900  -26.6015  -44.2996 C.3       13 UNK         0.1400 
     76 CB         -0.8035  -26.9245  -44.5156 C.3       13 UNK        -0.1800 
     77 C          -3.1379  -27.1392  -45.4681 C.2       13 UNK         0.5000 
     78 O          -3.7622  -28.1921  -45.3331 O.2       13 UNK        -0.5000 
     79 N          -3.1445  -26.4099  -46.5910 N.am      14 UNK        -0.5000 
     80 CA         -3.8239  -26.7884  -47.8319 C.3       14 UNK         0.1400 
     81 CB         -3.1126  -26.0980  -49.0061 C.3       14 UNK        -0.1800 
     82 C          -5.3270  -26.4518  -47.8530 C.2       14 UNK         0.5000 
     83 O          -6.0009  -26.8230  -48.8135 O.2       14 UNK        -0.5000 
     84 N          -5.8200  -25.7304  -46.8353 N.am      15 UNK        -0.5000 
     85 CA         -7.1813  -25.1944  -46.7120 C.3       15 UNK         0.1400 
     86 CB         -8.2167  -26.3290  -46.5654 C.3       15 UNK        -0.1800 
     87 C          -7.5070  -24.2073  -47.8534 C.2       15 UNK         0.5000 
     88 O          -8.5107  -24.3560  -48.5517 O.2       15 UNK        -0.5000 
     89 N          -6.6024  -23.2350  -48.0289 N.am      16 UNK        -0.5000 
     90 CA         -6.5894  -22.1432  -49.0090 C.3       16 UNK         0.1400 
     91 CB         -7.8576  -21.2734  -48.9025 C.3       16 UNK        -0.1800 
     92 C          -6.3035  -22.5664  -50.4646 C.2       16 UNK         0.5000 
     93 O          -6.1887  -21.6922  -51.3230 O.2       16 UNK        -0.5000 
     94 N          -6.1383  -23.8693  -50.7386 N.am      17 UNK        -0.5000 
     95 CA         -5.8529  -24.3973  -52.0794 C.3       17 UNK         0.1400 
     96 CB         -6.0341  -25.9219  -52.0780 C.3       17 UNK        -0.1800 
     97 C          -4.4586  -24.0111  -52.6178 C.2       17 UNK         0.5000 
     98 O          -4.2512  -24.0223  -53.8313 O.2       17 UNK        -0.5000 
     99 N          -3.5385  -23.6470  -51.7138 N.am      18 UNK        -0.5000 
    100 CA        -2.1899  -23.1712  -52.0255 C.3       18 UNK         0.1400 
    101 CB        -1.3083  -23.3115  -50.7733 C.3       18 UNK        -0.1800 
    102 C         -2.1436  -21.7211  -52.5480 C.2       18 UNK         0.5000 
    103 O         -1.0650  -21.2713  -52.9383 O.2       18 UNK        -0.5000 
    104 N         -3.2747  -20.9965  -52.5316 N.am      19 UNK        -0.5000 
    105 CA        -3.3763  -19.5772  -52.8961 C.3       19 UNK         0.1400 
    106 CB        -4.8192  -19.0959  -52.6908 C.3       19 UNK        -0.1800 
    107 C         -2.8946  -19.2469  -54.3214 C.2       19 UNK         0.5000 
    108 O         -2.3499  -18.1654  -54.5441 O.2       19 UNK        -0.5000 
    109 N         -3.0779  -20.1959  -55.2485 N.am      20 UNK        -0.5000 
    110 CA        -2.6070  -20.1077  -56.6302 C.3       20 UNK         0.1400 
    111 CB        -3.3906  -21.1185  -57.4819 C.3       20 UNK        -0.1800 
    112 C         -1.0900  -20.3464  -56.7748 C.2       20 UNK         0.5000 
    113 O         -0.5103  -19.9143  -57.7720 O.2       20 UNK        -0.5000 
    114 N         -0.4783  -21.0384  -55.8036 N.am      21 UNK        -0.5000 
    115 CA         0.9451  -21.3678  -55.7909 C.3       21 UNK         0.1400 
    116 CB         1.1514  -22.7420  -55.1318 C.3       21 UNK        -0.1800 
    117 C          1.7618  -20.2837  -55.0715 C.2       21 UNK         0.5000 
    118 O          2.7666  -19.8278  -55.6185 O.2       21 UNK        -0.5000 
    119 N          1.3138  -19.8854  -53.8703 N.am      22 UNK        -0.5000 
    120 CA         1.9723  -18.8836  -53.0089 C.3       22 UNK         0.1400 
    121 C          3.3829  -19.3165  -52.4926 C.2       22 UNK         0.5000 
    122 N          3.6408  -20.6092  -52.3299 N.am      22 UNK        -0.7600 
    123 O          4.2519  -18.4921  -52.2244 O.2       22 UNK        -0.5000 
    124 C124        1.9228  -17.4631  -53.6462 C.3       23 UNK        -0.0398 
    125 S125        2.0070  -16.0781  -52.4532 S.3       23 UNK        -0.2404 
    126 C126        0.2544  -15.6677  -52.1685 C.3       23 UNK        -0.0205 
    127 H127       -8.3014  -12.1910  -48.7951 H         1 UNK         0.0600 
    128 H128       -7.5501  -13.7129  -49.2822 H         1 UNK         0.0600 
    129 H129       -7.6139  -12.3592  -50.4141 H         1 UNK         0.0600 
    130 H130       -5.5454  -13.9759  -48.3497 H         1 UNK         0.3000 
    131 H131       -3.4901  -11.9629  -48.4551 H         1 UNK         0.0600 
    132 H132       -3.1177  -14.4849  -48.6438 H         1 UNK         0.0800 
    133 H133       -3.4439  -14.6295  -46.9364 H         1 UNK         0.0800 
    134 H134       -1.1630  -15.7355  -46.3904 H         1 UNK         0.0800 
    135 H135        0.4104  -15.1410  -46.8460 H         1 UNK         0.0800 
    136 H136        0.1507  -14.4776  -49.7169 H         1 UNK         0.1150 
    137 H137       -0.7029  -18.1627  -51.7138 H         1 UNK         0.1150 
    138 H138       -1.3882  -17.8034  -47.5019 H         1 UNK         0.1150 
    139 H139       -1.2872  -20.0735  -50.5193 H         1 UNK         0.0800 
    140 H140       -0.7719  -20.1492  -48.8811 H         1 UNK         0.0800 
    141 H141       -3.9439  -20.0876  -46.8202 H         1 UNK         0.0800 
    142 H142       -2.2491  -19.7197  -46.8100 H         1 UNK         0.0800 
    143 H143       -2.9788  -22.4037  -47.9747 H         1 UNK         0.0600 
    144 H144       -0.6170  -21.2899  -46.8066 H         1 UNK         0.3000 
    145 H145        1.0901  -24.4163  -46.3853 H         1 UNK         0.0600 
    146 H146        2.7498  -23.0861  -47.6999 H         1 UNK         0.0600 
    147 H147        1.4713  -23.7283  -48.7193 H         1 UNK         0.0600 
    148 H148        1.4618  -22.0306  -48.2778 H         1 UNK         0.0600 
    149 H149        1.6658  -21.6446  -45.7709 H         1 UNK         0.3000 
    150 H150        0.5908  -21.7840  -42.3792 H         1 UNK         0.0600 
    151 H151        2.8135  -22.9204  -42.3138 H         1 UNK         0.0600 
    152 H152        2.9638  -21.2095  -41.9431 H         1 UNK         0.0600 
    153 H153        3.4315  -21.8112  -43.5328 H         1 UNK         0.0600 
    154 H154        2.0169  -19.8325  -43.9378 H         1 UNK         0.3000 
    155 H155       -0.8414  -18.1802  -45.2831 H         1 UNK         0.0600 
    156 H156        1.0305  -17.3712  -42.9957 H         1 UNK         0.0600 
    157 H157       -0.7293  -17.2959  -42.9685 H         1 UNK         0.0600 
    158 H158        0.1819  -16.2605  -44.0597 H         1 UNK         0.0600 
    159 H159        1.8489  -17.4146  -45.4071 H         1 UNK         0.3000 
    160 H160        3.2422  -19.7462  -47.6008 H         1 UNK         0.0600 
    161 H161        2.1499  -17.0814  -48.6535 H         1 UNK         0.0600 
    162 H162        1.8372  -18.6602  -49.3636 H         1 UNK         0.0600 
    163 H163        3.4678  -18.0142  -49.3612 H         1 UNK         0.0600 
    164 H164        4.0571  -17.0858  -47.0776 H         1 UNK         0.3000 
    165 H165        4.9889  -17.2388  -43.7501 H         1 UNK         0.0600 
    166 H166        7.3479  -16.9017  -44.4373 H         1 UNK         0.0600 
    167 H167        6.9110  -18.5936  -44.6060 H         1 UNK         0.0600 
    168 H168        7.0084  -17.5708  -46.0343 H         1 UNK         0.0600 
    169 H169        5.8098  -15.4092  -45.7204 H         1 UNK         0.3000 
    170 H170        4.8795  -13.3506  -45.7481 H         1 UNK         0.0600 
    171 H171        4.1365  -14.4212  -47.8741 H         1 UNK         0.0600 
    172 H172        2.4515  -14.2005  -47.4264 H         1 UNK         0.0600 
    173 H173        3.4753  -12.8012  -47.7346 H         1 UNK         0.0600 
    174 H174        2.0121  -12.8146  -45.4438 H         1 UNK         0.3000 
    175 H175        2.2756  -11.4462  -42.2035 H         1 UNK         0.0600 
    176 H176        2.0169   -9.9002  -44.8400 H         1 UNK         0.0600 
    177 H177        1.4172   -9.3709  -43.2680 H         1 UNK         0.0600 
    178 H178        3.1450   -9.5326  -43.5407 H         1 UNK         0.0600 
    179 H179        0.2561  -11.5232  -44.2964 H         1 UNK         0.3000 
    180 H180       -0.9124  -14.2867  -44.2109 H         1 UNK         0.0600 
    181 H181       -2.9478  -14.5009  -42.7729 H         1 UNK         0.0600 
    182 H182       -2.1896  -13.4787  -41.5515 H         1 UNK         0.0600 
    183 H183       -1.4940  -15.0403  -41.9505 H         1 UNK         0.0600 
    184 H184       -1.9413  -12.6458  -45.2022 H         1 UNK         0.3000 
    185 H185       -4.1281  -10.2229  -44.3787 H         1 UNK         0.0600 
    186 H186       -2.8694   -8.4517  -45.6031 H         1 UNK         0.0600 
    187 H187       -2.2721   -8.6114  -43.9604 H         1 UNK         0.0600 
    188 H188       -1.3496   -9.2924  -45.2945 H         1 UNK         0.0600 
    189 H189       -2.5721  -10.8005  -46.7730 H         1 UNK         0.3000 
    190 H190       -2.1135  -21.8515  -44.5358 H         1 UNK         0.3000 
    191 H191       -4.5886  -22.7082  -43.4531 H         1 UNK         0.0600 
    192 H192       -3.2629  -23.0456  -41.3635 H         1 UNK         0.0600 
    193 H193       -2.8845  -21.5081  -42.1245 H         1 UNK         0.0600 
    194 H194       -1.7666  -22.8623  -42.2697 H         1 UNK         0.0600 
    195 H195       -1.6361  -24.5833  -44.2840 H         1 UNK         0.3000 
    196 H196       -2.6164  -27.1114  -43.3908 H         1 UNK         0.0600 
    197 H197       -0.4031  -26.4137  -45.3921 H         1 UNK         0.0600 
    198 H198       -0.2067  -26.6244  -43.6541 H         1 UNK         0.0600 
    199 H199       -0.6520  -27.9949  -44.6600 H         1 UNK         0.0600 
    200 H200       -2.5581  -25.5788  -46.6396 H         1 UNK         0.3000 
    201 H201       -3.7302  -27.8677  -47.9683 H         1 UNK         0.0600 
    202 H202       -3.2254  -25.0146  -48.9575 H         1 UNK         0.0600 
    203 H203       -3.5117  -26.4310  -49.9634 H         1 UNK         0.0600 
    204 H204       -2.0463  -26.3248  -49.0089 H         1 UNK         0.0600 
    205 H205       -5.1684  -25.4328  -46.1213 H         1 UNK         0.3000 
    206 H206       -7.1987  -24.6137  -45.7884 H         1 UNK         0.0600 
    207 H207       -7.9583  -26.9924  -45.7401 H         1 UNK         0.0600 
    208 H208       -9.2082  -25.9245  -46.3591 H         1 UNK         0.0600 
    209 H209       -8.2941  -26.9332  -47.4695 H         1 UNK         0.0600 
    210 H210       -5.8171  -23.2269  -47.3776 H         1 UNK         0.3000 
    211 H211       -5.7474  -21.5142  -48.7195 H         1 UNK         0.0600 
    212 H212       -7.7658  -20.3749  -49.5141 H         1 UNK         0.0600 
    213 H213       -8.0288  -20.9489  -47.8762 H         1 UNK         0.0600 
    214 H214       -8.7467  -21.8052  -49.2415 H         1 UNK         0.0600 
    215 H215       -6.2713  -24.5448  -49.9982 H         1 UNK         0.3000 
    216 H216       -6.5898  -23.9747  -52.7655 H         1 UNK         0.0600 
    217 H217       -5.3083  -26.4154  -51.4332 H         1 UNK         0.0600 
    218 H218       -5.9093  -26.3303  -53.0817 H         1 UNK         0.0600 
    219 H219       -7.0305  -26.2014  -51.7351 H         1 UNK         0.0600 
    220 H220       -3.8032  -23.6561  -50.7411 H         1 UNK         0.3000 
    221 H221       -1.7696  -23.8062  -52.8081 H         1 UNK         0.0600 
    222 H222       -1.2504  -24.3480  -50.4427 H         1 UNK         0.0600 
    223 H223       -1.6876  -22.7136  -49.9455 H         1 UNK         0.0600 
    224 H224       -0.2867  -22.9830  -50.9698 H         1 UNK         0.0600 
    225 H225       -4.1230  -21.4251  -52.1827 H         1 UNK         0.3000 
    226 H226       -2.7454  -19.0187  -52.2064 H         1 UNK         0.0600 
    227 H227       -5.5243  -19.6690  -53.2941 H         1 UNK         0.0600 
    228 H228       -5.1175  -19.1876  -51.6462 H         1 UNK         0.0600 
    229 H229       -4.9264  -18.0455  -52.9647 H         1 UNK         0.0600 
    230 H230       -3.5339  -21.0543  -54.9740 H         1 UNK         0.3000 
    231 H231       -2.8206  -19.1057  -57.0086 H         1 UNK         0.0600 
    232 H232       -3.2276  -22.1424  -57.1428 H         1 UNK         0.0600 
    233 H233       -3.0873  -21.0668  -58.5285 H         1 UNK         0.0600 
    234 H234       -4.4617  -20.9188  -57.4454 H         1 UNK         0.0600 
    235 H235       -1.0020  -21.2829  -54.9723 H         1 UNK         0.3000 
    236 H236        1.3126  -21.4393  -56.8170 H         1 UNK         0.0600 
    237 H237        0.6087  -23.5197  -55.6693 H         1 UNK         0.0600 
    238 H238        2.2060  -23.0202  -55.1367 H         1 UNK         0.0600 
    239 H239        0.8147  -22.7570  -54.0952 H         1 UNK         0.0600 
    240 H240        0.4800  -20.3281  -53.4921 H         1 UNK         0.3000 
    241 H241        1.3694  -18.8581  -52.1044 H         1 UNK         0.0600 
    242 H242        4.5488  -20.8931  -51.9980 H         1 UNK         0.3800 
    243 H243        2.9444  -21.3045  -52.5433 H         1 UNK         0.3800 
    244 H244        1.0092  -17.3499  -54.2310 H         1 UNK         0.0800 
    245 H245        2.7368  -17.3451  -54.3629 H         1 UNK         0.0800 
    246 H246        0.1508  -14.5819  -52.1464 H         1 UNK         0.0800 
    247 H247       -0.3695  -16.0116  -52.9947 H         1 UNK         0.0800 
@<TRIPOS>BOND
     1    1    2 1    
     2    1  127 1    
     3    1  128 1    
     4    1  129 1    
     5    2    3 2    
     6    2    4 am   BACKBONE|DICT|INTERRES
     7    4    5 1    
     8    4  130 1    
     9    5    6 1    
    10    5   65 1    
    11    5  131 1    
    12    6    7 1    
    13    6  132 1    
    14    6  133 1    
    15    7    8 1    
    16    8    9 1    
    17    8  134 1    
    18    8  135 1    
    19    9   10 ar   
    20    9   14 ar   
    21   10   11 ar   
    22   10  136 1    
    23   11   12 ar   
    24   11  126 1    
    25   12   13 ar   
    26   12  137 1    
    27   13   14 ar   
    28   13   15 1    
    29   14  138 1    
    30   15   16 1    
    31   15  139 1    
    32   15  140 1    
    33   16   17 1    
    34   17   18 1    
    35   17  141 1    
    36   17  142 1    
    37   18   19 1    
    38   18   67 1    
    39   18  143 1    
    40   19   20 am   BACKBONE|DICT|INTERRES
    41   19  144 1    
    42   20   21 2    
    43   20   22 1    
    44   22   23 1    
    45   22   24 1    
    46   22  145 1    
    47   23  146 1    
    48   23  147 1    
    49   23  148 1    
    50   24   25 am   BACKBONE|DICT|INTERRES
    51   24  149 1    
    52   25   26 2    
    53   25   27 1    
    54   27   28 1    
    55   27   29 1    
    56   27  150 1    
    57   28  151 1    
    58   28  152 1    
    59   28  153 1    
    60   29   30 am   BACKBONE|DICT|INTERRES
    61   29  154 1    
    62   30   31 2    
    63   30   32 1    
    64   32   33 1    
    65   32   34 1    
    66   32  155 1    
    67   33  156 1    
    68   33  157 1    
    69   33  158 1    
    70   34   35 am   BACKBONE|DICT|INTERRES
    71   34  159 1    
    72   35   36 2    
    73   35   37 1    
    74   37   38 1    
    75   37   39 1    
    76   37  160 1    
    77   38  161 1    
    78   38  162 1    
    79   38  163 1    
    80   39   40 am   BACKBONE|DICT|INTERRES
    81   39  164 1    
    82   40   41 2    
    83   40   42 1    
    84   42   43 1    
    85   42   44 1    
    86   42  165 1    
    87   43  166 1    
    88   43  167 1    
    89   43  168 1    
    90   44   45 am   BACKBONE|DICT|INTERRES
    91   44  169 1    
    92   45   46 2    
    93   45   47 1    
    94   47   48 1    
    95   47   49 1    
    96   47  170 1    
    97   48  171 1    
    98   48  172 1    
    99   48  173 1    
   100   49   50 am   BACKBONE|DICT|INTERRES
   101   49  174 1    
   102   50   51 2    
   103   50   52 1    
   104   52   53 1    
   105   52   54 1    
   106   52  175 1    
   107   53  176 1    
   108   53  177 1    
   109   53  178 1    
   110   54   55 am   BACKBONE|DICT|INTERRES
   111   54  179 1    
   112   55   56 2    
   113   55   57 1    
   114   57   58 1    
   115   57   59 1    
   116   57  180 1    
   117   58  181 1    
   118   58  182 1    
   119   58  183 1    
   120   59   60 am   BACKBONE|DICT|INTERRES
   121   59  184 1    
   122   60   61 2    
   123   60   62 1    
   124   62   63 1    
   125   62   64 1    
   126   62  185 1    
   127   63  186 1    
   128   63  187 1    
   129   63  188 1    
   130   64   65 am   BACKBONE|DICT|INTERRES
   131   64  189 1    
   132   65   66 2    
   133   67   68 2    
   134   67   69 am   BACKBONE|DICT|INTERRES
   135   69   70 1    
   136   69  190 1    
   137   70   71 1    
   138   70   72 1    
   139   70  191 1    
   140   71  192 1    
   141   71  193 1    
   142   71  194 1    
   143   72   73 2    
   144   72   74 am   BACKBONE|DICT|INTERRES
   145   74   75 1    
   146   74  195 1    
   147   75   76 1    
   148   75   77 1    
   149   75  196 1    
   150   76  197 1    
   151   76  198 1    
   152   76  199 1    
   153   77   78 2    
   154   77   79 am   BACKBONE|DICT|INTERRES
   155   79   80 1    
   156   79  200 1    
   157   80   81 1    
   158   80   82 1    
   159   80  201 1    
   160   81  202 1    
   161   81  203 1    
   162   81  204 1    
   163   82   83 2    
   164   82   84 am   BACKBONE|DICT|INTERRES
   165   84   85 1    
   166   84  205 1    
   167   85   86 1    
   168   85   87 1    
   169   85  206 1    
   170   86  207 1    
   171   86  208 1    
   172   86  209 1    
   173   87   88 2    
   174   87   89 am   BACKBONE|DICT|INTERRES
   175   89   90 1    
   176   89  210 1    
   177   90   91 1    
   178   90   92 1    
   179   90  211 1    
   180   91  212 1    
   181   91  213 1    
   182   91  214 1    
   183   92   93 2    
   184   92   94 am   BACKBONE|DICT|INTERRES
   185   94   95 1    
   186   94  215 1    
   187   95   96 1    
   188   95   97 1    
   189   95  216 1    
   190   96  217 1    
   191   96  218 1    
   192   96  219 1    
   193   97   98 2    
   194   97   99 am   BACKBONE|DICT|INTERRES
   195   99  100 1    
   196   99  220 1    
   197  100  101 1    
   198  100  102 1    
   199  100  221 1    
   200  101  222 1    
   201  101  223 1    
   202  101  224 1    
   203  102  103 2    
   204  102  104 am   BACKBONE|DICT|INTERRES
   205  104  105 1    
   206  104  225 1    
   207  105  106 1    
   208  105  107 1    
   209  105  226 1    
   210  106  227 1    
   211  106  228 1    
   212  106  229 1    
   213  107  108 2    
   214  107  109 am   BACKBONE|DICT|INTERRES
   215  109  110 1    
   216  109  230 1    
   217  110  111 1    
   218  110  112 1    
   219  110  231 1    
   220  111  232 1    
   221  111  233 1    
   222  111  234 1    
   223  112  113 2    
   224  112  114 am   BACKBONE|DICT|INTERRES
   225  114  115 1    
   226  114  235 1    
   227  115  116 1    
   228  115  117 1    
   229  115  236 1    
   230  116  237 1    
   231  116  238 1    
   232  116  239 1    
   233  117  118 2    
   234  117  119 am   BACKBONE|DICT|INTERRES
   235  119  120 1    
   236  119  240 1    
   237  120  121 1    
   238  120  124 1    
   239  120  241 1    
   240  121  122 am   BACKBONE|DICT|INTERRES
   241  121  123 2    
   242  122  242 1    
   243  122  243 1    
   244  124  125 1    
   245  124  244 1    
   246  124  245 1    
   247  125  126 1    
   248  126  246 1    
   249  126  247 1    
@<TRIPOS>SUBSTRUCTURE
     1 UNK         1 GROUP             0       ****    0 ROOT    
