@<TRIPOS>MOLECULE
3R540
247   249    1
SMALL
USER_CHARGES


@<TRIPOS>ATOM
      1 CA         -4.6967  -15.5150  -45.7005 C.3       0 UNK        -0.1800 
      2 C          -3.2648  -15.0174  -45.5716 C.2       0 UNK         0.5000 
      3 O          -3.0126  -14.0510  -44.8528 O.2       0 UNK        -0.5000 
      4 N          -2.3175  -15.6861  -46.2426 N.am      1 UNK        -0.5000 
      5 CA         -0.8883  -15.3424  -46.2429 C.3       1 UNK         0.1400 
      6 C6         -0.1079  -16.1796  -47.2875 C.3       23 UNK        -0.0398 
      7 S7          1.3514  -15.2957  -47.9305 S.3       23 UNK        -0.2404 
      8 C8          1.0127  -15.2272  -49.7233 C.3       23 UNK        -0.0205 
      9 C9          1.1692  -16.5388  -50.5000 C.ar      23 UNK        -0.0193 
     10 C10         0.8603  -16.5259  -51.8635 C.ar      23 UNK        -0.1150 
     11 C11         1.0007  -17.6760  -52.6416 C.ar      23 UNK        -0.0193 
     12 C12         1.4338  -18.8590  -52.0397 C.ar      23 UNK        -0.1150 
     13 C13         1.7313  -18.9102  -50.6752 C.ar      23 UNK        -0.0193 
     14 C14         1.6183  -17.7349  -49.9186 C.ar      23 UNK        -0.1150 
     15 C15         2.1735  -20.2580  -50.0908 C.3       23 UNK        -0.0205 
     16 S16         2.3812  -20.3608  -48.2745 S.3       23 UNK        -0.2404 
     17 C17         0.6806  -20.1060  -47.6690 C.3       23 UNK        -0.0398 
     18 CA         -0.0769  -21.4260  -47.4049 C.3       11 UNK         0.1400 
     19 N           0.5177  -22.2442  -46.3451 N.am      11 UNK        -0.5000 
     20 C           0.1972  -23.5311  -46.1363 C.2       10 UNK         0.5000 
     21 O          -0.6054  -24.1531  -46.8319 O.2       10 UNK        -0.5000 
     22 CA          0.8298  -24.2301  -44.9177 C.3       10 UNK         0.1400 
     23 CB          2.2047  -24.8082  -45.2833 C.3       10 UNK        -0.1800 
     24 N           0.9709  -23.3505  -43.7579 N.am      10 UNK        -0.5000 
     25 C          -0.0356  -22.7105  -43.1464 C.2       9 UNK         0.5000 
     26 O          -1.2196  -22.8565  -43.4495 O.2       9 UNK        -0.5000 
     27 CA          0.3424  -21.6980  -42.0477 C.3       9 UNK         0.1400 
     28 CB          0.1732  -22.3298  -40.6586 C.3       9 UNK        -0.1800 
     29 N           1.7005  -21.1500  -42.1621 N.am      9 UNK        -0.5000 
     30 C           2.2044  -20.4900  -43.2154 C.2       8 UNK         0.5000 
     31 O           1.5741  -20.2686  -44.2537 O.2       8 UNK        -0.5000 
     32 CA          3.6888  -20.0943  -43.0997 C.3       8 UNK         0.1400 
     33 CB          4.5813  -21.3314  -43.2954 C.3       8 UNK        -0.1800 
     34 N           4.0819  -19.0879  -44.0834 N.am      8 UNK        -0.5000 
     35 C           3.7652  -17.7897  -44.0287 C.2       7 UNK         0.5000 
     36 O           3.1383  -17.2719  -43.1010 O.2       7 UNK        -0.5000 
     37 CA          4.2546  -16.9311  -45.2055 C.3       7 UNK         0.1400 
     38 CB          3.7457  -17.4722  -46.5536 C.3       7 UNK        -0.1800 
     39 N           3.8259  -15.5477  -45.0183 N.am      7 UNK        -0.5000 
     40 C           4.4218  -14.4713  -45.5461 C.2       6 UNK         0.5000 
     41 O           5.3939  -14.5355  -46.3003 O.2       6 UNK        -0.5000 
     42 CA          3.8711  -13.0863  -45.1563 C.3       6 UNK         0.1400 
     43 CB          3.0805  -12.4494  -46.3097 C.3       6 UNK        -0.1800 
     44 N           3.0060  -13.1399  -43.9808 N.am      6 UNK        -0.5000 
     45 C           3.3941  -12.8916  -42.7247 C.2       5 UNK         0.5000 
     46 O           4.5518  -12.6076  -42.4116 O.2       5 UNK        -0.5000 
     47 CA          2.2946  -12.9755  -41.6448 C.3       5 UNK         0.1400 
     48 CB          2.6446  -12.1990  -40.3587 C.3       5 UNK        -0.1800 
     49 N           0.9709  -12.5897  -42.1464 N.am      5 UNK        -0.5000 
     50 C           0.5769  -11.3994  -42.6267 C.2       4 UNK         0.5000 
     51 O           1.2969  -10.4013  -42.6703 O.2       4 UNK        -0.5000 
     52 CA         -0.8663  -11.3095  -43.1704 C.3       4 UNK         0.1400 
     53 CB         -0.8529  -11.2420  -44.7060 C.3       4 UNK        -0.1800 
     54 N          -1.7091  -12.4353  -42.7616 N.am      4 UNK        -0.5000 
     55 C          -2.1824  -12.6380  -41.5240 C.2       3 UNK         0.5000 
     56 O          -2.0683  -11.8281  -40.6038 O.2       3 UNK        -0.5000 
     57 CA         -2.8335  -14.0085  -41.2612 C.3       3 UNK         0.1400 
     58 CB         -4.3262  -13.9936  -41.6253 C.3       3 UNK        -0.1800 
     59 N          -2.1524  -15.0787  -41.9965 N.am      3 UNK        -0.5000 
     60 C          -0.9389  -15.5561  -41.6813 C.2       2 UNK         0.5000 
     61 O          -0.2979  -15.1860  -40.6988 O.2       2 UNK        -0.5000 
     62 CA         -0.3144  -16.5873  -42.6370 C.3       2 UNK         0.1400 
     63 CB         -0.6610  -18.0129  -42.1931 C.3       2 UNK        -0.1800 
     64 N          -0.7326  -16.3975  -44.0265 N.am      2 UNK        -0.5000 
     65 C          -0.2504  -15.4435  -44.8363 C.2       1 UNK         0.5000 
     66 O           0.6208  -14.6415  -44.4967 O.2       1 UNK        -0.5000 
     67 C          -1.5576  -21.1289  -47.1112 C.2       11 UNK         0.5000 
     68 O          -2.3758  -21.2138  -48.0222 O.2       11 UNK        -0.5000 
     69 N          -1.8868  -20.8160  -45.8496 N.am      12 UNK        -0.5000 
     70 CA         -3.2603  -20.5545  -45.4101 C.3       12 UNK         0.1400 
     71 CB         -3.2473  -19.9353  -44.0066 C.3       12 UNK        -0.1800 
     72 C          -4.1568  -21.8056  -45.4638 C.2       12 UNK         0.5000 
     73 O          -5.3411  -21.6864  -45.7766 O.2       12 UNK        -0.5000 
     74 N          -3.5719  -22.9815  -45.1991 N.am      13 UNK        -0.5000 
     75 CA         -4.2164  -24.2812  -45.3774 C.3       13 UNK         0.1400 
     76 CB         -3.3635  -25.3729  -44.7133 C.3       13 UNK        -0.1800 
     77 C          -4.4671  -24.5988  -46.8637 C.2       13 UNK         0.5000 
     78 O          -5.5785  -24.9872  -47.2254 O.2       13 UNK        -0.5000 
     79 N          -3.4409  -24.4001  -47.7038 N.am      14 UNK        -0.5000 
     80 CA         -3.4951  -24.6339  -49.1485 C.3       14 UNK         0.1400 
     81 CB         -2.0718  -24.6126  -49.7182 C.3       14 UNK        -0.1800 
     82 C          -4.4087  -23.6485  -49.9039 C.2       14 UNK         0.5000 
     83 O          -4.9697  -24.0181  -50.9354 O.2       14 UNK        -0.5000 
     84 N          -4.5883  -22.4329  -49.3658 N.am      15 UNK        -0.5000 
     85 CA         -5.4687  -21.3786  -49.8838 C.3       15 UNK         0.1400 
     86 CB         -5.2711  -20.0911  -49.0686 C.3       15 UNK        -0.1800 
     87 C          -6.9643  -21.7546  -49.9511 C.2       15 UNK         0.5000 
     88 O          -7.7315  -21.0385  -50.5938 O.2       15 UNK        -0.5000 
     89 N          -7.3570  -22.8927  -49.3597 N.am      16 UNK        -0.5000 
     90 CA         -8.6512  -23.5460  -49.5752 C.3       16 UNK         0.1400 
     91 CB         -8.7515  -24.7689  -48.6521 C.3       16 UNK        -0.1800 
     92 C          -8.8895  -23.9573  -51.0468 C.2       16 UNK         0.5000 
     93 O         -10.0416  -24.0228  -51.4753 O.2       16 UNK        -0.5000 
     94 N          -7.8036  -24.1806  -51.8031 N.am      17 UNK        -0.5000 
     95 CA         -7.8045  -24.4198  -53.2486 C.3       17 UNK         0.1400 
     96 CB         -6.6852  -25.4229  -53.5772 C.3       17 UNK        -0.1800 
     97 C          -7.6410  -23.1160  -54.0641 C.2       17 UNK         0.5000 
     98 O          -7.3595  -23.1859  -55.2616 O.2       17 UNK        -0.5000 
     99 N          -7.7931  -21.9537  -53.4103 N.am      18 UNK        -0.5000 
    100 CA        -7.5957  -20.5830  -53.8934 C.3       18 UNK         0.1400 
    101 CB        -8.4823  -20.2528  -55.1109 C.3       18 UNK        -0.1800 
    102 C         -6.1127  -20.2593  -54.1400 C.2       18 UNK         0.5000 
    103 O         -5.5494  -19.4169  -53.4406 O.2       18 UNK        -0.5000 
    104 N         -5.4991  -20.9510  -55.1052 N.am      19 UNK        -0.5000 
    105 CA        -4.0729  -20.8818  -55.3972 C.3       19 UNK         0.1400 
    106 CB        -3.8395  -21.2513  -56.8719 C.3       19 UNK        -0.1800 
    107 C         -3.3243  -21.8259  -54.4441 C.2       19 UNK         0.5000 
    108 O         -3.3335  -23.0389  -54.6585 O.2       19 UNK        -0.5000 
    109 N         -2.7166  -21.2551  -53.3968 N.am      20 UNK        -0.5000 
    110 CA        -1.9502  -21.9817  -52.3828 C.3       20 UNK         0.1400 
    111 CB        -1.6057  -21.0224  -51.2343 C.3       20 UNK        -0.1800 
    112 C         -0.6810  -22.6399  -52.9552 C.2       20 UNK         0.5000 
    113 O         -0.4203  -23.8135  -52.6940 O.2       20 UNK        -0.5000 
    114 N          0.0528  -21.8683  -53.7611 N.am      21 UNK        -0.5000 
    115 CA         1.2123  -22.2783  -54.5529 C.3       21 UNK         0.1400 
    116 CB         2.4356  -22.5525  -53.6515 C.3       21 UNK        -0.1800 
    117 C          1.4627  -21.1780  -55.5980 C.2       21 UNK         0.5000 
    118 O          2.5913  -20.7115  -55.7588 O.2       21 UNK        -0.5000 
    119 N          0.3680  -20.7189  -56.2182 N.am      22 UNK        -0.5000 
    120 CA         0.2867  -19.4442  -56.9520 C.3       22 UNK         0.1400 
    121 C          0.1238  -19.6115  -58.4899 C.2       22 UNK         0.5000 
    122 N          0.1608  -20.8219  -59.0333 N.am      22 UNK        -0.7600 
    123 O         -0.0267  -18.6260  -59.2067 O.2       22 UNK        -0.5000 
    124 C124       -0.8092  -18.5086  -56.3588 C.3       23 UNK        -0.0398 
    125 S125       -0.8705  -18.4485  -54.5283 S.3       23 UNK        -0.2404 
    126 C126        0.7121  -17.6418  -54.1351 C.3       23 UNK        -0.0205 
    127 H127       -5.3263  -14.7341  -46.1267 H         1 UNK         0.0600 
    128 H128       -5.0924  -15.7749  -44.7186 H         1 UNK         0.0600 
    129 H129       -4.7651  -16.3957  -46.3394 H         1 UNK         0.0600 
    130 H130       -2.5874  -16.4676  -46.8223 H         1 UNK         0.3000 
    131 H131       -0.8347  -14.2919  -46.5378 H         1 UNK         0.0600 
    132 H132        0.2068  -17.1398  -46.8770 H         1 UNK         0.0800 
    133 H133       -0.7523  -16.4211  -48.1340 H         1 UNK         0.0800 
    134 H134        0.0061  -14.8344  -49.8754 H         1 UNK         0.0800 
    135 H135        1.6943  -14.4948  -50.1580 H         1 UNK         0.0800 
    136 H136        0.5225  -15.6086  -52.3255 H         1 UNK         0.1150 
    137 H137        1.5367  -19.7482  -52.6425 H         1 UNK         0.1150 
    138 H138        1.8783  -17.7551  -48.8734 H         1 UNK         0.1150 
    139 H139        1.4646  -21.0286  -50.3966 H         1 UNK         0.0800 
    140 H140        3.1269  -20.5261  -50.5478 H         1 UNK         0.0800 
    141 H141        0.1367  -19.4968  -48.3925 H         1 UNK         0.0800 
    142 H142        0.7385  -19.5132  -46.7550 H         1 UNK         0.0800 
    143 H143       -0.0464  -22.0116  -48.3260 H         1 UNK         0.0600 
    144 H144        1.1456  -21.7710  -45.7055 H         1 UNK         0.3000 
    145 H145        0.1738  -25.0547  -44.6315 H         1 UNK         0.0600 
    146 H146        2.6268  -25.3774  -44.4549 H         1 UNK         0.0600 
    147 H147        2.1291  -25.4846  -46.1359 H         1 UNK         0.0600 
    148 H148        2.9142  -24.0233  -45.5488 H         1 UNK         0.0600 
    149 H149        1.9105  -23.1704  -43.4385 H         1 UNK         0.3000 
    150 H150       -0.3619  -20.8704  -42.1261 H         1 UNK         0.0600 
    151 H151        0.8732  -23.1515  -40.5022 H         1 UNK         0.0600 
    152 H152       -0.8345  -22.7276  -40.5296 H         1 UNK         0.0600 
    153 H153        0.3331  -21.5956  -39.8687 H         1 UNK         0.0600 
    154 H154        2.2990  -21.3014  -41.3627 H         1 UNK         0.3000 
    155 H155        3.8608  -19.6889  -42.1003 H         1 UNK         0.0600 
    156 H156        4.4342  -21.7827  -44.2778 H         1 UNK         0.0600 
    157 H157        4.3704  -22.0969  -42.5477 H         1 UNK         0.0600 
    158 H158        5.6366  -21.0745  -43.2003 H         1 UNK         0.0600 
    159 H159        4.5650  -19.4336  -44.8990 H         1 UNK         0.3000 
    160 H160        5.3461  -16.9623  -45.1969 H         1 UNK         0.0600 
    161 H161        2.6639  -17.6039  -46.5435 H         1 UNK         0.0600 
    162 H162        4.1914  -18.4398  -46.7832 H         1 UNK         0.0600 
    163 H163        3.9977  -16.8056  -47.3783 H         1 UNK         0.0600 
    164 H164        3.0571  -15.4248  -44.3711 H         1 UNK         0.3000 
    165 H165        4.7334  -12.4474  -44.9548 H         1 UNK         0.0600 
    166 H166        2.8655  -11.4014  -46.1006 H         1 UNK         0.0600 
    167 H167        3.6392  -12.4876  -47.2457 H         1 UNK         0.0600 
    168 H168        2.1278  -12.9527  -46.4692 H         1 UNK         0.0600 
    169 H169        2.0467  -13.4365  -44.1434 H         1 UNK         0.3000 
    170 H170        2.2194  -14.0309  -41.3794 H         1 UNK         0.0600 
    171 H171        3.5546  -12.5893  -39.9017 H         1 UNK         0.0600 
    172 H172        2.8068  -11.1390  -40.5554 H         1 UNK         0.0600 
    173 H173        1.8488  -12.2860  -39.6188 H         1 UNK         0.0600 
    174 H174        0.2923  -13.3370  -42.1729 H         1 UNK         0.3000 
    175 H175       -1.3087  -10.3879  -42.7871 H         1 UNK         0.0600 
    176 H176       -0.2781  -10.3836  -45.0558 H         1 UNK         0.0600 
    177 H177       -0.4060  -12.1351  -45.1438 H         1 UNK         0.0600 
    178 H178       -1.8622  -11.1430  -45.1061 H         1 UNK         0.0600 
    179 H179       -1.9302  -13.1198  -43.4787 H         1 UNK         0.3000 
    180 H180       -2.7503  -14.2186  -40.1926 H         1 UNK         0.0600 
    181 H181       -4.4880  -13.7647  -42.6785 H         1 UNK         0.0600 
    182 H182       -4.8588  -13.2405  -41.0434 H         1 UNK         0.0600 
    183 H183       -4.7931  -14.9560  -41.4153 H         1 UNK         0.0600 
    184 H184       -2.5956  -15.3942  -42.8463 H         1 UNK         0.3000 
    185 H185        0.7684  -16.4702  -42.5851 H         1 UNK         0.0600 
    186 H186       -0.1810  -18.2509  -41.2431 H         1 UNK         0.0600 
    187 H187       -1.7345  -18.1490  -42.0602 H         1 UNK         0.0600 
    188 H188       -0.3134  -18.7378  -42.9274 H         1 UNK         0.0600 
    189 H189       -1.4546  -17.0082  -44.3764 H         1 UNK         0.3000 
    190 H190       -1.1670  -20.8144  -45.1416 H         1 UNK         0.3000 
    191 H191       -3.6948  -19.8201  -46.0920 H         1 UNK         0.0600 
    192 H192       -2.7392  -18.9727  -44.0178 H         1 UNK         0.0600 
    193 H193       -4.2618  -19.7599  -43.6465 H         1 UNK         0.0600 
    194 H194       -2.7477  -20.5785  -43.2819 H         1 UNK         0.0600 
    195 H195       -2.6142  -22.9829  -44.8629 H         1 UNK         0.3000 
    196 H196       -5.1842  -24.2537  -44.8721 H         1 UNK         0.0600 
    197 H197       -3.8389  -26.3500  -44.8071 H         1 UNK         0.0600 
    198 H198       -3.2309  -25.1752  -43.6494 H         1 UNK         0.0600 
    199 H199       -2.3735  -25.4447  -45.1639 H         1 UNK         0.0600 
    200 H200       -2.5426  -24.1128  -47.3274 H         1 UNK         0.3000 
    201 H201       -3.9021  -25.6347  -49.3070 H         1 UNK         0.0600 
    202 H202       -2.0768  -24.8364  -50.7851 H         1 UNK         0.0600 
    203 H203       -1.4432  -25.3616  -49.2364 H         1 UNK         0.0600 
    204 H204       -1.5980  -23.6412  -49.5798 H         1 UNK         0.0600 
    205 H205       -4.0125  -22.1774  -48.5699 H         1 UNK         0.3000 
    206 H206       -5.1548  -21.1754  -50.9098 H         1 UNK         0.0600 
    207 H207       -4.2437  -19.7345  -49.1317 H         1 UNK         0.0600 
    208 H208       -5.9085  -19.2884  -49.4416 H         1 UNK         0.0600 
    209 H209       -5.5146  -20.2402  -48.0173 H         1 UNK         0.0600 
    210 H210       -6.6723  -23.4163  -48.8307 H         1 UNK         0.3000 
    211 H211       -9.4345  -22.8379  -49.2980 H         1 UNK         0.0600 
    212 H212       -7.9771  -25.5041  -48.8751 H         1 UNK         0.0600 
    213 H213       -9.7174  -25.2638  -48.7609 H         1 UNK         0.0600 
    214 H214       -8.6484  -24.4828  -47.6052 H         1 UNK         0.0600 
    215 H215       -6.8842  -24.1060  -51.3754 H         1 UNK         0.3000 
    216 H216       -8.7548  -24.8680  -53.5448 H         1 UNK         0.0600 
    217 H217       -6.7158  -25.7169  -54.6269 H         1 UNK         0.0600 
    218 H218       -6.7823  -26.3324  -52.9843 H         1 UNK         0.0600 
    219 H219       -5.6981  -25.0001  -53.3849 H         1 UNK         0.0600 
    220 H220       -7.9903  -22.0045  -52.4177 H         1 UNK         0.3000 
    221 H221       -7.9244  -19.9353  -53.0794 H         1 UNK         0.0600 
    222 H222       -8.2131  -20.8312  -55.9944 H         1 UNK         0.0600 
    223 H223       -9.5330  -20.4443  -54.8938 H         1 UNK         0.0600 
    224 H224       -8.3928  -19.1990  -55.3770 H         1 UNK         0.0600 
    225 H225       -6.0234  -21.6982  -55.5496 H         1 UNK         0.3000 
    226 H226       -3.7142  -19.8611  -55.2478 H         1 UNK         0.0600 
    227 H227       -2.7767  -21.2398  -57.1158 H         1 UNK         0.0600 
    228 H228       -4.2200  -22.2463  -57.1065 H         1 UNK         0.0600 
    229 H229       -4.3326  -20.5414  -57.5361 H         1 UNK         0.0600 
    230 H230       -2.7908  -20.2542  -53.2769 H         1 UNK         0.3000 
    231 H231       -2.5863  -22.7760  -51.9919 H         1 UNK         0.0600 
    232 H232       -1.0607  -20.1465  -51.5856 H         1 UNK         0.0600 
    233 H233       -0.9883  -21.5135  -50.4836 H         1 UNK         0.0600 
    234 H234       -2.5074  -20.6715  -50.7335 H         1 UNK         0.0600 
    235 H235       -0.2476  -20.9132  -53.9081 H         1 UNK         0.3000 
    236 H236        0.9627  -23.1923  -55.0952 H         1 UNK         0.0600 
    237 H237        2.2370  -23.3490  -52.9350 H         1 UNK         0.0600 
    238 H238        3.2936  -22.8667  -54.2467 H         1 UNK         0.0600 
    239 H239        2.7338  -21.6672  -53.0906 H         1 UNK         0.0600 
    240 H240       -0.5067  -21.2008  -56.0768 H         1 UNK         0.3000 
    241 H241        1.2357  -18.9169  -56.8464 H         1 UNK         0.0600 
    242 H242        0.3140  -21.6371  -58.4610 H         1 UNK         0.3800 
    243 H243        0.0604  -20.9222  -60.0314 H         1 UNK         0.3800 
    244 H244       -0.6788  -17.4915  -56.7325 H         1 UNK         0.0800 
    245 H245       -1.7960  -18.8253  -56.6995 H         1 UNK         0.0800 
    246 H246        1.5272  -18.1424  -54.6579 H         1 UNK         0.0800 
    247 H247        0.6938  -16.6148  -54.5028 H         1 UNK         0.0800 
@<TRIPOS>BOND
     1    1    2 1    
     2    1  127 1    
     3    1  128 1    
     4    1  129 1    
     5    2    3 2    
     6    2    4 am   BACKBONE|DICT|INTERRES
     7    4    5 1    
     8    4  130 1    
     9    5    6 1    
    10    5   65 1    
    11    5  131 1    
    12    6    7 1    
    13    6  132 1    
    14    6  133 1    
    15    7    8 1    
    16    8    9 1    
    17    8  134 1    
    18    8  135 1    
    19    9   10 ar   
    20    9   14 ar   
    21   10   11 ar   
    22   10  136 1    
    23   11   12 ar   
    24   11  126 1    
    25   12   13 ar   
    26   12  137 1    
    27   13   14 ar   
    28   13   15 1    
    29   14  138 1    
    30   15   16 1    
    31   15  139 1    
    32   15  140 1    
    33   16   17 1    
    34   17   18 1    
    35   17  141 1    
    36   17  142 1    
    37   18   19 1    
    38   18   67 1    
    39   18  143 1    
    40   19   20 am   BACKBONE|DICT|INTERRES
    41   19  144 1    
    42   20   21 2    
    43   20   22 1    
    44   22   23 1    
    45   22   24 1    
    46   22  145 1    
    47   23  146 1    
    48   23  147 1    
    49   23  148 1    
    50   24   25 am   BACKBONE|DICT|INTERRES
    51   24  149 1    
    52   25   26 2    
    53   25   27 1    
    54   27   28 1    
    55   27   29 1    
    56   27  150 1    
    57   28  151 1    
    58   28  152 1    
    59   28  153 1    
    60   29   30 am   BACKBONE|DICT|INTERRES
    61   29  154 1    
    62   30   31 2    
    63   30   32 1    
    64   32   33 1    
    65   32   34 1    
    66   32  155 1    
    67   33  156 1    
    68   33  157 1    
    69   33  158 1    
    70   34   35 am   BACKBONE|DICT|INTERRES
    71   34  159 1    
    72   35   36 2    
    73   35   37 1    
    74   37   38 1    
    75   37   39 1    
    76   37  160 1    
    77   38  161 1    
    78   38  162 1    
    79   38  163 1    
    80   39   40 am   BACKBONE|DICT|INTERRES
    81   39  164 1    
    82   40   41 2    
    83   40   42 1    
    84   42   43 1    
    85   42   44 1    
    86   42  165 1    
    87   43  166 1    
    88   43  167 1    
    89   43  168 1    
    90   44   45 am   BACKBONE|DICT|INTERRES
    91   44  169 1    
    92   45   46 2    
    93   45   47 1    
    94   47   48 1    
    95   47   49 1    
    96   47  170 1    
    97   48  171 1    
    98   48  172 1    
    99   48  173 1    
   100   49   50 am   BACKBONE|DICT|INTERRES
   101   49  174 1    
   102   50   51 2    
   103   50   52 1    
   104   52   53 1    
   105   52   54 1    
   106   52  175 1    
   107   53  176 1    
   108   53  177 1    
   109   53  178 1    
   110   54   55 am   BACKBONE|DICT|INTERRES
   111   54  179 1    
   112   55   56 2    
   113   55   57 1    
   114   57   58 1    
   115   57   59 1    
   116   57  180 1    
   117   58  181 1    
   118   58  182 1    
   119   58  183 1    
   120   59   60 am   BACKBONE|DICT|INTERRES
   121   59  184 1    
   122   60   61 2    
   123   60   62 1    
   124   62   63 1    
   125   62   64 1    
   126   62  185 1    
   127   63  186 1    
   128   63  187 1    
   129   63  188 1    
   130   64   65 am   BACKBONE|DICT|INTERRES
   131   64  189 1    
   132   65   66 2    
   133   67   68 2    
   134   67   69 am   BACKBONE|DICT|INTERRES
   135   69   70 1    
   136   69  190 1    
   137   70   71 1    
   138   70   72 1    
   139   70  191 1    
   140   71  192 1    
   141   71  193 1    
   142   71  194 1    
   143   72   73 2    
   144   72   74 am   BACKBONE|DICT|INTERRES
   145   74   75 1    
   146   74  195 1    
   147   75   76 1    
   148   75   77 1    
   149   75  196 1    
   150   76  197 1    
   151   76  198 1    
   152   76  199 1    
   153   77   78 2    
   154   77   79 am   BACKBONE|DICT|INTERRES
   155   79   80 1    
   156   79  200 1    
   157   80   81 1    
   158   80   82 1    
   159   80  201 1    
   160   81  202 1    
   161   81  203 1    
   162   81  204 1    
   163   82   83 2    
   164   82   84 am   BACKBONE|DICT|INTERRES
   165   84   85 1    
   166   84  205 1    
   167   85   86 1    
   168   85   87 1    
   169   85  206 1    
   170   86  207 1    
   171   86  208 1    
   172   86  209 1    
   173   87   88 2    
   174   87   89 am   BACKBONE|DICT|INTERRES
   175   89   90 1    
   176   89  210 1    
   177   90   91 1    
   178   90   92 1    
   179   90  211 1    
   180   91  212 1    
   181   91  213 1    
   182   91  214 1    
   183   92   93 2    
   184   92   94 am   BACKBONE|DICT|INTERRES
   185   94   95 1    
   186   94  215 1    
   187   95   96 1    
   188   95   97 1    
   189   95  216 1    
   190   96  217 1    
   191   96  218 1    
   192   96  219 1    
   193   97   98 2    
   194   97   99 am   BACKBONE|DICT|INTERRES
   195   99  100 1    
   196   99  220 1    
   197  100  101 1    
   198  100  102 1    
   199  100  221 1    
   200  101  222 1    
   201  101  223 1    
   202  101  224 1    
   203  102  103 2    
   204  102  104 am   BACKBONE|DICT|INTERRES
   205  104  105 1    
   206  104  225 1    
   207  105  106 1    
   208  105  107 1    
   209  105  226 1    
   210  106  227 1    
   211  106  228 1    
   212  106  229 1    
   213  107  108 2    
   214  107  109 am   BACKBONE|DICT|INTERRES
   215  109  110 1    
   216  109  230 1    
   217  110  111 1    
   218  110  112 1    
   219  110  231 1    
   220  111  232 1    
   221  111  233 1    
   222  111  234 1    
   223  112  113 2    
   224  112  114 am   BACKBONE|DICT|INTERRES
   225  114  115 1    
   226  114  235 1    
   227  115  116 1    
   228  115  117 1    
   229  115  236 1    
   230  116  237 1    
   231  116  238 1    
   232  116  239 1    
   233  117  118 2    
   234  117  119 am   BACKBONE|DICT|INTERRES
   235  119  120 1    
   236  119  240 1    
   237  120  121 1    
   238  120  124 1    
   239  120  241 1    
   240  121  122 am   BACKBONE|DICT|INTERRES
   241  121  123 2    
   242  122  242 1    
   243  122  243 1    
   244  124  125 1    
   245  124  244 1    
   246  124  245 1    
   247  125  126 1    
   248  126  246 1    
   249  126  247 1    
@<TRIPOS>SUBSTRUCTURE
     1 UNK         1 GROUP             0       ****    0 ROOT    
