@<TRIPOS>MOLECULE
3R540
247   249    1
SMALL
USER_CHARGES


@<TRIPOS>ATOM
      1 CA         -4.5451  -15.2546  -45.1613 C.3       0 UNK        -0.1800 
      2 C          -5.3064  -13.9384  -45.0345 C.2       0 UNK         0.5000 
      3 O          -6.5118  -13.9728  -44.7932 O.2       0 UNK        -0.5000 
      4 N          -4.6890  -12.7584  -45.1964 N.am      1 UNK        -0.5000 
      5 CA         -3.2693  -12.4433  -45.4290 C.3       1 UNK         0.1400 
      6 C6         -2.6236  -13.1407  -46.6604 C.3       23 UNK        -0.0398 
      7 S7         -3.5352  -12.8129  -48.2052 S.3       23 UNK        -0.2404 
      8 C8         -2.3278  -13.3370  -49.4740 C.3       23 UNK        -0.0205 
      9 C9         -2.1925  -14.8485  -49.6692 C.ar      23 UNK        -0.0193 
     10 C10        -0.9842  -15.3651  -50.1531 C.ar      23 UNK        -0.1150 
     11 C11        -0.8350  -16.7341  -50.3991 C.ar      23 UNK        -0.0193 
     12 C12        -1.9087  -17.5918  -50.1538 C.ar      23 UNK        -0.1150 
     13 C13        -3.1150  -17.0992  -49.6556 C.ar      23 UNK        -0.0193 
     14 C14        -3.2575  -15.7271  -49.4312 C.ar      23 UNK        -0.1150 
     15 C15        -4.2529  -18.0595  -49.3452 C.3       23 UNK        -0.0205 
     16 S16        -4.6806  -18.0805  -47.5748 S.3       23 UNK        -0.2404 
     17 C17        -3.0872  -18.4713  -46.7631 C.3       23 UNK        -0.0398 
     18 CA         -2.9187  -19.9863  -46.4918 C.3       11 UNK         0.1400 
     19 N          -1.5330  -20.4655  -46.6449 N.am      11 UNK        -0.5000 
     20 C          -1.2248  -21.7537  -46.8707 C.2       10 UNK         0.5000 
     21 O          -2.0763  -22.6463  -46.8583 O.2       10 UNK        -0.5000 
     22 CA          0.2324  -22.1435  -47.1717 C.3       10 UNK         0.1400 
     23 CB          0.4116  -22.4002  -48.6805 C.3       10 UNK        -0.1800 
     24 N           1.2361  -21.1824  -46.7055 N.am      10 UNK        -0.5000 
     25 C           2.5228  -21.5130  -46.5135 C.2       9 UNK         0.5000 
     26 O           2.9619  -22.6574  -46.6380 O.2       9 UNK        -0.5000 
     27 CA          3.4915  -20.3888  -46.1181 C.3       9 UNK         0.1400 
     28 CB          3.7441  -19.4309  -47.2914 C.3       9 UNK        -0.1800 
     29 N           3.0142  -19.6471  -44.9556 N.am      9 UNK        -0.5000 
     30 C           3.1575  -20.0607  -43.6884 C.2       8 UNK         0.5000 
     31 O           3.7323  -21.1022  -43.3700 O.2       8 UNK        -0.5000 
     32 CA          2.5766  -19.1577  -42.5850 C.3       8 UNK         0.1400 
     33 CB          3.6855  -18.3124  -41.9423 C.3       8 UNK        -0.1800 
     34 N           1.5298  -18.2692  -43.0858 N.am      8 UNK        -0.5000 
     35 C           0.2699  -18.6560  -43.3157 C.2       7 UNK         0.5000 
     36 O          -0.1479  -19.7942  -43.1086 O.2       7 UNK        -0.5000 
     37 CA         -0.6720  -17.6094  -43.9299 C.3       7 UNK         0.1400 
     38 CB         -1.2797  -16.7249  -42.8323 C.3       7 UNK        -0.1800 
     39 N          -0.0274  -16.7783  -44.9521 N.am      7 UNK        -0.5000 
     40 C           0.4942  -17.2508  -46.0952 C.2       6 UNK         0.5000 
     41 O           0.4287  -18.4377  -46.4237 O.2       6 UNK        -0.5000 
     42 CA          1.2437  -16.2621  -47.0139 C.3       6 UNK         0.1400 
     43 CB          0.6222  -14.8571  -47.0431 C.3       6 UNK        -0.1800 
     44 N           2.6893  -16.1690  -46.7717 N.am      6 UNK        -0.5000 
     45 C           3.3287  -16.0459  -45.5992 C.2       5 UNK         0.5000 
     46 O           2.7780  -16.1226  -44.5009 O.2       5 UNK        -0.5000 
     47 CA          4.8537  -15.8104  -45.6295 C.3       5 UNK         0.1400 
     48 CB          5.4391  -15.5044  -47.0272 C.3       5 UNK        -0.1800 
     49 N           5.2082  -14.7826  -44.6452 N.am      5 UNK        -0.5000 
     50 C           4.8332  -13.4952  -44.6632 C.2       4 UNK         0.5000 
     51 O           4.3381  -12.9257  -45.6376 O.2       4 UNK        -0.5000 
     52 CA          4.9370  -12.7547  -43.3168 C.3       4 UNK         0.1400 
     53 CB          5.0638  -11.2307  -43.4892 C.3       4 UNK        -0.1800 
     54 N           3.7352  -13.0424  -42.5361 N.am      4 UNK        -0.5000 
     55 C           3.4959  -14.1860  -41.8786 C.2       3 UNK         0.5000 
     56 O           4.3574  -15.0476  -41.6991 O.2       3 UNK        -0.5000 
     57 CA          2.0680  -14.4121  -41.3346 C.3       3 UNK         0.1400 
     58 CB          2.0824  -14.5808  -39.8071 C.3       3 UNK        -0.1800 
     59 N           1.1460  -13.3248  -41.6813 N.am      3 UNK        -0.5000 
     60 C           0.4606  -13.2339  -42.8284 C.2       2 UNK         0.5000 
     61 O           0.4499  -14.1096  -43.6943 O.2       2 UNK        -0.5000 
     62 CA         -0.2840  -11.9040  -43.0541 C.3       2 UNK         0.1400 
     63 CB          0.7219  -10.7738  -43.3358 C.3       2 UNK        -0.1800 
     64 N          -1.2302  -11.9575  -44.1692 N.am      2 UNK        -0.5000 
     65 C          -2.4151  -12.5800  -44.1466 C.2       1 UNK         0.5000 
     66 O          -2.8429  -13.1874  -43.1620 O.2       1 UNK        -0.5000 
     67 C          -3.6191  -20.4530  -45.1926 C.2       11 UNK         0.5000 
     68 O          -4.8443  -20.3719  -45.1120 O.2       11 UNK        -0.5000 
     69 N          -2.8713  -21.0339  -44.2415 N.am      12 UNK        -0.5000 
     70 CA         -3.4172  -21.8007  -43.1136 C.3       12 UNK         0.1400 
     71 CB         -2.2722  -22.2229  -42.1811 C.3       12 UNK        -0.1800 
     72 C          -4.2374  -23.0376  -43.5494 C.2       12 UNK         0.5000 
     73 O          -5.1441  -23.4467  -42.8242 O.2       12 UNK        -0.5000 
     74 N          -3.9302  -23.5804  -44.7361 N.am      13 UNK        -0.5000 
     75 CA         -4.6764  -24.6394  -45.4185 C.3       13 UNK         0.1400 
     76 CB         -3.7032  -25.7858  -45.7458 C.3       13 UNK        -0.1800 
     77 C          -5.3616  -24.0916  -46.6898 C.2       13 UNK         0.5000 
     78 O          -5.5920  -24.8462  -47.6376 O.2       13 UNK        -0.5000 
     79 N          -5.6193  -22.7721  -46.7205 N.am      14 UNK        -0.5000 
     80 CA         -6.1826  -21.9817  -47.8256 C.3       14 UNK         0.1400 
     81 CB         -7.6537  -22.3756  -48.0710 C.3       14 UNK        -0.1800 
     82 C          -5.3506  -22.0308  -49.1260 C.2       14 UNK         0.5000 
     83 O          -5.8711  -21.7039  -50.1929 O.2       14 UNK        -0.5000 
     84 N          -4.0911  -22.4846  -49.0291 N.am      15 UNK        -0.5000 
     85 CA         -3.1839  -22.8272  -50.1246 C.3       15 UNK         0.1400 
     86 CB         -2.6243  -21.5520  -50.7825 C.3       15 UNK        -0.1800 
     87 C          -3.8079  -23.8244  -51.1213 C.2       15 UNK         0.5000 
     88 O          -3.6538  -23.6601  -52.3323 O.2       15 UNK        -0.5000 
     89 N          -4.5360  -24.8159  -50.5812 N.am      16 UNK        -0.5000 
     90 CA         -5.3196  -25.8252  -51.3017 C.3       16 UNK         0.1400 
     91 CB         -4.3936  -26.7686  -52.0994 C.3       16 UNK        -0.1800 
     92 C          -6.4297  -25.1873  -52.1643 C.2       16 UNK         0.5000 
     93 O          -6.6035  -25.5589  -53.3243 O.2       16 UNK        -0.5000 
     94 N          -7.1279  -24.1992  -51.5837 N.am      17 UNK        -0.5000 
     95 CA         -8.1063  -23.3111  -52.2251 C.3       17 UNK         0.1400 
     96 CB         -9.3606  -24.0904  -52.6726 C.3       17 UNK        -0.1800 
     97 C          -7.4617  -22.4784  -53.3544 C.2       17 UNK         0.5000 
     98 O          -7.9937  -22.4029  -54.4631 O.2       17 UNK        -0.5000 
     99 N          -6.2961  -21.8980  -53.0354 N.am      18 UNK        -0.5000 
    100 CA        -5.4110  -21.0970  -53.8873 C.3       18 UNK         0.1400 
    101 CB        -6.1068  -19.7919  -54.3243 C.3       18 UNK        -0.1800 
    102 C         -4.7803  -21.8556  -55.0774 C.2       18 UNK         0.5000 
    103 O         -4.2025  -21.2135  -55.9554 O.2       18 UNK        -0.5000 
    104 N         -4.8638  -23.1935  -55.0914 N.am      19 UNK        -0.5000 
    105 CA        -4.2775  -24.0425  -56.1296 C.3       19 UNK         0.1400 
    106 CB        -4.9547  -25.4201  -56.1170 C.3       19 UNK        -0.1800 
    107 C         -2.7529  -24.1928  -55.9833 C.2       19 UNK         0.5000 
    108 O         -2.0587  -24.2800  -56.9971 O.2       19 UNK        -0.5000 
    109 N         -2.2551  -24.2176  -54.7381 N.am      20 UNK        -0.5000 
    110 CA        -0.8243  -24.2868  -54.4330 C.3       20 UNK         0.1400 
    111 CB        -0.6229  -24.8672  -53.0242 C.3       20 UNK        -0.1800 
    112 C         -0.1514  -22.9085  -54.5453 C.2       20 UNK         0.5000 
    113 O          1.0277  -22.8367  -54.8938 O.2       20 UNK        -0.5000 
    114 N         -0.9139  -21.8471  -54.2344 N.am      21 UNK        -0.5000 
    115 CA        -0.5602  -20.4242  -54.3393 C.3       21 UNK         0.1400 
    116 CB        -0.5608  -19.9986  -55.8213 C.3       21 UNK        -0.1800 
    117 C          0.7485  -20.0361  -53.6119 C.2       21 UNK         0.5000 
    118 O          1.4677  -19.1475  -54.0715 O.2       21 UNK        -0.5000 
    119 N          1.0354  -20.7245  -52.4980 N.am      22 UNK        -0.5000 
    120 CA         2.2758  -20.6264  -51.7050 C.3       22 UNK         0.1400 
    121 C          3.5519  -21.1643  -52.4261 C.2       22 UNK         0.5000 
    122 N          3.4412  -21.9097  -53.5199 N.am      22 UNK        -0.7600 
    123 O          4.6683  -20.9337  -51.9692 O.2       22 UNK        -0.5000 
    124 C124        2.5016  -19.2253  -51.0663 C.3       23 UNK        -0.0398 
    125 S125        1.1090  -18.6961  -50.0139 S.3       23 UNK        -0.2404 
    126 C126        0.4657  -17.2836  -50.9703 C.3       23 UNK        -0.0205 
    127 H127       -5.0983  -16.0636  -44.6839 H         1 UNK         0.0600 
    128 H128       -3.5643  -15.2121  -44.6948 H         1 UNK         0.0600 
    129 H129       -4.4250  -15.5090  -46.2132 H         1 UNK         0.0600 
    130 H130       -5.2634  -11.9346  -45.0910 H         1 UNK         0.3000 
    131 H131       -3.2737  -11.3741  -45.6483 H         1 UNK         0.0600 
    132 H132       -1.6059  -12.7742  -46.8016 H         1 UNK         0.0800 
    133 H133       -2.5333  -14.2158  -46.5222 H         1 UNK         0.0800 
    134 H134       -2.6327  -12.9054  -50.4280 H         1 UNK         0.0800 
    135 H135       -1.3569  -12.8983  -49.2383 H         1 UNK         0.0800 
    136 H136       -0.1615  -14.6942  -50.3572 H         1 UNK         0.1150 
    137 H137       -1.7966  -18.6487  -50.3444 H         1 UNK         0.1150 
    138 H138       -4.2028  -15.3538  -49.0649 H         1 UNK         0.1150 
    139 H139       -5.1333  -17.7685  -49.9196 H         1 UNK         0.0800 
    140 H140       -4.0052  -19.0747  -49.6576 H         1 UNK         0.0800 
    141 H141       -3.0489  -17.8884  -45.8447 H         1 UNK         0.0800 
    142 H142       -2.2663  -18.1005  -47.3750 H         1 UNK         0.0800 
    143 H143       -3.4648  -20.4883  -47.2903 H         1 UNK         0.0600 
    144 H144       -0.8053  -19.7555  -46.6533 H         1 UNK         0.3000 
    145 H145        0.3979  -23.0856  -46.6444 H         1 UNK         0.0600 
    146 H146        1.4314  -22.6976  -48.9230 H         1 UNK         0.0600 
    147 H147       -0.2327  -23.2104  -49.0167 H         1 UNK         0.0600 
    148 H148        0.1732  -21.5137  -49.2681 H         1 UNK         0.0600 
    149 H149        0.9485  -20.2149  -46.5865 H         1 UNK         0.3000 
    150 H150        4.4496  -20.8504  -45.8684 H         1 UNK         0.0600 
    151 H151        4.1047  -19.9757  -48.1646 H         1 UNK         0.0600 
    152 H152        4.5016  -18.6904  -47.0377 H         1 UNK         0.0600 
    153 H153        2.8393  -18.9026  -47.5874 H         1 UNK         0.0600 
    154 H154        2.4805  -18.8083  -45.1295 H         1 UNK         0.3000 
    155 H155        2.1530  -19.8045  -41.8136 H         1 UNK         0.0600 
    156 H156        4.4593  -18.9465  -41.5082 H         1 UNK         0.0600 
    157 H157        3.2914  -17.6863  -41.1417 H         1 UNK         0.0600 
    158 H158        4.1676  -17.6599  -42.6710 H         1 UNK         0.0600 
    159 H159        1.8220  -17.3396  -43.3790 H         1 UNK         0.3000 
    160 H160       -1.4807  -18.1613  -44.4015 H         1 UNK         0.0600 
    161 H161       -0.5103  -16.2150  -42.2529 H         1 UNK         0.0600 
    162 H162       -1.8705  -17.3208  -42.1357 H         1 UNK         0.0600 
    163 H163       -1.9369  -15.9641  -43.2500 H         1 UNK         0.0600 
    164 H164        0.1543  -15.8104  -44.6955 H         1 UNK         0.3000 
    165 H165        1.1353  -16.6640  -48.0195 H         1 UNK         0.0600 
    166 H166        0.9982  -14.2853  -47.8913 H         1 UNK         0.0600 
    167 H167       -0.4584  -14.9200  -47.1531 H         1 UNK         0.0600 
    168 H168        0.8455  -14.2861  -46.1449 H         1 UNK         0.0600 
    169 H169        3.2536  -16.1192  -47.6073 H         1 UNK         0.3000 
    170 H170        5.3087  -16.7373  -45.2776 H         1 UNK         0.0600 
    171 H171        5.3236  -16.3565  -47.6977 H         1 UNK         0.0600 
    172 H172        4.9618  -14.6455  -47.4997 H         1 UNK         0.0600 
    173 H173        6.5067  -15.2940  -46.9632 H         1 UNK         0.0600 
    174 H174        5.5045  -15.1478  -43.7489 H         1 UNK         0.3000 
    175 H175        5.8203  -13.1120  -42.7831 H         1 UNK         0.0600 
    176 H176        4.1900  -10.8015  -43.9814 H         1 UNK         0.0600 
    177 H177        5.1799  -10.7352  -42.5252 H         1 UNK         0.0600 
    178 H178        5.9375  -10.9793  -44.0915 H         1 UNK         0.0600 
    179 H179        2.9648  -12.4044  -42.6577 H         1 UNK         0.3000 
    180 H180        1.7080  -15.3446  -41.7739 H         1 UNK         0.0600 
    181 H181        2.4532  -13.6857  -39.3064 H         1 UNK         0.0600 
    182 H182        2.7225  -15.4128  -39.5105 H         1 UNK         0.0600 
    183 H183        1.0832  -14.7913  -39.4252 H         1 UNK         0.0600 
    184 H184        1.0935  -12.5633  -41.0195 H         1 UNK         0.3000 
    185 H185       -0.8367  -11.6634  -42.1434 H         1 UNK         0.0600 
    186 H186        1.4057  -10.6291  -42.4987 H         1 UNK         0.0600 
    187 H187        1.3249  -10.9831  -44.2209 H         1 UNK         0.0600 
    188 H188        0.2120   -9.8235  -43.4961 H         1 UNK         0.0600 
    189 H189       -0.9374  -11.4873  -45.0126 H         1 UNK         0.3000 
    190 H190       -1.8653  -21.0366  -44.3424 H         1 UNK         0.3000 
    191 H191       -4.0886  -21.1450  -42.5555 H         1 UNK         0.0600 
    192 H192       -1.7882  -21.3547  -41.7348 H         1 UNK         0.0600 
    193 H193       -2.6405  -22.8398  -41.3603 H         1 UNK         0.0600 
    194 H194       -1.5123  -22.7986  -42.7108 H         1 UNK         0.0600 
    195 H195       -3.1705  -23.1761  -45.2753 H         1 UNK         0.3000 
    196 H196       -5.4660  -25.0321  -44.7753 H         1 UNK         0.0600 
    197 H197       -3.2181  -26.1587  -44.8437 H         1 UNK         0.0600 
    198 H198       -2.9228  -25.4637  -46.4368 H         1 UNK         0.0600 
    199 H199       -4.2236  -26.6279  -46.2036 H         1 UNK         0.0600 
    200 H200       -5.3890  -22.2291  -45.8958 H         1 UNK         0.3000 
    201 H201       -6.1685  -20.9411  -47.4995 H         1 UNK         0.0600 
    202 H202       -8.1255  -21.7077  -48.7927 H         1 UNK         0.0600 
    203 H203       -8.2347  -22.3147  -47.1508 H         1 UNK         0.0600 
    204 H204       -7.7445  -23.3911  -48.4570 H         1 UNK         0.0600 
    205 H205       -3.7404  -22.7170  -48.1071 H         1 UNK         0.3000 
    206 H206       -2.3520  -23.3624  -49.6710 H         1 UNK         0.0600 
    207 H207       -2.1277  -20.9257  -50.0424 H         1 UNK         0.0600 
    208 H208       -3.4090  -20.9585  -51.2491 H         1 UNK         0.0600 
    209 H209       -1.8874  -21.7933  -51.5473 H         1 UNK         0.0600 
    210 H210       -4.6404  -24.8337  -49.5721 H         1 UNK         0.3000 
    211 H211       -5.8269  -26.4230  -50.5431 H         1 UNK         0.0600 
    212 H212       -3.6408  -27.2191  -51.4528 H         1 UNK         0.0600 
    213 H213       -4.9614  -27.5825  -52.5516 H         1 UNK         0.0600 
    214 H214       -3.8734  -26.2486  -52.9037 H         1 UNK         0.0600 
    215 H215       -6.8696  -23.9417  -50.6420 H         1 UNK         0.3000 
    216 H216       -8.4195  -22.5975  -51.4614 H         1 UNK         0.0600 
    217 H217      -10.1322  -23.4093  -53.0332 H         1 UNK         0.0600 
    218 H218       -9.1417  -24.7895  -53.4800 H         1 UNK         0.0600 
    219 H219       -9.7884  -24.6564  -51.8453 H         1 UNK         0.0600 
    220 H220       -5.9834  -21.9982  -52.0726 H         1 UNK         0.3000 
    221 H221       -4.5726  -20.8151  -53.2513 H         1 UNK         0.0600 
    222 H222       -6.9226  -19.9819  -55.0222 H         1 UNK         0.0600 
    223 H223       -6.5152  -19.2574  -53.4666 H         1 UNK         0.0600 
    224 H224       -5.4055  -19.1186  -54.8185 H         1 UNK         0.0600 
    225 H225       -5.3259  -23.6603  -54.3224 H         1 UNK         0.3000 
    226 H226       -4.4761  -23.5835  -57.1005 H         1 UNK         0.0600 
    227 H227       -6.0371  -25.3306  -56.2121 H         1 UNK         0.0600 
    228 H228       -4.6035  -26.0335  -56.9476 H         1 UNK         0.0600 
    229 H229       -4.7419  -25.9652  -55.1974 H         1 UNK         0.0600 
    230 H230       -2.8875  -24.1162  -53.9465 H         1 UNK         0.3000 
    231 H231       -0.3410  -24.9584  -55.1458 H         1 UNK         0.0600 
    232 H232        0.4361  -25.0310  -52.8214 H         1 UNK         0.0600 
    233 H233       -1.1278  -25.8273  -52.9155 H         1 UNK         0.0600 
    234 H234       -1.0009  -24.1995  -52.2505 H         1 UNK         0.0600 
    235 H235       -1.8658  -22.0400  -53.9590 H         1 UNK         0.3000 
    236 H236       -1.3566  -19.8730  -53.8371 H         1 UNK         0.0600 
    237 H237       -1.5036  -20.2565  -56.3041 H         1 UNK         0.0600 
    238 H238       -0.4312  -18.9205  -55.9231 H         1 UNK         0.0600 
    239 H239        0.2431  -20.4817  -56.3778 H         1 UNK         0.0600 
    240 H240        0.3910  -21.4442  -52.2103 H         1 UNK         0.3000 
    241 H241        2.1353  -21.3239  -50.8798 H         1 UNK         0.0600 
    242 H242        4.2768  -22.2563  -53.9630 H         1 UNK         0.3800 
    243 H243        2.5363  -22.1288  -53.9268 H         1 UNK         0.3800 
    244 H244        3.3883  -19.2364  -50.4314 H         1 UNK         0.0800 
    245 H245        2.6989  -18.4765  -51.8341 H         1 UNK         0.0800 
    246 H246        0.2856  -17.5911  -52.0002 H         1 UNK         0.0800 
    247 H247        1.2307  -16.5065  -51.0048 H         1 UNK         0.0800 
@<TRIPOS>BOND
     1    1    2 1    
     2    1  127 1    
     3    1  128 1    
     4    1  129 1    
     5    2    3 2    
     6    2    4 am   BACKBONE|DICT|INTERRES
     7    4    5 1    
     8    4  130 1    
     9    5    6 1    
    10    5   65 1    
    11    5  131 1    
    12    6    7 1    
    13    6  132 1    
    14    6  133 1    
    15    7    8 1    
    16    8    9 1    
    17    8  134 1    
    18    8  135 1    
    19    9   10 ar   
    20    9   14 ar   
    21   10   11 ar   
    22   10  136 1    
    23   11   12 ar   
    24   11  126 1    
    25   12   13 ar   
    26   12  137 1    
    27   13   14 ar   
    28   13   15 1    
    29   14  138 1    
    30   15   16 1    
    31   15  139 1    
    32   15  140 1    
    33   16   17 1    
    34   17   18 1    
    35   17  141 1    
    36   17  142 1    
    37   18   19 1    
    38   18   67 1    
    39   18  143 1    
    40   19   20 am   BACKBONE|DICT|INTERRES
    41   19  144 1    
    42   20   21 2    
    43   20   22 1    
    44   22   23 1    
    45   22   24 1    
    46   22  145 1    
    47   23  146 1    
    48   23  147 1    
    49   23  148 1    
    50   24   25 am   BACKBONE|DICT|INTERRES
    51   24  149 1    
    52   25   26 2    
    53   25   27 1    
    54   27   28 1    
    55   27   29 1    
    56   27  150 1    
    57   28  151 1    
    58   28  152 1    
    59   28  153 1    
    60   29   30 am   BACKBONE|DICT|INTERRES
    61   29  154 1    
    62   30   31 2    
    63   30   32 1    
    64   32   33 1    
    65   32   34 1    
    66   32  155 1    
    67   33  156 1    
    68   33  157 1    
    69   33  158 1    
    70   34   35 am   BACKBONE|DICT|INTERRES
    71   34  159 1    
    72   35   36 2    
    73   35   37 1    
    74   37   38 1    
    75   37   39 1    
    76   37  160 1    
    77   38  161 1    
    78   38  162 1    
    79   38  163 1    
    80   39   40 am   BACKBONE|DICT|INTERRES
    81   39  164 1    
    82   40   41 2    
    83   40   42 1    
    84   42   43 1    
    85   42   44 1    
    86   42  165 1    
    87   43  166 1    
    88   43  167 1    
    89   43  168 1    
    90   44   45 am   BACKBONE|DICT|INTERRES
    91   44  169 1    
    92   45   46 2    
    93   45   47 1    
    94   47   48 1    
    95   47   49 1    
    96   47  170 1    
    97   48  171 1    
    98   48  172 1    
    99   48  173 1    
   100   49   50 am   BACKBONE|DICT|INTERRES
   101   49  174 1    
   102   50   51 2    
   103   50   52 1    
   104   52   53 1    
   105   52   54 1    
   106   52  175 1    
   107   53  176 1    
   108   53  177 1    
   109   53  178 1    
   110   54   55 am   BACKBONE|DICT|INTERRES
   111   54  179 1    
   112   55   56 2    
   113   55   57 1    
   114   57   58 1    
   115   57   59 1    
   116   57  180 1    
   117   58  181 1    
   118   58  182 1    
   119   58  183 1    
   120   59   60 am   BACKBONE|DICT|INTERRES
   121   59  184 1    
   122   60   61 2    
   123   60   62 1    
   124   62   63 1    
   125   62   64 1    
   126   62  185 1    
   127   63  186 1    
   128   63  187 1    
   129   63  188 1    
   130   64   65 am   BACKBONE|DICT|INTERRES
   131   64  189 1    
   132   65   66 2    
   133   67   68 2    
   134   67   69 am   BACKBONE|DICT|INTERRES
   135   69   70 1    
   136   69  190 1    
   137   70   71 1    
   138   70   72 1    
   139   70  191 1    
   140   71  192 1    
   141   71  193 1    
   142   71  194 1    
   143   72   73 2    
   144   72   74 am   BACKBONE|DICT|INTERRES
   145   74   75 1    
   146   74  195 1    
   147   75   76 1    
   148   75   77 1    
   149   75  196 1    
   150   76  197 1    
   151   76  198 1    
   152   76  199 1    
   153   77   78 2    
   154   77   79 am   BACKBONE|DICT|INTERRES
   155   79   80 1    
   156   79  200 1    
   157   80   81 1    
   158   80   82 1    
   159   80  201 1    
   160   81  202 1    
   161   81  203 1    
   162   81  204 1    
   163   82   83 2    
   164   82   84 am   BACKBONE|DICT|INTERRES
   165   84   85 1    
   166   84  205 1    
   167   85   86 1    
   168   85   87 1    
   169   85  206 1    
   170   86  207 1    
   171   86  208 1    
   172   86  209 1    
   173   87   88 2    
   174   87   89 am   BACKBONE|DICT|INTERRES
   175   89   90 1    
   176   89  210 1    
   177   90   91 1    
   178   90   92 1    
   179   90  211 1    
   180   91  212 1    
   181   91  213 1    
   182   91  214 1    
   183   92   93 2    
   184   92   94 am   BACKBONE|DICT|INTERRES
   185   94   95 1    
   186   94  215 1    
   187   95   96 1    
   188   95   97 1    
   189   95  216 1    
   190   96  217 1    
   191   96  218 1    
   192   96  219 1    
   193   97   98 2    
   194   97   99 am   BACKBONE|DICT|INTERRES
   195   99  100 1    
   196   99  220 1    
   197  100  101 1    
   198  100  102 1    
   199  100  221 1    
   200  101  222 1    
   201  101  223 1    
   202  101  224 1    
   203  102  103 2    
   204  102  104 am   BACKBONE|DICT|INTERRES
   205  104  105 1    
   206  104  225 1    
   207  105  106 1    
   208  105  107 1    
   209  105  226 1    
   210  106  227 1    
   211  106  228 1    
   212  106  229 1    
   213  107  108 2    
   214  107  109 am   BACKBONE|DICT|INTERRES
   215  109  110 1    
   216  109  230 1    
   217  110  111 1    
   218  110  112 1    
   219  110  231 1    
   220  111  232 1    
   221  111  233 1    
   222  111  234 1    
   223  112  113 2    
   224  112  114 am   BACKBONE|DICT|INTERRES
   225  114  115 1    
   226  114  235 1    
   227  115  116 1    
   228  115  117 1    
   229  115  236 1    
   230  116  237 1    
   231  116  238 1    
   232  116  239 1    
   233  117  118 2    
   234  117  119 am   BACKBONE|DICT|INTERRES
   235  119  120 1    
   236  119  240 1    
   237  120  121 1    
   238  120  124 1    
   239  120  241 1    
   240  121  122 am   BACKBONE|DICT|INTERRES
   241  121  123 2    
   242  122  242 1    
   243  122  243 1    
   244  124  125 1    
   245  124  244 1    
   246  124  245 1    
   247  125  126 1    
   248  126  246 1    
   249  126  247 1    
@<TRIPOS>SUBSTRUCTURE
     1 UNK         1 GROUP             0       ****    0 ROOT    
