@<TRIPOS>MOLECULE
3R540
247   249    1
SMALL
USER_CHARGES


@<TRIPOS>ATOM
      1 CA          6.5741  -13.0118  -45.2805 C.3       0 UNK        -0.1800 
      2 C           5.2411  -13.6985  -45.5362 C.2       0 UNK         0.5000 
      3 O           4.2008  -13.2020  -45.1026 O.2       0 UNK        -0.5000 
      4 N           5.2563  -14.8284  -46.2570 N.am      1 UNK        -0.5000 
      5 CA          4.0671  -15.6263  -46.5838 C.3       1 UNK         0.1400 
      6 C6          4.4346  -17.0032  -47.1946 C.3       23 UNK        -0.0398 
      7 S7          5.2551  -16.9239  -48.8284 S.3       23 UNK        -0.2404 
      8 C8          4.7911  -18.5342  -49.5661 C.3       23 UNK        -0.0205 
      9 C9          3.3739  -18.6493  -50.1393 C.ar      23 UNK        -0.0193 
     10 C10         2.3593  -17.7226  -49.8657 C.ar      23 UNK        -0.1150 
     11 C11         1.0712  -17.8917  -50.3768 C.ar      23 UNK        -0.0193 
     12 C12         0.7978  -18.9833  -51.1991 C.ar      23 UNK        -0.1150 
     13 C13         1.7965  -19.9103  -51.4995 C.ar      23 UNK        -0.0193 
     14 C14         3.0765  -19.7429  -50.9612 C.ar      23 UNK        -0.1150 
     15 C15         1.4881  -21.0777  -52.4233 C.3       23 UNK        -0.0205 
     16 S16         1.3310  -22.6610  -51.5408 S.3       23 UNK        -0.2404 
     17 C17        -0.0790  -22.3914  -50.4068 C.3       23 UNK        -0.0398 
     18 CA          0.1683  -23.1219  -49.0676 C.3       11 UNK         0.1400 
     19 N           1.3394  -22.6026  -48.3561 N.am      11 UNK        -0.5000 
     20 C           2.0580  -23.3180  -47.4818 C.2       10 UNK         0.5000 
     21 O           1.7978  -24.4817  -47.1765 O.2       10 UNK        -0.5000 
     22 CA          3.2231  -22.5843  -46.7898 C.3       10 UNK         0.1400 
     23 CB          4.4554  -22.5476  -47.7066 C.3       10 UNK        -0.1800 
     24 N           2.8889  -21.2166  -46.3757 N.am      10 UNK        -0.5000 
     25 C           1.8728  -20.8910  -45.5652 C.2       9 UNK         0.5000 
     26 O           1.0853  -21.7191  -45.1034 O.2       9 UNK        -0.5000 
     27 CA          1.6650  -19.3886  -45.2926 C.3       9 UNK         0.1400 
     28 CB          0.9935  -18.7305  -46.5078 C.3       9 UNK        -0.1800 
     29 N           0.8299  -19.1303  -44.1202 N.am      9 UNK        -0.5000 
     30 C           1.0974  -19.4782  -42.8565 C.2       8 UNK         0.5000 
     31 O           2.1633  -19.9902  -42.5102 O.2       8 UNK        -0.5000 
     32 CA          0.0054  -19.2381  -41.7858 C.3       8 UNK         0.1400 
     33 CB          0.3944  -18.0757  -40.8524 C.3       8 UNK        -0.1800 
     34 N          -1.3823  -19.0747  -42.2592 N.am      8 UNK        -0.5000 
     35 C          -1.8945  -18.1184  -43.0464 C.2       7 UNK         0.5000 
     36 O          -1.2192  -17.2531  -43.6007 O.2       7 UNK        -0.5000 
     37 CA         -3.4161  -18.1283  -43.2437 C.3       7 UNK         0.1400 
     38 CB         -4.1116  -17.3456  -42.1193 C.3       7 UNK        -0.1800 
     39 N          -3.7304  -17.4986  -44.5228 N.am      7 UNK        -0.5000 
     40 C          -4.5180  -18.0196  -45.4695 C.2       6 UNK         0.5000 
     41 O          -5.1458  -19.0683  -45.3198 O.2       6 UNK        -0.5000 
     42 CA         -4.6472  -17.2603  -46.8091 C.3       6 UNK         0.1400 
     43 CB         -6.1083  -16.8716  -47.0862 C.3       6 UNK        -0.1800 
     44 N          -3.8154  -16.0609  -46.9273 N.am      6 UNK        -0.5000 
     45 C          -2.4902  -16.0628  -47.1169 C.2       5 UNK         0.5000 
     46 O          -1.8144  -17.0908  -47.1191 O.2       5 UNK        -0.5000 
     47 CA         -1.8024  -14.7045  -47.3660 C.3       5 UNK         0.1400 
     48 CB         -2.7710  -13.5114  -47.5352 C.3       5 UNK        -0.1800 
     49 N          -0.7893  -14.4078  -46.3539 N.am      5 UNK        -0.5000 
     50 C          -0.9783  -14.2171  -45.0399 C.2       4 UNK         0.5000 
     51 O          -2.0722  -14.3042  -44.4791 O.2       4 UNK        -0.5000 
     52 CA          0.2623  -13.7842  -44.2290 C.3       4 UNK         0.1400 
     53 CB          1.1290  -14.9873  -43.8273 C.3       4 UNK        -0.1800 
     54 N           1.0936  -12.8248  -44.9576 N.am      4 UNK        -0.5000 
     55 C           0.7364  -11.5661  -45.2512 C.2       3 UNK         0.5000 
     56 O          -0.3148  -11.0452  -44.8769 O.2       3 UNK        -0.5000 
     57 CA          1.7141  -10.7563  -46.1211 C.3       3 UNK         0.1400 
     58 CB          2.7461  -10.0234  -45.2500 C.3       3 UNK        -0.1800 
     59 N           2.4061  -11.6111  -47.0859 N.am      3 UNK        -0.5000 
     60 C           1.8735  -12.0118  -48.2495 C.2       2 UNK         0.5000 
     61 O           0.7825  -11.6261  -48.6691 O.2       2 UNK        -0.5000 
     62 CA          2.6876  -13.0221  -49.0806 C.3       2 UNK         0.1400 
     63 CB          3.5865  -12.2943  -50.0908 C.3       2 UNK        -0.1800 
     64 N           3.5108  -13.9127  -48.2628 N.am      2 UNK        -0.5000 
     65 C           3.0332  -14.8516  -47.4336 C.2       1 UNK         0.5000 
     66 O           1.8344  -15.0864  -47.2911 O.2       1 UNK        -0.5000 
     67 C          -1.0910  -23.1560  -48.1750 C.2       11 UNK         0.5000 
     68 O          -1.9956  -23.9428  -48.4527 O.2       11 UNK        -0.5000 
     69 N          -1.1234  -22.3619  -47.0940 N.am      12 UNK        -0.5000 
     70 CA         -2.1656  -22.4299  -46.0676 C.3       12 UNK         0.1400 
     71 CB         -2.2252  -21.1160  -45.2750 C.3       12 UNK        -0.1800 
     72 C          -1.9650  -23.6417  -45.1461 C.2       12 UNK         0.5000 
     73 O          -2.9357  -24.3342  -44.8434 O.2       12 UNK        -0.5000 
     74 N          -0.7066  -23.9256  -44.7826 N.am      13 UNK        -0.5000 
     75 CA         -0.2995  -25.1282  -44.0513 C.3       13 UNK         0.1400 
     76 CB          1.1809  -25.0090  -43.6598 C.3       13 UNK        -0.1800 
     77 C          -0.5617  -26.4255  -44.8446 C.2       13 UNK         0.5000 
     78 O          -0.9276  -27.4394  -44.2498 O.2       13 UNK        -0.5000 
     79 N          -0.4207  -26.3541  -46.1760 N.am      14 UNK        -0.5000 
     80 CA         -0.7679  -27.4195  -47.1208 C.3       14 UNK         0.1400 
     81 CB         -0.0197  -27.1724  -48.4403 C.3       14 UNK        -0.1800 
     82 C          -2.2850  -27.5474  -47.3869 C.2       14 UNK         0.5000 
     83 O          -2.6909  -28.4963  -48.0587 O.2       14 UNK        -0.5000 
     84 N          -3.0875  -26.5963  -46.8826 N.am      15 UNK        -0.5000 
     85 CA         -4.5428  -26.4733  -47.0343 C.3       15 UNK         0.1400 
     86 CB         -5.2725  -27.6647  -46.3793 C.3       15 UNK        -0.1800 
     87 C          -5.0004  -26.2079  -48.4861 C.2       15 UNK         0.5000 
     88 O          -6.1309  -26.5401  -48.8461 O.2       15 UNK        -0.5000 
     89 N          -4.1287  -25.5835  -49.2880 N.am      16 UNK        -0.5000 
     90 CA         -4.3920  -25.1738  -50.6683 C.3       16 UNK         0.1400 
     91 CB         -3.1001  -25.3354  -51.4844 C.3       16 UNK        -0.1800 
     92 C          -4.9081  -23.7250  -50.7591 C.2       16 UNK         0.5000 
     93 O          -5.3508  -23.3104  -51.8319 O.2       16 UNK        -0.5000 
     94 N          -4.8544  -22.9766  -49.6456 N.am      17 UNK        -0.5000 
     95 CA         -5.2064  -21.5556  -49.5256 C.3       17 UNK         0.1400 
     96 CB         -4.8558  -21.0527  -48.1202 C.3       17 UNK        -0.1800 
     97 C          -6.6523  -21.1721  -49.8969 C.2       17 UNK         0.5000 
     98 O          -6.9296  -19.9849  -50.0637 O.2       17 UNK        -0.5000 
     99 N          -7.5365  -22.1650  -50.0629 N.am      18 UNK        -0.5000 
    100 CA        -8.8660  -22.0046  -50.6559 C.3       18 UNK         0.1400 
    101 CB        -9.6227  -23.3374  -50.5529 C.3       18 UNK        -0.1800 
    102 C         -8.8159  -21.5212  -52.1223 C.2       18 UNK         0.5000 
    103 O         -9.7466  -20.8475  -52.5659 O.2       18 UNK        -0.5000 
    104 N         -7.7268  -21.8527  -52.8299 N.am      19 UNK        -0.5000 
    105 CA        -7.4068  -21.3572  -54.1661 C.3       19 UNK         0.1400 
    106 CB        -7.2484  -22.5482  -55.1247 C.3       19 UNK        -0.1800 
    107 C         -6.1224  -20.5129  -54.1302 C.2       19 UNK         0.5000 
    108 O         -6.1026  -19.4067  -54.6709 O.2       19 UNK        -0.5000 
    109 N         -5.0738  -21.0300  -53.4762 N.am      20 UNK        -0.5000 
    110 CA        -3.7395  -20.4338  -53.3938 C.3       20 UNK         0.1400 
    111 CB        -2.7107  -21.5689  -53.2463 C.3       20 UNK        -0.1800 
    112 C         -3.6333  -19.3914  -52.2615 C.2       20 UNK         0.5000 
    113 O         -2.7358  -19.4775  -51.4231 O.2       20 UNK        -0.5000 
    114 N         -4.5681  -18.4336  -52.2369 N.am      21 UNK        -0.5000 
    115 CA        -4.6480  -17.3707  -51.2291 C.3       21 UNK         0.1400 
    116 CB        -6.0369  -16.7187  -51.3055 C.3       21 UNK        -0.1800 
    117 C         -3.5479  -16.2992  -51.3726 C.2       21 UNK         0.5000 
    118 O         -3.2861  -15.5780  -50.4116 O.2       21 UNK        -0.5000 
    119 N         -2.9636  -16.2015  -52.5746 N.am      22 UNK        -0.5000 
    120 CA        -1.8687  -15.3242  -53.0352 C.3       22 UNK         0.1400 
    121 C         -2.0507  -13.7803  -52.8918 C.2       22 UNK         0.5000 
    122 N         -2.9691  -13.2852  -52.0755 N.am      22 UNK        -0.7600 
    123 O         -1.3681  -13.0193  -53.5724 O.2       22 UNK        -0.5000 
    124 C124       -0.4609  -15.8247  -52.6014 C.3       23 UNK        -0.0398 
    125 S125        0.0795  -15.3501  -50.9211 S.3       23 UNK        -0.2404 
    126 C126       -0.0317  -16.9160  -50.0034 C.3       23 UNK        -0.0205 
    127 H127        6.7610  -12.9460  -44.2088 H         1 UNK         0.0600 
    128 H128        6.5584  -12.0008  -45.6876 H         1 UNK         0.0600 
    129 H129        7.4028  -13.5518  -45.7390 H         1 UNK         0.0600 
    130 H130        6.1342  -15.1851  -46.6082 H         1 UNK         0.3000 
    131 H131        3.5739  -15.8334  -45.6318 H         1 UNK         0.0600 
    132 H132        5.0970  -17.5384  -46.5130 H         1 UNK         0.0800 
    133 H133        3.5414  -17.6211  -47.2694 H         1 UNK         0.0800 
    134 H134        4.9389  -19.3204  -48.8247 H         1 UNK         0.0800 
    135 H135        5.5023  -18.7372  -50.3682 H         1 UNK         0.0800 
    136 H136        2.5470  -16.8639  -49.2452 H         1 UNK         0.1150 
    137 H137       -0.1963  -19.1151  -51.6009 H         1 UNK         0.1150 
    138 H138        3.8451  -20.4687  -51.1884 H         1 UNK         0.1150 
    139 H139        0.5776  -20.8900  -52.9919 H         1 UNK         0.0800 
    140 H140        2.2874  -21.1681  -53.1602 H         1 UNK         0.0800 
    141 H141       -0.9759  -22.7703  -50.8970 H         1 UNK         0.0800 
    142 H142       -0.2502  -21.3285  -50.2377 H         1 UNK         0.0800 
    143 H143        0.3749  -24.1634  -49.3199 H         1 UNK         0.0600 
    144 H144        1.6231  -21.6581  -48.5707 H         1 UNK         0.3000 
    145 H145        3.4791  -23.1484  -45.8906 H         1 UNK         0.0600 
    146 H146        5.3144  -22.1104  -47.1972 H         1 UNK         0.0600 
    147 H147        4.7409  -23.5539  -48.0164 H         1 UNK         0.0600 
    148 H148        4.2693  -21.9670  -48.6112 H         1 UNK         0.0600 
    149 H149        3.4904  -20.4868  -46.7262 H         1 UNK         0.3000 
    150 H150        2.6403  -18.9285  -45.1241 H         1 UNK         0.0600 
    151 H151       -0.0155  -19.1146  -46.6631 H         1 UNK         0.0600 
    152 H152        1.5507  -18.9156  -47.4254 H         1 UNK         0.0600 
    153 H153        0.9196  -17.6495  -46.3840 H         1 UNK         0.0600 
    154 H154       -0.0353  -18.6264  -44.2807 H         1 UNK         0.3000 
    155 H155       -0.0063  -20.1451  -41.1794 H         1 UNK         0.0600 
    156 H156        0.4055  -17.1207  -41.3752 H         1 UNK         0.0600 
    157 H157        1.3883  -18.2270  -40.4294 H         1 UNK         0.0600 
    158 H158       -0.3023  -17.9913  -40.0185 H         1 UNK         0.0600 
    159 H159       -2.0259  -19.7574  -41.8842 H         1 UNK         0.3000 
    160 H160       -3.7590  -19.1644  -43.2245 H         1 UNK         0.0600 
    161 H161       -3.7835  -16.3054  -42.0929 H         1 UNK         0.0600 
    162 H162       -3.8970  -17.7840  -41.1439 H         1 UNK         0.0600 
    163 H163       -5.1941  -17.3518  -42.2480 H         1 UNK         0.0600 
    164 H164       -3.1784  -16.6770  -44.7396 H         1 UNK         0.3000 
    165 H165       -4.3326  -17.9521  -47.5924 H         1 UNK         0.0600 
    166 H166       -6.2130  -16.4008  -48.0637 H         1 UNK         0.0600 
    167 H167       -6.7563  -17.7492  -47.0829 H         1 UNK         0.0600 
    168 H168       -6.4884  -16.1784  -46.3349 H         1 UNK         0.0600 
    169 H169       -4.2962  -15.1737  -46.9135 H         1 UNK         0.3000 
    170 H170       -1.2636  -14.8078  -48.3069 H         1 UNK         0.0600 
    171 H171       -3.4679  -13.6850  -48.3560 H         1 UNK         0.0600 
    172 H172       -3.3545  -13.3161  -46.6353 H         1 UNK         0.0600 
    173 H173       -2.2205  -12.6010  -47.7740 H         1 UNK         0.0600 
    174 H174        0.1692  -14.4219  -46.6929 H         1 UNK         0.3000 
    175 H175       -0.0829  -13.2959  -43.3153 H         1 UNK         0.0600 
    176 H176        0.6291  -15.5722  -43.0587 H         1 UNK         0.0600 
    177 H177        1.3223  -15.6519  -44.6693 H         1 UNK         0.0600 
    178 H178        2.0885  -14.6735  -43.4155 H         1 UNK         0.0600 
    179 H179        2.0008  -13.1500  -45.2665 H         1 UNK         0.3000 
    180 H180        1.1372  -10.0025  -46.6615 H         1 UNK         0.0600 
    181 H181        3.3452  -10.7160  -44.6585 H         1 UNK         0.0600 
    182 H182        2.2531   -9.3429  -44.5547 H         1 UNK         0.0600 
    183 H183        3.4257   -9.4284  -45.8602 H         1 UNK         0.0600 
    184 H184        3.2879  -12.0062  -46.7874 H         1 UNK         0.3000 
    185 H185        1.9793  -13.6362  -49.6364 H         1 UNK         0.0600 
    186 H186        2.9978  -11.6409  -50.7361 H         1 UNK         0.0600 
    187 H187        4.3355  -11.6773  -49.5929 H         1 UNK         0.0600 
    188 H188        4.1072  -13.0024  -50.7359 H         1 UNK         0.0600 
    189 H189        4.5113  -13.7914  -48.3210 H         1 UNK         0.3000 
    190 H190       -0.3136  -21.7992  -46.8763 H         1 UNK         0.3000 
    191 H191       -3.1289  -22.5697  -46.5569 H         1 UNK         0.0600 
    192 H192       -2.3293  -20.2563  -45.9372 H         1 UNK         0.0600 
    193 H193       -3.0843  -21.1148  -44.6038 H         1 UNK         0.0600 
    194 H194       -1.3370  -20.9637  -44.6642 H         1 UNK         0.0600 
    195 H195        0.0282  -23.2642  -45.0228 H         1 UNK         0.3000 
    196 H196       -0.8910  -25.1760  -43.1347 H         1 UNK         0.0600 
    197 H197        1.4995  -25.8705  -43.0718 H         1 UNK         0.0600 
    198 H198        1.3582  -24.1181  -43.0566 H         1 UNK         0.0600 
    199 H199        1.8274  -24.9520  -44.5354 H         1 UNK         0.0600 
    200 H200       -0.0302  -25.5067  -46.5701 H         1 UNK         0.3000 
    201 H201       -0.4252  -28.3708  -46.7088 H         1 UNK         0.0600 
    202 H202       -0.1372  -28.0182  -49.1187 H         1 UNK         0.0600 
    203 H203        1.0491  -27.0354  -48.2747 H         1 UNK         0.0600 
    204 H204       -0.3998  -26.2907  -48.9551 H         1 UNK         0.0600 
    205 H205       -2.6585  -25.8647  -46.3300 H         1 UNK         0.3000 
    206 H206       -4.8217  -25.5799  -46.4743 H         1 UNK         0.0600 
    207 H207       -4.9329  -27.8192  -45.3551 H         1 UNK         0.0600 
    208 H208       -6.3483  -27.4907  -46.3395 H         1 UNK         0.0600 
    209 H209       -5.1134  -28.5920  -46.9300 H         1 UNK         0.0600 
    210 H210       -3.2378  -25.2819  -48.9007 H         1 UNK         0.3000 
    211 H211       -5.1538  -25.8194  -51.1096 H         1 UNK         0.0600 
    212 H212       -2.2912  -24.7242  -51.0857 H         1 UNK         0.0600 
    213 H213       -3.2515  -25.0434  -52.5245 H         1 UNK         0.0600 
    214 H214       -2.7639  -26.3724  -51.4837 H         1 UNK         0.0600 
    215 H215       -4.4489  -23.4054  -48.8268 H         1 UNK         0.3000 
    216 H216       -4.5710  -21.0199  -50.2271 H         1 UNK         0.0600 
    217 H217       -5.2689  -20.0607  -47.9397 H         1 UNK         0.0600 
    218 H218       -3.7767  -20.9664  -48.0032 H         1 UNK         0.0600 
    219 H219       -5.2458  -21.7092  -47.3422 H         1 UNK         0.0600 
    220 H220       -7.2258  -23.1104  -49.8948 H         1 UNK         0.3000 
    221 H221       -9.4066  -21.2534  -50.0765 H         1 UNK         0.0600 
    222 H222       -9.1132  -24.1325  -51.0989 H         1 UNK         0.0600 
    223 H223       -9.7250  -23.6542  -49.5149 H         1 UNK         0.0600 
    224 H224      -10.6286  -23.2480  -50.9652 H         1 UNK         0.0600 
    225 H225       -7.0093  -22.4079  -52.3750 H         1 UNK         0.3000 
    226 H226       -8.2080  -20.7199  -54.5458 H         1 UNK         0.0600 
    227 H227       -6.9869  -22.2105  -56.1283 H         1 UNK         0.0600 
    228 H228       -6.4683  -23.2349  -54.7933 H         1 UNK         0.0600 
    229 H229       -8.1775  -23.1129  -55.2033 H         1 UNK         0.0600 
    230 H230       -5.1794  -21.9270  -53.0091 H         1 UNK         0.3000 
    231 H231       -3.5236  -19.9138  -54.3294 H         1 UNK         0.0600 
    232 H232       -2.8433  -22.1121  -52.3109 H         1 UNK         0.0600 
    233 H233       -1.6945  -21.1775  -53.2581 H         1 UNK         0.0600 
    234 H234       -2.7909  -22.2857  -54.0637 H         1 UNK         0.0600 
    235 H235       -5.2819  -18.4467  -52.9562 H         1 UNK         0.3000 
    236 H236       -4.5373  -17.8243  -50.2416 H         1 UNK         0.0600 
    237 H237       -6.8259  -17.4482  -51.1227 H         1 UNK         0.0600 
    238 H238       -6.1431  -15.9331  -50.5565 H         1 UNK         0.0600 
    239 H239       -6.2164  -16.2677  -52.2822 H         1 UNK         0.0600 
    240 H240       -3.3186  -16.8250  -53.2840 H         1 UNK         0.3000 
    241 H241       -1.9013  -15.4720  -54.1155 H         1 UNK         0.0600 
    242 H242       -3.0915  -12.2888  -51.9949 H         1 UNK         0.3800 
    243 H243       -3.4253  -13.9164  -51.4268 H         1 UNK         0.3800 
    244 H244       -0.4031  -16.9067  -52.7158 H         1 UNK         0.0800 
    245 H245        0.2851  -15.4274  -53.2912 H         1 UNK         0.0800 
    246 H246        0.0532  -16.6976  -48.9388 H         1 UNK         0.0800 
    247 H247       -1.0164  -17.3637  -50.1454 H         1 UNK         0.0800 
@<TRIPOS>BOND
     1    1    2 1    
     2    1  127 1    
     3    1  128 1    
     4    1  129 1    
     5    2    3 2    
     6    2    4 am   BACKBONE|DICT|INTERRES
     7    4    5 1    
     8    4  130 1    
     9    5    6 1    
    10    5   65 1    
    11    5  131 1    
    12    6    7 1    
    13    6  132 1    
    14    6  133 1    
    15    7    8 1    
    16    8    9 1    
    17    8  134 1    
    18    8  135 1    
    19    9   10 ar   
    20    9   14 ar   
    21   10   11 ar   
    22   10  136 1    
    23   11   12 ar   
    24   11  126 1    
    25   12   13 ar   
    26   12  137 1    
    27   13   14 ar   
    28   13   15 1    
    29   14  138 1    
    30   15   16 1    
    31   15  139 1    
    32   15  140 1    
    33   16   17 1    
    34   17   18 1    
    35   17  141 1    
    36   17  142 1    
    37   18   19 1    
    38   18   67 1    
    39   18  143 1    
    40   19   20 am   BACKBONE|DICT|INTERRES
    41   19  144 1    
    42   20   21 2    
    43   20   22 1    
    44   22   23 1    
    45   22   24 1    
    46   22  145 1    
    47   23  146 1    
    48   23  147 1    
    49   23  148 1    
    50   24   25 am   BACKBONE|DICT|INTERRES
    51   24  149 1    
    52   25   26 2    
    53   25   27 1    
    54   27   28 1    
    55   27   29 1    
    56   27  150 1    
    57   28  151 1    
    58   28  152 1    
    59   28  153 1    
    60   29   30 am   BACKBONE|DICT|INTERRES
    61   29  154 1    
    62   30   31 2    
    63   30   32 1    
    64   32   33 1    
    65   32   34 1    
    66   32  155 1    
    67   33  156 1    
    68   33  157 1    
    69   33  158 1    
    70   34   35 am   BACKBONE|DICT|INTERRES
    71   34  159 1    
    72   35   36 2    
    73   35   37 1    
    74   37   38 1    
    75   37   39 1    
    76   37  160 1    
    77   38  161 1    
    78   38  162 1    
    79   38  163 1    
    80   39   40 am   BACKBONE|DICT|INTERRES
    81   39  164 1    
    82   40   41 2    
    83   40   42 1    
    84   42   43 1    
    85   42   44 1    
    86   42  165 1    
    87   43  166 1    
    88   43  167 1    
    89   43  168 1    
    90   44   45 am   BACKBONE|DICT|INTERRES
    91   44  169 1    
    92   45   46 2    
    93   45   47 1    
    94   47   48 1    
    95   47   49 1    
    96   47  170 1    
    97   48  171 1    
    98   48  172 1    
    99   48  173 1    
   100   49   50 am   BACKBONE|DICT|INTERRES
   101   49  174 1    
   102   50   51 2    
   103   50   52 1    
   104   52   53 1    
   105   52   54 1    
   106   52  175 1    
   107   53  176 1    
   108   53  177 1    
   109   53  178 1    
   110   54   55 am   BACKBONE|DICT|INTERRES
   111   54  179 1    
   112   55   56 2    
   113   55   57 1    
   114   57   58 1    
   115   57   59 1    
   116   57  180 1    
   117   58  181 1    
   118   58  182 1    
   119   58  183 1    
   120   59   60 am   BACKBONE|DICT|INTERRES
   121   59  184 1    
   122   60   61 2    
   123   60   62 1    
   124   62   63 1    
   125   62   64 1    
   126   62  185 1    
   127   63  186 1    
   128   63  187 1    
   129   63  188 1    
   130   64   65 am   BACKBONE|DICT|INTERRES
   131   64  189 1    
   132   65   66 2    
   133   67   68 2    
   134   67   69 am   BACKBONE|DICT|INTERRES
   135   69   70 1    
   136   69  190 1    
   137   70   71 1    
   138   70   72 1    
   139   70  191 1    
   140   71  192 1    
   141   71  193 1    
   142   71  194 1    
   143   72   73 2    
   144   72   74 am   BACKBONE|DICT|INTERRES
   145   74   75 1    
   146   74  195 1    
   147   75   76 1    
   148   75   77 1    
   149   75  196 1    
   150   76  197 1    
   151   76  198 1    
   152   76  199 1    
   153   77   78 2    
   154   77   79 am   BACKBONE|DICT|INTERRES
   155   79   80 1    
   156   79  200 1    
   157   80   81 1    
   158   80   82 1    
   159   80  201 1    
   160   81  202 1    
   161   81  203 1    
   162   81  204 1    
   163   82   83 2    
   164   82   84 am   BACKBONE|DICT|INTERRES
   165   84   85 1    
   166   84  205 1    
   167   85   86 1    
   168   85   87 1    
   169   85  206 1    
   170   86  207 1    
   171   86  208 1    
   172   86  209 1    
   173   87   88 2    
   174   87   89 am   BACKBONE|DICT|INTERRES
   175   89   90 1    
   176   89  210 1    
   177   90   91 1    
   178   90   92 1    
   179   90  211 1    
   180   91  212 1    
   181   91  213 1    
   182   91  214 1    
   183   92   93 2    
   184   92   94 am   BACKBONE|DICT|INTERRES
   185   94   95 1    
   186   94  215 1    
   187   95   96 1    
   188   95   97 1    
   189   95  216 1    
   190   96  217 1    
   191   96  218 1    
   192   96  219 1    
   193   97   98 2    
   194   97   99 am   BACKBONE|DICT|INTERRES
   195   99  100 1    
   196   99  220 1    
   197  100  101 1    
   198  100  102 1    
   199  100  221 1    
   200  101  222 1    
   201  101  223 1    
   202  101  224 1    
   203  102  103 2    
   204  102  104 am   BACKBONE|DICT|INTERRES
   205  104  105 1    
   206  104  225 1    
   207  105  106 1    
   208  105  107 1    
   209  105  226 1    
   210  106  227 1    
   211  106  228 1    
   212  106  229 1    
   213  107  108 2    
   214  107  109 am   BACKBONE|DICT|INTERRES
   215  109  110 1    
   216  109  230 1    
   217  110  111 1    
   218  110  112 1    
   219  110  231 1    
   220  111  232 1    
   221  111  233 1    
   222  111  234 1    
   223  112  113 2    
   224  112  114 am   BACKBONE|DICT|INTERRES
   225  114  115 1    
   226  114  235 1    
   227  115  116 1    
   228  115  117 1    
   229  115  236 1    
   230  116  237 1    
   231  116  238 1    
   232  116  239 1    
   233  117  118 2    
   234  117  119 am   BACKBONE|DICT|INTERRES
   235  119  120 1    
   236  119  240 1    
   237  120  121 1    
   238  120  124 1    
   239  120  241 1    
   240  121  122 am   BACKBONE|DICT|INTERRES
   241  121  123 2    
   242  122  242 1    
   243  122  243 1    
   244  124  125 1    
   245  124  244 1    
   246  124  245 1    
   247  125  126 1    
   248  126  246 1    
   249  126  247 1    
@<TRIPOS>SUBSTRUCTURE
     1 UNK         1 GROUP             0       ****    0 ROOT    
