@<TRIPOS>MOLECULE
3R540
247   249    1
SMALL
USER_CHARGES


@<TRIPOS>ATOM
      1 CA         -0.4060  -11.2905  -50.8866 C.3       0 UNK        -0.1800 
      2 C           0.6089  -11.2488  -49.7533 C.2       0 UNK         0.5000 
      3 O           0.9035  -10.1741  -49.2310 O.2       0 UNK        -0.5000 
      4 N           1.1341  -12.4161  -49.3617 N.am      1 UNK        -0.5000 
      5 CA          2.1255  -12.5834  -48.2900 C.3       1 UNK         0.1400 
      6 C6          3.0743  -13.7787  -48.5741 C.3       23 UNK        -0.0398 
      7 S7          2.2533  -15.4116  -48.5618 S.3       23 UNK        -0.2404 
      8 C8          2.2287  -15.8450  -50.3264 C.3       23 UNK        -0.0205 
      9 C9          1.4167  -17.1117  -50.5308 C.ar      23 UNK        -0.0193 
     10 C10         0.0323  -17.0342  -50.7035 C.ar      23 UNK        -0.1150 
     11 C11        -0.7348  -18.1958  -50.8221 C.ar      23 UNK        -0.0193 
     12 C12        -0.1046  -19.4421  -50.7588 C.ar      23 UNK        -0.1150 
     13 C13         1.2812  -19.5332  -50.6051 C.ar      23 UNK        -0.0193 
     14 C14         2.0390  -18.3625  -50.5029 C.ar      23 UNK        -0.1150 
     15 C15         1.9474  -20.9006  -50.5379 C.3       23 UNK        -0.0205 
     16 S16         2.9484  -21.1536  -49.0326 S.3       23 UNK        -0.2404 
     17 C17         1.8306  -20.6465  -47.6803 C.3       23 UNK        -0.0398 
     18 CA          0.8920  -21.7825  -47.2012 C.3       11 UNK         0.1400 
     19 N           0.7143  -21.7795  -45.7465 N.am      11 UNK        -0.5000 
     20 C           0.1084  -22.7487  -45.0464 C.2       10 UNK         0.5000 
     21 O          -0.3110  -23.7905  -45.5486 O.2       10 UNK        -0.5000 
     22 CA         -0.1218  -22.4855  -43.5459 C.3       10 UNK         0.1400 
     23 CB          1.1214  -22.8481  -42.7204 C.3       10 UNK        -0.1800 
     24 N          -0.5045  -21.0987  -43.2792 N.am      10 UNK        -0.5000 
     25 C          -1.6349  -20.5277  -43.7183 C.2       9 UNK         0.5000 
     26 O          -2.5161  -21.1379  -44.3226 O.2       9 UNK        -0.5000 
     27 CA         -1.7742  -19.0105  -43.5040 C.3       9 UNK         0.1400 
     28 CB         -2.2978  -18.6906  -42.0954 C.3       9 UNK        -0.1800 
     29 N          -0.5122  -18.3068  -43.7395 N.am      9 UNK        -0.5000 
     30 C           0.0600  -18.1677  -44.9440 C.2       8 UNK         0.5000 
     31 O          -0.4353  -18.5945  -45.9864 O.2       8 UNK        -0.5000 
     32 CA          1.4330  -17.4718  -44.9853 C.3       8 UNK         0.1400 
     33 CB          1.2587  -15.9506  -45.0465 C.3       8 UNK        -0.1800 
     34 N           2.2851  -17.8142  -43.8455 N.am      8 UNK        -0.5000 
     35 C           2.7609  -19.0412  -43.5989 C.2       7 UNK         0.5000 
     36 O           2.5500  -20.0114  -44.3251 O.2       7 UNK        -0.5000 
     37 CA          3.5496  -19.2308  -42.2902 C.3       7 UNK         0.1400 
     38 CB          4.9958  -18.7364  -42.4432 C.3       7 UNK        -0.1800 
     39 N           2.9253  -18.5838  -41.1312 N.am      7 UNK        -0.5000 
     40 C           1.6889  -18.8442  -40.6811 C.2       6 UNK         0.5000 
     41 O           0.9250  -19.6352  -41.2326 O.2       6 UNK        -0.5000 
     42 CA          1.2063  -18.1096  -39.4139 C.3       6 UNK         0.1400 
     43 CB          0.9372  -19.1202  -38.2881 C.3       6 UNK        -0.1800 
     44 N           2.1574  -17.1097  -38.9181 N.am      6 UNK        -0.5000 
     45 C           2.2904  -15.8313  -39.2984 C.2       5 UNK         0.5000 
     46 O           3.1430  -15.1066  -38.7832 O.2       5 UNK        -0.5000 
     47 CA          1.3522  -15.2341  -40.3745 C.3       5 UNK         0.1400 
     48 CB          0.1066  -14.6088  -39.7287 C.3       5 UNK        -0.1800 
     49 N           2.0424  -14.2057  -41.1492 N.am      5 UNK        -0.5000 
     50 C           3.0056  -14.4532  -42.0429 C.2       4 UNK         0.5000 
     51 O           3.3165  -15.5947  -42.3880 O.2       4 UNK        -0.5000 
     52 CA          3.7201  -13.2283  -42.6508 C.3       4 UNK         0.1400 
     53 CB          4.7069  -13.6146  -43.7678 C.3       4 UNK        -0.1800 
     54 N           2.7669  -12.2483  -43.1742 N.am      4 UNK        -0.5000 
     55 C           2.1424  -11.3054  -42.4537 C.2       3 UNK         0.5000 
     56 O           2.3172  -11.1559  -41.2437 O.2       3 UNK        -0.5000 
     57 CA          1.1330  -10.3967  -43.1876 C.3       3 UNK         0.1400 
     58 CB          1.8123   -9.0944  -43.6371 C.3       3 UNK        -0.1800 
     59 N           0.5112  -11.0335  -44.3496 N.am      3 UNK        -0.5000 
     60 C          -0.2960  -12.1011  -44.2971 C.2       2 UNK         0.5000 
     61 O          -0.6964  -12.5978  -43.2438 O.2       2 UNK        -0.5000 
     62 CA         -0.7200  -12.7412  -45.6354 C.3       2 UNK         0.1400 
     63 CB         -2.1435  -12.2971  -46.0059 C.3       2 UNK        -0.1800 
     64 N           0.1540  -12.5104  -46.7949 N.am      2 UNK        -0.5000 
     65 C           1.4853  -12.6673  -46.8825 C.2       1 UNK         0.5000 
     66 O           2.2099  -12.8822  -45.9123 O.2       1 UNK        -0.5000 
     67 C          -0.4628  -21.7500  -47.9406 C.2       11 UNK         0.5000 
     68 O          -0.6650  -22.5302  -48.8694 O.2       11 UNK        -0.5000 
     69 N          -1.3874  -20.8890  -47.4900 N.am      12 UNK        -0.5000 
     70 CA         -2.7541  -20.8010  -48.0084 C.3       12 UNK         0.1400 
     71 CB         -3.4672  -19.5864  -47.3982 C.3       12 UNK        -0.1800 
     72 C          -3.5659  -22.0893  -47.7774 C.2       12 UNK         0.5000 
     73 O          -4.3045  -22.5067  -48.6701 O.2       12 UNK        -0.5000 
     74 N          -3.3876  -22.7206  -46.6085 N.am      13 UNK        -0.5000 
     75 CA         -3.9631  -24.0238  -46.2744 C.3       13 UNK         0.1400 
     76 CB         -3.7488  -24.3254  -44.7842 C.3       13 UNK        -0.1800 
     77 C          -3.4053  -25.1554  -47.1582 C.2       13 UNK         0.5000 
     78 O          -4.1835  -25.9733  -47.6492 O.2       13 UNK        -0.5000 
     79 N          -2.0847  -25.1509  -47.3968 N.am      14 UNK        -0.5000 
     80 CA         -1.3950  -26.0611  -48.3186 C.3       14 UNK         0.1400 
     81 CB          0.1248  -25.8951  -48.1714 C.3       14 UNK        -0.1800 
     82 C          -1.8306  -25.8756  -49.7867 C.2       14 UNK         0.5000 
     83 O          -1.8913  -26.8534  -50.5317 O.2       14 UNK        -0.5000 
     84 N          -2.1984  -24.6404  -50.1523 N.am      15 UNK        -0.5000 
     85 CA         -2.8377  -24.2585  -51.4138 C.3       15 UNK         0.1400 
     86 CB         -2.5503  -22.7691  -51.6826 C.3       15 UNK        -0.1800 
     87 C          -4.3532  -24.5748  -51.4585 C.2       15 UNK         0.5000 
     88 O          -5.0585  -24.0212  -52.3029 O.2       15 UNK        -0.5000 
     89 N          -4.8309  -25.4486  -50.5583 N.am      16 UNK        -0.5000 
     90 CA         -6.1961  -25.9667  -50.4325 C.3       16 UNK         0.1400 
     91 CB         -6.5642  -26.8385  -51.6505 C.3       16 UNK        -0.1800 
     92 C          -7.2248  -24.8619  -50.1280 C.2       16 UNK         0.5000 
     93 O          -8.2766  -24.7985  -50.7653 O.2       16 UNK        -0.5000 
     94 N          -6.8784  -24.0070  -49.1549 N.am      17 UNK        -0.5000 
     95 CA         -7.5972  -22.7975  -48.7400 C.3       17 UNK         0.1400 
     96 CB         -9.0002  -23.1270  -48.1875 C.3       17 UNK        -0.1800 
     97 C          -7.6016  -21.7376  -49.8595 C.2       17 UNK         0.5000 
     98 O          -8.6421  -21.1542  -50.1692 O.2       17 UNK        -0.5000 
     99 N          -6.4108  -21.5250  -50.4366 N.am      18 UNK        -0.5000 
    100 CA        -6.0880  -20.5886  -51.5139 C.3       18 UNK         0.1400 
    101 CB        -6.1817  -19.1346  -51.0059 C.3       18 UNK        -0.1800 
    102 C         -6.8882  -20.8324  -52.8108 C.2       18 UNK         0.5000 
    103 O         -7.3753  -19.8853  -53.4328 O.2       18 UNK        -0.5000 
    104 N         -6.9991  -22.1032  -53.2158 N.am      19 UNK        -0.5000 
    105 CA        -7.7103  -22.5459  -54.4146 C.3       19 UNK         0.1400 
    106 CB        -8.1946  -23.9894  -54.2005 C.3       19 UNK        -0.1800 
    107 C         -6.8242  -22.3998  -55.6671 C.2       19 UNK         0.5000 
    108 O         -6.4317  -23.3993  -56.2703 O.2       19 UNK        -0.5000 
    109 N         -6.4831  -21.1483  -56.0059 N.am      20 UNK        -0.5000 
    110 CA        -5.6832  -20.6793  -57.1511 C.3       20 UNK         0.1400 
    111 CB        -6.3384  -21.0818  -58.4862 C.3       20 UNK        -0.1800 
    112 C         -4.1882  -21.0685  -57.1312 C.2       20 UNK         0.5000 
    113 O         -3.3841  -20.3888  -57.7719 O.2       20 UNK        -0.5000 
    114 N         -3.8221  -22.1095  -56.3717 N.am      21 UNK        -0.5000 
    115 CA        -2.4635  -22.6360  -56.1972 C.3       21 UNK         0.1400 
    116 CB        -2.5438  -23.9468  -55.3986 C.3       21 UNK        -0.1800 
    117 C         -1.4571  -21.6478  -55.5656 C.2       21 UNK         0.5000 
    118 O         -0.2515  -21.8910  -55.6311 O.2       21 UNK        -0.5000 
    119 N         -1.9605  -20.5408  -55.0058 N.am      22 UNK        -0.5000 
    120 CA        -1.1867  -19.3572  -54.5970 C.3       22 UNK         0.1400 
    121 C         -0.4846  -18.6183  -55.7765 C.2       22 UNK         0.5000 
    122 N         -0.9251  -18.7791  -57.0205 N.am      22 UNK        -0.7600 
    123 O          0.4747  -17.8844  -55.5575 O.2       22 UNK        -0.5000 
    124 C124       -2.0651  -18.3502  -53.8114 C.3       23 UNK        -0.0398 
    125 S125       -2.8793  -19.1044  -52.3651 S.3       23 UNK        -0.2404 
    126 C126       -2.2447  -18.0935  -50.9908 C.3       23 UNK        -0.0205 
    127 H127       -1.3618  -10.8894  -50.5497 H         1 UNK         0.0600 
    128 H128       -0.5711  -12.3065  -51.2464 H         1 UNK         0.0600 
    129 H129       -0.0576  -10.6861  -51.7241 H         1 UNK         0.0600 
    130 H130        0.8366  -13.2709  -49.8097 H         1 UNK         0.3000 
    131 H131        2.7541  -11.6906  -48.2702 H         1 UNK         0.0600 
    132 H132        3.5743  -13.6312  -49.5322 H         1 UNK         0.0800 
    133 H133        3.8759  -13.8035  -47.8338 H         1 UNK         0.0800 
    134 H134        1.8009  -15.0274  -50.9082 H         1 UNK         0.0800 
    135 H135        3.2500  -15.9841  -50.6842 H         1 UNK         0.0800 
    136 H136       -0.4491  -16.0667  -50.7230 H         1 UNK         0.1150 
    137 H137       -0.6974  -20.3431  -50.8320 H         1 UNK         0.1150 
    138 H138        3.1093  -18.4274  -50.3660 H         1 UNK         0.1150 
    139 H139        1.2052  -21.6973  -50.6026 H         1 UNK         0.0800 
    140 H140        2.5919  -21.0182  -51.4098 H         1 UNK         0.0800 
    141 H141        1.2863  -19.7357  -47.9355 H         1 UNK         0.0800 
    142 H142        2.4952  -20.3501  -46.8697 H         1 UNK         0.0800 
    143 H143        1.3623  -22.7392  -47.4384 H         1 UNK         0.0600 
    144 H144        1.0951  -20.9858  -45.2409 H         1 UNK         0.3000 
    145 H145       -0.9429  -23.1261  -43.2183 H         1 UNK         0.0600 
    146 H146        0.9416  -22.7048  -41.6547 H         1 UNK         0.0600 
    147 H147        1.3947  -23.8936  -42.8680 H         1 UNK         0.0600 
    148 H148        1.9836  -22.2419  -42.9969 H         1 UNK         0.0600 
    149 H149        0.1460  -20.5378  -42.7358 H         1 UNK         0.3000 
    150 H150       -2.5057  -18.6397  -44.2251 H         1 UNK         0.0600 
    151 H151       -3.2698  -19.1569  -41.9301 H         1 UNK         0.0600 
    152 H152       -2.4254  -17.6170  -41.9561 H         1 UNK         0.0600 
    153 H153       -1.6278  -19.0532  -41.3164 H         1 UNK         0.0600 
    154 H154       -0.0096  -17.9857  -42.9265 H         1 UNK         0.3000 
    155 H155        1.9418  -17.7930  -45.8967 H         1 UNK         0.0600 
    156 H156        0.7743  -15.5570  -44.1520 H         1 UNK         0.0600 
    157 H157        2.2226  -15.4543  -45.1523 H         1 UNK         0.0600 
    158 H158        0.6533  -15.6671  -45.9075 H         1 UNK         0.0600 
    159 H159        2.5637  -17.0525  -43.2299 H         1 UNK         0.3000 
    160 H160        3.5815  -20.3027  -42.0842 H         1 UNK         0.0600 
    161 H161        5.0406  -17.6606  -42.6146 H         1 UNK         0.0600 
    162 H162        5.4867  -19.2231  -43.2870 H         1 UNK         0.0600 
    163 H163        5.5848  -18.9590  -41.5534 H         1 UNK         0.0600 
    164 H164        3.4851  -17.9030  -40.6390 H         1 UNK         0.3000 
    165 H165        0.2549  -17.6326  -39.6530 H         1 UNK         0.0600 
    166 H166        0.5457  -18.6252  -37.3991 H         1 UNK         0.0600 
    167 H167        0.1989  -19.8630  -38.5938 H         1 UNK         0.0600 
    168 H168        1.8430  -19.6567  -38.0025 H         1 UNK         0.0600 
    169 H169        2.7881  -17.4474  -38.2057 H         1 UNK         0.3000 
    170 H170        1.0336  -16.0077  -41.0736 H         1 UNK         0.0600 
    171 H171        0.3715  -13.8017  -39.0445 H         1 UNK         0.0600 
    172 H172       -0.5641  -14.1994  -40.4849 H         1 UNK         0.0600 
    173 H173       -0.4579  -15.3481  -39.1597 H         1 UNK         0.0600 
    174 H174        1.8680  -13.2414  -40.8950 H         1 UNK         0.3000 
    175 H175        4.2996  -12.7676  -41.8484 H         1 UNK         0.0600 
    176 H176        5.2088  -12.7357  -44.1723 H         1 UNK         0.0600 
    177 H177        4.2061  -14.1225  -44.5923 H         1 UNK         0.0600 
    178 H178        5.4799  -14.2857  -43.3916 H         1 UNK         0.0600 
    179 H179        2.5250  -12.3547  -44.1574 H         1 UNK         0.3000 
    180 H180        0.3420  -10.1439  -42.4786 H         1 UNK         0.0600 
    181 H181        2.6006   -9.2836  -44.3669 H         1 UNK         0.0600 
    182 H182        2.2658   -8.5778  -42.7901 H         1 UNK         0.0600 
    183 H183        1.0939   -8.4091  -44.0873 H         1 UNK         0.0600 
    184 H184        0.7992  -10.7023  -45.2585 H         1 UNK         0.3000 
    185 H185       -0.7430  -13.8184  -45.4682 H         1 UNK         0.0600 
    186 H186       -2.5175  -12.8463  -46.8702 H         1 UNK         0.0600 
    187 H187       -2.8389  -12.4778  -45.1849 H         1 UNK         0.0600 
    188 H188       -2.1820  -11.2326  -46.2407 H         1 UNK         0.0600 
    189 H189       -0.3247  -12.3093  -47.6600 H         1 UNK         0.3000 
    190 H190       -1.1312  -20.2295  -46.7607 H         1 UNK         0.3000 
    191 H191       -2.6860  -20.6439  -49.0859 H         1 UNK         0.0600 
    192 H192       -2.9132  -18.6668  -47.5872 H         1 UNK         0.0600 
    193 H193       -4.4622  -19.4636  -47.8276 H         1 UNK         0.0600 
    194 H194       -3.5860  -19.6869  -46.3196 H         1 UNK         0.0600 
    195 H195       -2.8204  -22.2726  -45.8949 H         1 UNK         0.3000 
    196 H196       -5.0390  -23.9651  -46.4512 H         1 UNK         0.0600 
    197 H197       -4.2197  -25.2691  -44.5067 H         1 UNK         0.0600 
    198 H198       -4.1852  -23.5469  -44.1581 H         1 UNK         0.0600 
    199 H199       -2.6915  -24.4015  -44.5330 H         1 UNK         0.0600 
    200 H200       -1.5032  -24.4750  -46.9087 H         1 UNK         0.3000 
    201 H201       -1.6525  -27.0814  -48.0272 H         1 UNK         0.0600 
    202 H202        0.4442  -26.0796  -47.1456 H         1 UNK         0.0600 
    203 H203        0.4516  -24.8932  -48.4480 H         1 UNK         0.0600 
    204 H204        0.6574  -26.6006  -48.8102 H         1 UNK         0.0600 
    205 H205       -2.0351  -23.8870  -49.4925 H         1 UNK         0.3000 
    206 H206       -2.3777  -24.8346  -52.2186 H         1 UNK         0.0600 
    207 H207       -1.4781  -22.5787  -51.7312 H         1 UNK         0.0600 
    208 H208       -2.9777  -22.4345  -52.6273 H         1 UNK         0.0600 
    209 H209       -2.9648  -22.1324  -50.9038 H         1 UNK         0.0600 
    210 H210       -4.1849  -25.7972  -49.8620 H         1 UNK         0.3000 
    211 H211       -6.1935  -26.6199  -49.5587 H         1 UNK         0.0600 
    212 H212       -6.5829  -26.2611  -52.5735 H         1 UNK         0.0600 
    213 H213       -7.5488  -27.2907  -51.5264 H         1 UNK         0.0600 
    214 H214       -5.8493  -27.6508  -51.7809 H         1 UNK         0.0600 
    215 H215       -5.9559  -24.1143  -48.7532 H         1 UNK         0.3000 
    216 H216       -7.0207  -22.3688  -47.9189 H         1 UNK         0.0600 
    217 H217       -9.4618  -22.2404  -47.7517 H         1 UNK         0.0600 
    218 H218       -8.9478  -23.8836  -47.4048 H         1 UNK         0.0600 
    219 H219       -9.6723  -23.4923  -48.9641 H         1 UNK         0.0600 
    220 H220       -5.6253  -22.0521  -50.0669 H         1 UNK         0.3000 
    221 H221       -5.0495  -20.7923  -51.7688 H         1 UNK         0.0600 
    222 H222       -7.2024  -18.8651  -50.7336 H         1 UNK         0.0600 
    223 H223       -5.5481  -18.9826  -50.1323 H         1 UNK         0.0600 
    224 H224       -5.8508  -18.4297  -51.7694 H         1 UNK         0.0600 
    225 H225       -6.4883  -22.8230  -52.7096 H         1 UNK         0.3000 
    226 H226       -8.5942  -21.9218  -54.5618 H         1 UNK         0.0600 
    227 H227       -8.8541  -24.0594  -53.3357 H         1 UNK         0.0600 
    228 H228       -8.7536  -24.3482  -55.0654 H         1 UNK         0.0600 
    229 H229       -7.3589  -24.6706  -54.0422 H         1 UNK         0.0600 
    230 H230       -6.8140  -20.4157  -55.3860 H         1 UNK         0.3000 
    231 H231       -5.7080  -19.5901  -57.0931 H         1 UNK         0.0600 
    232 H232       -6.3240  -22.1612  -58.6391 H         1 UNK         0.0600 
    233 H233       -5.8143  -20.6289  -59.3287 H         1 UNK         0.0600 
    234 H234       -7.3753  -20.7491  -58.5333 H         1 UNK         0.0600 
    235 H235       -4.5696  -22.6443  -55.9453 H         1 UNK         0.3000 
    236 H236       -2.0770  -22.8723  -57.1905 H         1 UNK         0.0600 
    237 H237       -3.0731  -24.7145  -55.9633 H         1 UNK         0.0600 
    238 H238       -1.5515  -24.3386  -55.1716 H         1 UNK         0.0600 
    239 H239       -3.0720  -23.8120  -54.4564 H         1 UNK         0.0600 
    240 H240       -2.9632  -20.4414  -54.9782 H         1 UNK         0.3000 
    241 H241       -0.3949  -19.7038  -53.9299 H         1 UNK         0.0600 
    242 H242       -1.7260  -19.3687  -57.2227 H         1 UNK         0.3800 
    243 H243       -0.4618  -18.2970  -57.7744 H         1 UNK         0.3800 
    244 H244       -1.4667  -17.4982  -53.4841 H         1 UNK         0.0800 
    245 H245       -2.8441  -17.9405  -54.4566 H         1 UNK         0.0800 
    246 H246       -2.7249  -18.4141  -50.0670 H         1 UNK         0.0800 
    247 H247       -2.5501  -17.0583  -51.1507 H         1 UNK         0.0800 
@<TRIPOS>BOND
     1    1    2 1    
     2    1  127 1    
     3    1  128 1    
     4    1  129 1    
     5    2    3 2    
     6    2    4 am   BACKBONE|DICT|INTERRES
     7    4    5 1    
     8    4  130 1    
     9    5    6 1    
    10    5   65 1    
    11    5  131 1    
    12    6    7 1    
    13    6  132 1    
    14    6  133 1    
    15    7    8 1    
    16    8    9 1    
    17    8  134 1    
    18    8  135 1    
    19    9   10 ar   
    20    9   14 ar   
    21   10   11 ar   
    22   10  136 1    
    23   11   12 ar   
    24   11  126 1    
    25   12   13 ar   
    26   12  137 1    
    27   13   14 ar   
    28   13   15 1    
    29   14  138 1    
    30   15   16 1    
    31   15  139 1    
    32   15  140 1    
    33   16   17 1    
    34   17   18 1    
    35   17  141 1    
    36   17  142 1    
    37   18   19 1    
    38   18   67 1    
    39   18  143 1    
    40   19   20 am   BACKBONE|DICT|INTERRES
    41   19  144 1    
    42   20   21 2    
    43   20   22 1    
    44   22   23 1    
    45   22   24 1    
    46   22  145 1    
    47   23  146 1    
    48   23  147 1    
    49   23  148 1    
    50   24   25 am   BACKBONE|DICT|INTERRES
    51   24  149 1    
    52   25   26 2    
    53   25   27 1    
    54   27   28 1    
    55   27   29 1    
    56   27  150 1    
    57   28  151 1    
    58   28  152 1    
    59   28  153 1    
    60   29   30 am   BACKBONE|DICT|INTERRES
    61   29  154 1    
    62   30   31 2    
    63   30   32 1    
    64   32   33 1    
    65   32   34 1    
    66   32  155 1    
    67   33  156 1    
    68   33  157 1    
    69   33  158 1    
    70   34   35 am   BACKBONE|DICT|INTERRES
    71   34  159 1    
    72   35   36 2    
    73   35   37 1    
    74   37   38 1    
    75   37   39 1    
    76   37  160 1    
    77   38  161 1    
    78   38  162 1    
    79   38  163 1    
    80   39   40 am   BACKBONE|DICT|INTERRES
    81   39  164 1    
    82   40   41 2    
    83   40   42 1    
    84   42   43 1    
    85   42   44 1    
    86   42  165 1    
    87   43  166 1    
    88   43  167 1    
    89   43  168 1    
    90   44   45 am   BACKBONE|DICT|INTERRES
    91   44  169 1    
    92   45   46 2    
    93   45   47 1    
    94   47   48 1    
    95   47   49 1    
    96   47  170 1    
    97   48  171 1    
    98   48  172 1    
    99   48  173 1    
   100   49   50 am   BACKBONE|DICT|INTERRES
   101   49  174 1    
   102   50   51 2    
   103   50   52 1    
   104   52   53 1    
   105   52   54 1    
   106   52  175 1    
   107   53  176 1    
   108   53  177 1    
   109   53  178 1    
   110   54   55 am   BACKBONE|DICT|INTERRES
   111   54  179 1    
   112   55   56 2    
   113   55   57 1    
   114   57   58 1    
   115   57   59 1    
   116   57  180 1    
   117   58  181 1    
   118   58  182 1    
   119   58  183 1    
   120   59   60 am   BACKBONE|DICT|INTERRES
   121   59  184 1    
   122   60   61 2    
   123   60   62 1    
   124   62   63 1    
   125   62   64 1    
   126   62  185 1    
   127   63  186 1    
   128   63  187 1    
   129   63  188 1    
   130   64   65 am   BACKBONE|DICT|INTERRES
   131   64  189 1    
   132   65   66 2    
   133   67   68 2    
   134   67   69 am   BACKBONE|DICT|INTERRES
   135   69   70 1    
   136   69  190 1    
   137   70   71 1    
   138   70   72 1    
   139   70  191 1    
   140   71  192 1    
   141   71  193 1    
   142   71  194 1    
   143   72   73 2    
   144   72   74 am   BACKBONE|DICT|INTERRES
   145   74   75 1    
   146   74  195 1    
   147   75   76 1    
   148   75   77 1    
   149   75  196 1    
   150   76  197 1    
   151   76  198 1    
   152   76  199 1    
   153   77   78 2    
   154   77   79 am   BACKBONE|DICT|INTERRES
   155   79   80 1    
   156   79  200 1    
   157   80   81 1    
   158   80   82 1    
   159   80  201 1    
   160   81  202 1    
   161   81  203 1    
   162   81  204 1    
   163   82   83 2    
   164   82   84 am   BACKBONE|DICT|INTERRES
   165   84   85 1    
   166   84  205 1    
   167   85   86 1    
   168   85   87 1    
   169   85  206 1    
   170   86  207 1    
   171   86  208 1    
   172   86  209 1    
   173   87   88 2    
   174   87   89 am   BACKBONE|DICT|INTERRES
   175   89   90 1    
   176   89  210 1    
   177   90   91 1    
   178   90   92 1    
   179   90  211 1    
   180   91  212 1    
   181   91  213 1    
   182   91  214 1    
   183   92   93 2    
   184   92   94 am   BACKBONE|DICT|INTERRES
   185   94   95 1    
   186   94  215 1    
   187   95   96 1    
   188   95   97 1    
   189   95  216 1    
   190   96  217 1    
   191   96  218 1    
   192   96  219 1    
   193   97   98 2    
   194   97   99 am   BACKBONE|DICT|INTERRES
   195   99  100 1    
   196   99  220 1    
   197  100  101 1    
   198  100  102 1    
   199  100  221 1    
   200  101  222 1    
   201  101  223 1    
   202  101  224 1    
   203  102  103 2    
   204  102  104 am   BACKBONE|DICT|INTERRES
   205  104  105 1    
   206  104  225 1    
   207  105  106 1    
   208  105  107 1    
   209  105  226 1    
   210  106  227 1    
   211  106  228 1    
   212  106  229 1    
   213  107  108 2    
   214  107  109 am   BACKBONE|DICT|INTERRES
   215  109  110 1    
   216  109  230 1    
   217  110  111 1    
   218  110  112 1    
   219  110  231 1    
   220  111  232 1    
   221  111  233 1    
   222  111  234 1    
   223  112  113 2    
   224  112  114 am   BACKBONE|DICT|INTERRES
   225  114  115 1    
   226  114  235 1    
   227  115  116 1    
   228  115  117 1    
   229  115  236 1    
   230  116  237 1    
   231  116  238 1    
   232  116  239 1    
   233  117  118 2    
   234  117  119 am   BACKBONE|DICT|INTERRES
   235  119  120 1    
   236  119  240 1    
   237  120  121 1    
   238  120  124 1    
   239  120  241 1    
   240  121  122 am   BACKBONE|DICT|INTERRES
   241  121  123 2    
   242  122  242 1    
   243  122  243 1    
   244  124  125 1    
   245  124  244 1    
   246  124  245 1    
   247  125  126 1    
   248  126  246 1    
   249  126  247 1    
@<TRIPOS>SUBSTRUCTURE
     1 UNK         1 GROUP             0       ****    0 ROOT    
