@<TRIPOS>MOLECULE
3R540
247   249    1
SMALL
USER_CHARGES


@<TRIPOS>ATOM
      1 CA          2.3878   -8.4946  -51.3498 C.3       0 UNK        -0.1800 
      2 C           2.7297   -9.7364  -50.5392 C.2       0 UNK         0.5000 
      3 O           3.8812   -9.9129  -50.1400 O.2       0 UNK        -0.5000 
      4 N           1.7341  -10.5912  -50.2759 N.am      1 UNK        -0.5000 
      5 CA          1.8492  -11.8627  -49.5453 C.3       1 UNK         0.1400 
      6 C6          0.7338  -12.8616  -49.9576 C.3       23 UNK        -0.0398 
      7 S7          0.6693  -13.1647  -51.7604 S.3       23 UNK        -0.2404 
      8 C8          1.5436  -14.7531  -51.9264 C.3       23 UNK        -0.0205 
      9 C9          0.6746  -15.9329  -51.5150 C.ar      23 UNK        -0.0193 
     10 C10        -0.2461  -16.4810  -52.4151 C.ar      23 UNK        -0.1150 
     11 C11        -1.0343  -17.5762  -52.0456 C.ar      23 UNK        -0.0193 
     12 C12        -0.9015  -18.1187  -50.7648 C.ar      23 UNK        -0.1150 
     13 C13         0.0215  -17.5847  -49.8632 C.ar      23 UNK        -0.0193 
     14 C14         0.8077  -16.4943  -50.2424 C.ar      23 UNK        -0.1150 
     15 C15         0.1801  -18.1942  -48.4842 C.3       23 UNK        -0.0205 
     16 S16         1.4715  -19.4734  -48.4903 S.3       23 UNK        -0.2404 
     17 C17         1.3968  -19.9919  -46.7463 C.3       23 UNK        -0.0398 
     18 CA          0.7617  -21.3811  -46.4999 C.3       11 UNK         0.1400 
     19 N           0.8099  -21.7149  -45.0778 N.am      11 UNK        -0.5000 
     20 C           0.4869  -22.8931  -44.5325 C.2       10 UNK         0.5000 
     21 O           0.1442  -23.8799  -45.1833 O.2       10 UNK        -0.5000 
     22 CA          0.5070  -22.9570  -42.9937 C.3       10 UNK         0.1400 
     23 CB          1.9406  -23.1293  -42.4702 C.3       10 UNK        -0.1800 
     24 N          -0.1001  -21.7751  -42.3762 N.am      10 UNK        -0.5000 
     25 C          -1.3914  -21.4367  -42.5061 C.2       9 UNK         0.5000 
     26 O          -2.2141  -22.1053  -43.1326 O.2       9 UNK        -0.5000 
     27 CA         -1.8281  -20.1059  -41.8675 C.3       9 UNK         0.1400 
     28 CB         -1.9918  -20.2546  -40.3476 C.3       9 UNK        -0.1800 
     29 N          -0.9057  -19.0080  -42.1607 N.am      9 UNK        -0.5000 
     30 C          -0.6589  -18.5337  -43.3907 C.2       8 UNK         0.5000 
     31 O          -1.2062  -18.9512  -44.4089 O.2       8 UNK        -0.5000 
     32 CA          0.4178  -17.4452  -43.5181 C.3       8 UNK         0.1400 
     33 CB         -0.1455  -16.0748  -43.1117 C.3       8 UNK        -0.1800 
     34 N           1.6069  -17.7448  -42.7257 N.am      8 UNK        -0.5000 
     35 C           2.3929  -18.8200  -42.8652 C.2       7 UNK         0.5000 
     36 O           2.2250  -19.6879  -43.7189 O.2       7 UNK        -0.5000 
     37 CA          3.5267  -18.9788  -41.8409 C.3       7 UNK         0.1400 
     38 CB          4.7307  -18.0969  -42.2065 C.3       7 UNK        -0.1800 
     39 N           3.0772  -18.6655  -40.4857 N.am      7 UNK        -0.5000 
     40 C           2.2158  -19.4118  -39.7810 C.2       6 UNK         0.5000 
     41 O           1.7311  -20.4690  -40.1881 O.2       6 UNK        -0.5000 
     42 CA          1.8063  -18.8619  -38.4021 C.3       6 UNK         0.1400 
     43 CB          2.8671  -19.2027  -37.3448 C.3       6 UNK        -0.1800 
     44 N           1.5800  -17.4142  -38.4153 N.am      6 UNK        -0.5000 
     45 C           0.5531  -16.8247  -39.0424 C.2       5 UNK         0.5000 
     46 O          -0.3075  -17.4424  -39.6702 O.2       5 UNK        -0.5000 
     47 CA          0.4955  -15.2841  -38.9934 C.3       5 UNK         0.1400 
     48 CB         -0.0947  -14.8103  -37.6565 C.3       5 UNK        -0.1800 
     49 N           1.7704  -14.5929  -39.2341 N.am      5 UNK        -0.5000 
     50 C           2.5758  -14.8001  -40.2842 C.2       4 UNK         0.5000 
     51 O           2.4333  -15.7284  -41.0778 O.2       4 UNK        -0.5000 
     52 CA          3.7517  -13.8264  -40.4855 C.3       4 UNK         0.1400 
     53 CB          4.9734  -14.2957  -39.6812 C.3       4 UNK        -0.1800 
     54 N           4.1215  -13.7421  -41.9027 N.am      4 UNK        -0.5000 
     55 C           3.3438  -13.2200  -42.8612 C.2       3 UNK         0.5000 
     56 O           2.2933  -12.6124  -42.6350 O.2       3 UNK        -0.5000 
     57 CA          3.7999  -13.4580  -44.3148 C.3       3 UNK         0.1400 
     58 CB          3.3426  -14.8419  -44.8072 C.3       3 UNK        -0.1800 
     59 N           3.2638  -12.4414  -45.2192 N.am      3 UNK        -0.5000 
     60 C           3.7015  -11.1806  -45.2979 C.2       2 UNK         0.5000 
     61 O           4.7043  -10.7749  -44.7061 O.2       2 UNK        -0.5000 
     62 CA          2.8814  -10.2249  -46.1911 C.3       2 UNK         0.1400 
     63 CB          3.4633   -8.7998  -46.2291 C.3       2 UNK        -0.1800 
     64 N           2.7489  -10.7048  -47.5676 N.am      2 UNK        -0.5000 
     65 C           1.8941  -11.6340  -48.0126 C.2       1 UNK         0.5000 
     66 O           1.1513  -12.2714  -47.2629 O.2       1 UNK        -0.5000 
     67 C          -0.6716  -21.5023  -47.0611 C.2       11 UNK         0.5000 
     68 O          -0.8626  -22.1528  -48.0875 O.2       11 UNK        -0.5000 
     69 N          -1.6585  -20.9217  -46.3631 N.am      12 UNK        -0.5000 
     70 CA         -3.0765  -20.9960  -46.7174 C.3       12 UNK         0.1400 
     71 CB         -3.8975  -20.0873  -45.7918 C.3       12 UNK        -0.1800 
     72 C          -3.6256  -22.4319  -46.6942 C.2       12 UNK         0.5000 
     73 O          -4.3955  -22.7923  -47.5842 O.2       12 UNK        -0.5000 
     74 N          -3.1955  -23.2344  -45.7103 N.am      13 UNK        -0.5000 
     75 CA         -3.5133  -24.6586  -45.6127 C.3       13 UNK         0.1400 
     76 CB         -3.0563  -25.2049  -44.2518 C.3       13 UNK        -0.1800 
     77 C          -2.9103  -25.4738  -46.7717 C.2       13 UNK         0.5000 
     78 O          -3.6189  -26.2826  -47.3710 O.2       13 UNK        -0.5000 
     79 N          -1.6361  -25.2151  -47.1007 N.am      14 UNK        -0.5000 
     80 CA         -0.9215  -25.8313  -48.2231 C.3       14 UNK         0.1400 
     81 CB          0.5660  -25.4541  -48.1539 C.3       14 UNK        -0.1800 
     82 C          -1.5177  -25.4613  -49.5959 C.2       14 UNK         0.5000 
     83 O          -1.6037  -26.3197  -50.4744 O.2       14 UNK        -0.5000 
     84 N          -1.9554  -24.2037  -49.7398 N.am      15 UNK        -0.5000 
     85 CA         -2.6566  -23.6757  -50.9125 C.3       15 UNK         0.1400 
     86 CB         -2.5472  -22.1417  -50.8984 C.3       15 UNK        -0.1800 
     87 C          -4.1370  -24.1062  -50.9956 C.2       15 UNK         0.5000 
     88 O          -4.7950  -23.7849  -51.9876 O.2       15 UNK        -0.5000 
     89 N          -4.6440  -24.7790  -49.9504 N.am      16 UNK        -0.5000 
     90 CA         -6.0214  -25.2444  -49.7609 C.3       16 UNK         0.1400 
     91 CB         -6.3355  -26.4041  -50.7269 C.3       16 UNK        -0.1800 
     92 C          -7.0469  -24.0931  -49.8198 C.2       16 UNK         0.5000 
     93 O          -8.0699  -24.2020  -50.4968 O.2       16 UNK        -0.5000 
     94 N          -6.7221  -22.9955  -49.1202 N.am      17 UNK        -0.5000 
     95 CA         -7.4336  -21.7134  -49.0903 C.3       17 UNK         0.1400 
     96 CB         -8.8378  -21.8658  -48.4688 C.3       17 UNK        -0.1800 
     97 C          -7.4418  -21.0123  -50.4661 C.2       17 UNK         0.5000 
     98 O          -8.4381  -20.3902  -50.8377 O.2       17 UNK        -0.5000 
     99 N          -6.3131  -21.1311  -51.1832 N.am      18 UNK        -0.5000 
    100 CA        -6.0483  -20.6299  -52.5345 C.3       18 UNK         0.1400 
    101 CB        -6.0625  -19.0873  -52.5689 C.3       18 UNK        -0.1800 
    102 C         -6.9838  -21.2760  -53.5742 C.2       18 UNK         0.5000 
    103 O         -7.7622  -20.5836  -54.2340 O.2       18 UNK        -0.5000 
    104 N         -6.8965  -22.6078  -53.6876 N.am      19 UNK        -0.5000 
    105 CA        -7.7161  -23.4538  -54.5603 C.3       19 UNK         0.1400 
    106 CB        -7.6236  -24.9077  -54.0669 C.3       19 UNK        -0.1800 
    107 C         -7.3561  -23.3197  -56.0571 C.2       19 UNK         0.5000 
    108 O         -6.9086  -24.2867  -56.6770 O.2       19 UNK        -0.5000 
    109 N         -7.5505  -22.1128  -56.6051 N.am      20 UNK        -0.5000 
    110 CA        -7.3845  -21.6693  -57.9969 C.3       20 UNK         0.1400 
    111 CB        -8.3079  -22.4523  -58.9490 C.3       20 UNK        -0.1800 
    112 C         -5.9320  -21.6678  -58.5111 C.2       20 UNK         0.5000 
    113 O         -5.4956  -20.6686  -59.0842 O.2       20 UNK        -0.5000 
    114 N         -5.1960  -22.7607  -58.2747 N.am      21 UNK        -0.5000 
    115 CA        -3.8061  -22.9765  -58.6908 C.3       21 UNK         0.1400 
    116 CB        -3.4040  -24.4177  -58.3429 C.3       21 UNK        -0.1800 
    117 C         -2.8056  -21.9746  -58.0804 C.2       21 UNK         0.5000 
    118 O         -1.7498  -21.7353  -58.6675 O.2       21 UNK        -0.5000 
    119 N         -3.1683  -21.3966  -56.9290 N.am      22 UNK        -0.5000 
    120 CA        -2.4475  -20.3013  -56.2655 C.3       22 UNK         0.1400 
    121 C         -2.6395  -18.9066  -56.9403 C.2       22 UNK         0.5000 
    122 N         -3.5399  -18.7414  -57.9037 N.am      22 UNK        -0.7600 
    123 O         -1.9486  -17.9529  -56.5954 O.2       22 UNK        -0.5000 
    124 C124       -2.7855  -20.2711  -54.7509 C.3       23 UNK        -0.0398 
    125 S125       -1.3835  -19.7412  -53.7137 S.3       23 UNK        -0.2404 
    126 C126       -2.0250  -18.1857  -53.0235 C.3       23 UNK        -0.0205 
    127 H127        1.3348   -8.4717  -51.6313 H         1 UNK         0.0600 
    128 H128        2.9842   -8.4665  -52.2617 H         1 UNK         0.0600 
    129 H129        2.6051   -7.5971  -50.7706 H         1 UNK         0.0600 
    130 H130        0.8076  -10.3790  -50.6179 H         1 UNK         0.3000 
    131 H131        2.8036  -12.3217  -49.8120 H         1 UNK         0.0600 
    132 H132        0.8598  -13.8100  -49.4358 H         1 UNK         0.0800 
    133 H133       -0.2432  -12.4827  -49.6527 H         1 UNK         0.0800 
    134 H134        1.8480  -14.8767  -52.9667 H         1 UNK         0.0800 
    135 H135        2.4657  -14.7279  -51.3436 H         1 UNK         0.0800 
    136 H136       -0.3444  -16.0571  -53.4048 H         1 UNK         0.1150 
    137 H137       -1.5024  -18.9708  -50.4784 H         1 UNK         0.1150 
    138 H138        1.5301  -16.0909  -49.5470 H         1 UNK         0.1150 
    139 H139        0.4358  -17.4174  -47.7615 H         1 UNK         0.0800 
    140 H140       -0.7663  -18.6257  -48.1542 H         1 UNK         0.0800 
    141 H141        0.8794  -19.2310  -46.1620 H         1 UNK         0.0800 
    142 H142        2.4229  -19.9967  -46.3762 H         1 UNK         0.0800 
    143 H143        1.3726  -22.1212  -47.0209 H         1 UNK         0.0600 
    144 H144        1.1334  -20.9722  -44.4618 H         1 UNK         0.3000 
    145 H145       -0.0740  -23.8303  -42.6902 H         1 UNK         0.0600 
    146 H146        1.9517  -23.2487  -41.3866 H         1 UNK         0.0600 
    147 H147        2.4101  -24.0145  -42.9009 H         1 UNK         0.0600 
    148 H148        2.5667  -22.2712  -42.7164 H         1 UNK         0.0600 
    149 H149        0.5108  -21.1799  -41.8280 H         1 UNK         0.3000 
    150 H150       -2.8010  -19.8425  -42.2877 H         1 UNK         0.0600 
    151 H151       -2.6757  -21.0689  -40.1054 H         1 UNK         0.0600 
    152 H152       -2.3997  -19.3454  -39.9058 H         1 UNK         0.0600 
    153 H153       -1.0409  -20.4656  -39.8574 H         1 UNK         0.0600 
    154 H154       -0.4434  -18.5771  -41.3667 H         1 UNK         0.3000 
    155 H155        0.7242  -17.3905  -44.5643 H         1 UNK         0.0600 
    156 H156       -0.4829  -16.0696  -42.0753 H         1 UNK         0.0600 
    157 H157        0.6010  -15.2883  -43.2182 H         1 UNK         0.0600 
    158 H158       -0.9973  -15.8030  -43.7361 H         1 UNK         0.0600 
    159 H159        1.8558  -17.0589  -42.0125 H         1 UNK         0.3000 
    160 H160        3.8510  -20.0215  -41.8610 H         1 UNK         0.0600 
    161 H161        4.4826  -17.0359  -42.1786 H         1 UNK         0.0600 
    162 H162        5.0876  -18.3232  -43.2120 H         1 UNK         0.0600 
    163 H163        5.5621  -18.2633  -41.5215 H         1 UNK         0.0600 
    164 H164        3.3604  -17.7722  -40.1105 H         1 UNK         0.3000 
    165 H165        0.8726  -19.3507  -38.1153 H         1 UNK         0.0600 
    166 H166        2.5476  -18.8888  -36.3509 H         1 UNK         0.0600 
    167 H167        3.0446  -20.2782  -37.3034 H         1 UNK         0.0600 
    168 H168        3.8215  -18.7202  -37.5590 H         1 UNK         0.0600 
    169 H169        2.2515  -16.8353  -37.9329 H         1 UNK         0.3000 
    170 H170       -0.1850  -14.9690  -39.7869 H         1 UNK         0.0600 
    171 H171        0.5685  -15.0364  -36.8207 H         1 UNK         0.0600 
    172 H172       -0.2733  -13.7349  -37.6623 H         1 UNK         0.0600 
    173 H173       -1.0516  -15.2950  -37.4570 H         1 UNK         0.0600 
    174 H174        1.9791  -13.8251  -38.6124 H         1 UNK         0.3000 
    175 H175        3.4541  -12.8338  -40.1416 H         1 UNK         0.0600 
    176 H176        5.8118  -13.6091  -39.8010 H         1 UNK         0.0600 
    177 H177        5.3043  -15.2875  -39.9929 H         1 UNK         0.0600 
    178 H178        4.7461  -14.3455  -38.6156 H         1 UNK         0.0600 
    179 H179        4.9510  -14.2486  -42.1737 H         1 UNK         0.3000 
    180 H180        4.8908  -13.4194  -44.3472 H         1 UNK         0.0600 
    181 H181        2.2564  -14.9075  -44.8702 H         1 UNK         0.0600 
    182 H182        3.6798  -15.6337  -44.1372 H         1 UNK         0.0600 
    183 H183        3.7461  -15.0599  -45.7961 H         1 UNK         0.0600 
    184 H184        2.4194  -12.6771  -45.7291 H         1 UNK         0.3000 
    185 H185        1.8847  -10.1593  -45.7499 H         1 UNK         0.0600 
    186 H186        3.5370   -8.3782  -45.2258 H         1 UNK         0.0600 
    187 H187        4.4616   -8.7847  -46.6685 H         1 UNK         0.0600 
    188 H188        2.8306   -8.1316  -46.8136 H         1 UNK         0.0600 
    189 H189        3.3450  -10.2618  -48.2598 H         1 UNK         0.3000 
    190 H190       -1.4294  -20.3650  -45.5419 H         1 UNK         0.3000 
    191 H191       -3.1810  -20.6208  -47.7374 H         1 UNK         0.0600 
    192 H192       -3.5830  -19.0474  -45.8820 H         1 UNK         0.0600 
    193 H193       -4.9584  -20.1287  -46.0418 H         1 UNK         0.0600 
    194 H194       -3.7930  -20.3788  -44.7462 H         1 UNK         0.0600 
    195 H195       -2.6049  -22.8453  -44.9820 H         1 UNK         0.3000 
    196 H196       -4.5993  -24.7607  -45.6669 H         1 UNK         0.0600 
    197 H197       -3.3088  -26.2611  -44.1507 H         1 UNK         0.0600 
    198 H198       -3.5417  -24.6742  -43.4325 H         1 UNK         0.0600 
    199 H199       -1.9791  -25.1106  -44.1171 H         1 UNK         0.0600 
    200 H200       -1.1080  -24.5583  -46.5327 H         1 UNK         0.3000 
    201 H201       -1.0008  -26.9145  -48.1110 H         1 UNK         0.0600 
    202 H202        1.0121  -25.7825  -47.2150 H         1 UNK         0.0600 
    203 H203        0.7133  -24.3769  -48.2341 H         1 UNK         0.0600 
    204 H204        1.1266  -25.9238  -48.9630 H         1 UNK         0.0600 
    205 H205       -1.7653  -23.5388  -48.9932 H         1 UNK         0.3000 
    206 H206       -2.1592  -24.0454  -51.8113 H         1 UNK         0.0600 
    207 H207       -1.5056  -21.8202  -50.8728 H         1 UNK         0.0600 
    208 H208       -2.9932  -21.7058  -51.7917 H         1 UNK         0.0600 
    209 H209       -3.0502  -21.7106  -50.0322 H         1 UNK         0.0600 
    210 H210       -4.0228  -24.9653  -49.1737 H         1 UNK         0.3000 
    211 H211       -6.0745  -25.6409  -48.7460 H         1 UNK         0.0600 
    212 H212       -6.2632  -26.0947  -51.7685 H         1 UNK         0.0600 
    213 H213       -7.3422  -26.7910  -50.5657 H         1 UNK         0.0600 
    214 H214       -5.6428  -27.2326  -50.5788 H         1 UNK         0.0600 
    215 H215       -5.8500  -23.0132  -48.5905 H         1 UNK         0.3000 
    216 H216       -6.8550  -21.0670  -48.4288 H         1 UNK         0.0600 
    217 H217       -9.3002  -20.8914  -48.3078 H         1 UNK         0.0600 
    218 H218       -8.7880  -22.3640  -47.5007 H         1 UNK         0.0600 
    219 H219       -9.5069  -22.4411  -49.1090 H         1 UNK         0.0600 
    220 H220       -5.5912  -21.7210  -50.7963 H         1 UNK         0.3000 
    221 H221       -5.0383  -20.9507  -52.7887 H         1 UNK         0.0600 
    222 H222       -7.0516  -18.6818  -52.3547 H         1 UNK         0.0600 
    223 H223       -5.3671  -18.6711  -51.8403 H         1 UNK         0.0600 
    224 H224       -5.7675  -18.7165  -53.5509 H         1 UNK         0.0600 
    225 H225       -6.2181  -23.0945  -53.1064 H         1 UNK         0.3000 
    226 H226       -8.7571  -23.1410  -54.4565 H         1 UNK         0.0600 
    227 H227       -8.0029  -24.9998  -53.0501 H         1 UNK         0.0600 
    228 H228       -8.2187  -25.5756  -54.6910 H         1 UNK         0.0600 
    229 H229       -6.5953  -25.2711  -54.0792 H         1 UNK         0.0600 
    230 H230       -7.8408  -21.3831  -55.9580 H         1 UNK         0.3000 
    231 H231       -7.7160  -20.6297  -58.0093 H         1 UNK         0.0600 
    232 H232       -8.0412  -23.5082  -59.0024 H         1 UNK         0.0600 
    233 H233       -8.2509  -22.0518  -59.9619 H         1 UNK         0.0600 
    234 H234       -9.3485  -22.3852  -58.6317 H         1 UNK         0.0600 
    235 H235       -5.6513  -23.5205  -57.7731 H         1 UNK         0.3000 
    236 H236       -3.7632  -22.8591  -59.7754 H         1 UNK         0.0600 
    237 H237       -4.0521  -25.1389  -58.8412 H         1 UNK         0.0600 
    238 H238       -2.3814  -24.6273  -58.6596 H         1 UNK         0.0600 
    239 H239       -3.4610  -24.6016  -57.2692 H         1 UNK         0.0600 
    240 H240       -4.0604  -21.6550  -56.5361 H         1 UNK         0.3000 
    241 H241       -1.3848  -20.5314  -56.3648 H         1 UNK         0.0600 
    242 H242       -4.1183  -19.5064  -58.2340 H         1 UNK         0.3800 
    243 H243       -3.6380  -17.8329  -58.3282 H         1 UNK         0.3800 
    244 H244       -3.6664  -19.6584  -54.5548 H         1 UNK         0.0800 
    245 H245       -3.0431  -21.2731  -54.4043 H         1 UNK         0.0800 
    246 H246       -2.2428  -17.4892  -53.8346 H         1 UNK         0.0800 
    247 H247       -2.9688  -18.3753  -52.5109 H         1 UNK         0.0800 
@<TRIPOS>BOND
     1    1    2 1    
     2    1  127 1    
     3    1  128 1    
     4    1  129 1    
     5    2    3 2    
     6    2    4 am   BACKBONE|DICT|INTERRES
     7    4    5 1    
     8    4  130 1    
     9    5    6 1    
    10    5   65 1    
    11    5  131 1    
    12    6    7 1    
    13    6  132 1    
    14    6  133 1    
    15    7    8 1    
    16    8    9 1    
    17    8  134 1    
    18    8  135 1    
    19    9   10 ar   
    20    9   14 ar   
    21   10   11 ar   
    22   10  136 1    
    23   11   12 ar   
    24   11  126 1    
    25   12   13 ar   
    26   12  137 1    
    27   13   14 ar   
    28   13   15 1    
    29   14  138 1    
    30   15   16 1    
    31   15  139 1    
    32   15  140 1    
    33   16   17 1    
    34   17   18 1    
    35   17  141 1    
    36   17  142 1    
    37   18   19 1    
    38   18   67 1    
    39   18  143 1    
    40   19   20 am   BACKBONE|DICT|INTERRES
    41   19  144 1    
    42   20   21 2    
    43   20   22 1    
    44   22   23 1    
    45   22   24 1    
    46   22  145 1    
    47   23  146 1    
    48   23  147 1    
    49   23  148 1    
    50   24   25 am   BACKBONE|DICT|INTERRES
    51   24  149 1    
    52   25   26 2    
    53   25   27 1    
    54   27   28 1    
    55   27   29 1    
    56   27  150 1    
    57   28  151 1    
    58   28  152 1    
    59   28  153 1    
    60   29   30 am   BACKBONE|DICT|INTERRES
    61   29  154 1    
    62   30   31 2    
    63   30   32 1    
    64   32   33 1    
    65   32   34 1    
    66   32  155 1    
    67   33  156 1    
    68   33  157 1    
    69   33  158 1    
    70   34   35 am   BACKBONE|DICT|INTERRES
    71   34  159 1    
    72   35   36 2    
    73   35   37 1    
    74   37   38 1    
    75   37   39 1    
    76   37  160 1    
    77   38  161 1    
    78   38  162 1    
    79   38  163 1    
    80   39   40 am   BACKBONE|DICT|INTERRES
    81   39  164 1    
    82   40   41 2    
    83   40   42 1    
    84   42   43 1    
    85   42   44 1    
    86   42  165 1    
    87   43  166 1    
    88   43  167 1    
    89   43  168 1    
    90   44   45 am   BACKBONE|DICT|INTERRES
    91   44  169 1    
    92   45   46 2    
    93   45   47 1    
    94   47   48 1    
    95   47   49 1    
    96   47  170 1    
    97   48  171 1    
    98   48  172 1    
    99   48  173 1    
   100   49   50 am   BACKBONE|DICT|INTERRES
   101   49  174 1    
   102   50   51 2    
   103   50   52 1    
   104   52   53 1    
   105   52   54 1    
   106   52  175 1    
   107   53  176 1    
   108   53  177 1    
   109   53  178 1    
   110   54   55 am   BACKBONE|DICT|INTERRES
   111   54  179 1    
   112   55   56 2    
   113   55   57 1    
   114   57   58 1    
   115   57   59 1    
   116   57  180 1    
   117   58  181 1    
   118   58  182 1    
   119   58  183 1    
   120   59   60 am   BACKBONE|DICT|INTERRES
   121   59  184 1    
   122   60   61 2    
   123   60   62 1    
   124   62   63 1    
   125   62   64 1    
   126   62  185 1    
   127   63  186 1    
   128   63  187 1    
   129   63  188 1    
   130   64   65 am   BACKBONE|DICT|INTERRES
   131   64  189 1    
   132   65   66 2    
   133   67   68 2    
   134   67   69 am   BACKBONE|DICT|INTERRES
   135   69   70 1    
   136   69  190 1    
   137   70   71 1    
   138   70   72 1    
   139   70  191 1    
   140   71  192 1    
   141   71  193 1    
   142   71  194 1    
   143   72   73 2    
   144   72   74 am   BACKBONE|DICT|INTERRES
   145   74   75 1    
   146   74  195 1    
   147   75   76 1    
   148   75   77 1    
   149   75  196 1    
   150   76  197 1    
   151   76  198 1    
   152   76  199 1    
   153   77   78 2    
   154   77   79 am   BACKBONE|DICT|INTERRES
   155   79   80 1    
   156   79  200 1    
   157   80   81 1    
   158   80   82 1    
   159   80  201 1    
   160   81  202 1    
   161   81  203 1    
   162   81  204 1    
   163   82   83 2    
   164   82   84 am   BACKBONE|DICT|INTERRES
   165   84   85 1    
   166   84  205 1    
   167   85   86 1    
   168   85   87 1    
   169   85  206 1    
   170   86  207 1    
   171   86  208 1    
   172   86  209 1    
   173   87   88 2    
   174   87   89 am   BACKBONE|DICT|INTERRES
   175   89   90 1    
   176   89  210 1    
   177   90   91 1    
   178   90   92 1    
   179   90  211 1    
   180   91  212 1    
   181   91  213 1    
   182   91  214 1    
   183   92   93 2    
   184   92   94 am   BACKBONE|DICT|INTERRES
   185   94   95 1    
   186   94  215 1    
   187   95   96 1    
   188   95   97 1    
   189   95  216 1    
   190   96  217 1    
   191   96  218 1    
   192   96  219 1    
   193   97   98 2    
   194   97   99 am   BACKBONE|DICT|INTERRES
   195   99  100 1    
   196   99  220 1    
   197  100  101 1    
   198  100  102 1    
   199  100  221 1    
   200  101  222 1    
   201  101  223 1    
   202  101  224 1    
   203  102  103 2    
   204  102  104 am   BACKBONE|DICT|INTERRES
   205  104  105 1    
   206  104  225 1    
   207  105  106 1    
   208  105  107 1    
   209  105  226 1    
   210  106  227 1    
   211  106  228 1    
   212  106  229 1    
   213  107  108 2    
   214  107  109 am   BACKBONE|DICT|INTERRES
   215  109  110 1    
   216  109  230 1    
   217  110  111 1    
   218  110  112 1    
   219  110  231 1    
   220  111  232 1    
   221  111  233 1    
   222  111  234 1    
   223  112  113 2    
   224  112  114 am   BACKBONE|DICT|INTERRES
   225  114  115 1    
   226  114  235 1    
   227  115  116 1    
   228  115  117 1    
   229  115  236 1    
   230  116  237 1    
   231  116  238 1    
   232  116  239 1    
   233  117  118 2    
   234  117  119 am   BACKBONE|DICT|INTERRES
   235  119  120 1    
   236  119  240 1    
   237  120  121 1    
   238  120  124 1    
   239  120  241 1    
   240  121  122 am   BACKBONE|DICT|INTERRES
   241  121  123 2    
   242  122  242 1    
   243  122  243 1    
   244  124  125 1    
   245  124  244 1    
   246  124  245 1    
   247  125  126 1    
   248  126  246 1    
   249  126  247 1    
@<TRIPOS>SUBSTRUCTURE
     1 UNK         1 GROUP             0       ****    0 ROOT    
