@<TRIPOS>MOLECULE
3R540
247   249    1
SMALL
USER_CHARGES


@<TRIPOS>ATOM
      1 CA         -5.0595  -17.4851  -47.0650 C.3       0 UNK        -0.1800 
      2 C          -4.0792  -16.5424  -47.7480 C.2       0 UNK         0.5000 
      3 O          -4.0144  -16.5171  -48.9763 O.2       0 UNK        -0.5000 
      4 N          -3.3284  -15.7691  -46.9587 N.am      1 UNK        -0.5000 
      5 CA         -2.3633  -14.7675  -47.4161 C.3       1 UNK         0.1400 
      6 C6         -0.8992  -15.1527  -47.0827 C.3       23 UNK        -0.0398 
      7 S7         -0.4104  -16.7609  -47.7856 S.3       23 UNK        -0.2404 
      8 C8          0.7530  -16.2788  -49.0935 C.3       23 UNK        -0.0205 
      9 C9          1.1559  -17.4988  -49.9043 C.ar      23 UNK        -0.0193 
     10 C10         0.2345  -18.0832  -50.7771 C.ar      23 UNK        -0.1150 
     11 C11         0.5632  -19.2316  -51.4997 C.ar      23 UNK        -0.0193 
     12 C12         1.8325  -19.7941  -51.3453 C.ar      23 UNK        -0.1150 
     13 C13         2.7460  -19.2502  -50.4349 C.ar      23 UNK        -0.0193 
     14 C14         2.4145  -18.0840  -49.7393 C.ar      23 UNK        -0.1150 
     15 C15         4.0339  -19.9998  -50.1111 C.3       23 UNK        -0.0205 
     16 S16         3.9122  -20.9560  -48.5484 S.3       23 UNK        -0.2404 
     17 C17         2.1635  -21.4813  -48.5727 C.3       23 UNK        -0.0398 
     18 CA          1.7607  -22.6038  -47.5894 C.3       11 UNK         0.1400 
     19 N           2.0715  -22.2928  -46.1974 N.am      11 UNK        -0.5000 
     20 C           2.5308  -23.1868  -45.3140 C.2       10 UNK         0.5000 
     21 O           2.6387  -24.3911  -45.5477 O.2       10 UNK        -0.5000 
     22 CA          2.9792  -22.6420  -43.9474 C.3       10 UNK         0.1400 
     23 CB          4.2518  -21.7918  -44.0909 C.3       10 UNK        -0.1800 
     24 N           1.9401  -21.8648  -43.2762 N.am      10 UNK        -0.5000 
     25 C           0.8448  -22.3954  -42.7156 C.2       9 UNK         0.5000 
     26 O           0.5992  -23.6018  -42.7016 O.2       9 UNK        -0.5000 
     27 CA         -0.1431  -21.4165  -42.0523 C.3       9 UNK         0.1400 
     28 CB          0.3074  -21.0734  -40.6244 C.3       9 UNK        -0.1800 
     29 N          -0.3195  -20.1810  -42.8138 N.am      9 UNK        -0.5000 
     30 C          -0.8822  -20.1181  -44.0275 C.2       8 UNK         0.5000 
     31 O          -1.3560  -21.0915  -44.6110 O.2       8 UNK        -0.5000 
     32 CA         -0.8681  -18.7479  -44.7272 C.3       8 UNK         0.1400 
     33 CB         -1.9894  -17.8420  -44.1984 C.3       8 UNK        -0.1800 
     34 N           0.4241  -18.0771  -44.5973 N.am      8 UNK        -0.5000 
     35 C           1.5672  -18.5439  -45.1201 C.2       7 UNK         0.5000 
     36 O           1.6417  -19.5645  -45.8030 O.2       7 UNK        -0.5000 
     37 CA          2.8502  -17.7718  -44.7766 C.3       7 UNK         0.1400 
     38 CB          3.0694  -16.6142  -45.7614 C.3       7 UNK        -0.1800 
     39 N           2.8253  -17.2686  -43.4019 N.am      7 UNK        -0.5000 
     40 C           2.9279  -18.0492  -42.3158 C.2       6 UNK         0.5000 
     41 O           3.0986  -19.2665  -42.3657 O.2       6 UNK        -0.5000 
     42 CA          2.7694  -17.3644  -40.9454 C.3       6 UNK         0.1400 
     43 CB          4.0950  -16.7297  -40.4997 C.3       6 UNK        -0.1800 
     44 N           1.7184  -16.3465  -40.9430 N.am      6 UNK        -0.5000 
     45 C           0.4127  -16.6035  -41.1054 C.2       5 UNK         0.5000 
     46 O          -0.0493  -17.7393  -41.2111 O.2       5 UNK        -0.5000 
     47 CA         -0.5268  -15.3860  -41.2220 C.3       5 UNK         0.1400 
     48 CB         -1.0569  -14.9791  -39.8398 C.3       5 UNK        -0.1800 
     49 N           0.0908  -14.2210  -41.8644 N.am      5 UNK        -0.5000 
     50 C           0.6115  -14.2047  -43.0975 C.2       4 UNK         0.5000 
     51 O           0.6218  -15.1905  -43.8359 O.2       4 UNK        -0.5000 
     52 CA          1.2341  -12.8740  -43.5645 C.3       4 UNK         0.1400 
     53 CB          2.0728  -13.0364  -44.8443 C.3       4 UNK        -0.1800 
     54 N           0.2231  -11.8477  -43.8025 N.am      4 UNK        -0.5000 
     55 C          -0.4558  -11.1626  -42.8769 C.2       3 UNK         0.5000 
     56 O          -0.3064  -11.3352  -41.6659 O.2       3 UNK        -0.5000 
     57 CA         -1.4724  -10.1089  -43.3688 C.3       3 UNK         0.1400 
     58 CB         -0.8096   -8.7231  -43.4848 C.3       3 UNK        -0.1800 
     59 N          -2.2018  -10.4515  -44.6014 N.am      3 UNK        -0.5000 
     60 C          -1.7369  -10.6060  -45.8490 C.2       2 UNK         0.5000 
     61 O          -0.5486  -10.5145  -46.1635 O.2       2 UNK        -0.5000 
     62 CA         -2.7728  -10.9721  -46.9263 C.3       2 UNK         0.1400 
     63 CB         -2.7362   -9.9745  -48.0951 C.3       2 UNK        -0.1800 
     64 N          -2.5316  -12.3210  -47.4371 N.am      2 UNK        -0.5000 
     65 C          -2.7314  -13.4412  -46.7320 C.2       1 UNK         0.5000 
     66 O          -3.1791  -13.4537  -45.5815 O.2       1 UNK        -0.5000 
     67 C           0.2616  -22.8982  -47.7580 C.2       11 UNK         0.5000 
     68 O          -0.0984  -24.0200  -48.1106 O.2       11 UNK        -0.5000 
     69 N          -0.5811  -21.8709  -47.5692 N.am      12 UNK        -0.5000 
     70 CA         -1.9775  -21.8514  -48.0177 C.3       12 UNK         0.1400 
     71 CB         -2.5740  -20.4493  -47.8207 C.3       12 UNK        -0.1800 
     72 C          -2.8603  -22.9238  -47.3599 C.2       12 UNK         0.5000 
     73 O          -3.6757  -23.5433  -48.0426 O.2       12 UNK        -0.5000 
     74 N          -2.6494  -23.1555  -46.0592 N.am      13 UNK        -0.5000 
     75 CA         -3.3211  -24.1921  -45.2771 C.3       13 UNK         0.1400 
     76 CB         -3.0336  -23.9596  -43.7865 C.3       13 UNK        -0.1800 
     77 C          -2.9208  -25.6224  -45.6896 C.2       13 UNK         0.5000 
     78 O          -3.7446  -26.5309  -45.5806 O.2       13 UNK        -0.5000 
     79 N          -1.6788  -25.7990  -46.1618 N.am      14 UNK        -0.5000 
     80 CA         -1.1595  -27.0735  -46.6595 C.3       14 UNK         0.1400 
     81 CB          0.3717  -27.0912  -46.5308 C.3       14 UNK        -0.1800 
     82 C          -1.5958  -27.3312  -48.1122 C.2       14 UNK         0.5000 
     83 O          -1.9659  -28.4571  -48.4468 O.2       14 UNK        -0.5000 
     84 N          -1.5648  -26.2783  -48.9410 N.am      15 UNK        -0.5000 
     85 CA         -2.0130  -26.2850  -50.3349 C.3       15 UNK         0.1400 
     86 CB         -1.5357  -24.9916  -51.0166 C.3       15 UNK        -0.1800 
     87 C          -3.5403  -26.4241  -50.4800 C.2       15 UNK         0.5000 
     88 O          -4.0050  -26.9263  -51.5038 O.2       15 UNK        -0.5000 
     89 N          -4.2788  -25.9609  -49.4605 N.am      16 UNK        -0.5000 
     90 CA         -5.7367  -25.8383  -49.3885 C.3       16 UNK         0.1400 
     91 CB         -6.4197  -27.2210  -49.4384 C.3       16 UNK        -0.1800 
     92 C          -6.2822  -24.8406  -50.4316 C.2       16 UNK         0.5000 
     93 O          -7.3398  -25.0722  -51.0211 O.2       16 UNK        -0.5000 
     94 N          -5.5412  -23.7464  -50.6425 N.am      17 UNK        -0.5000 
     95 CA         -5.8439  -22.6914  -51.6010 C.3       17 UNK         0.1400 
     96 CB         -5.4001  -23.1151  -53.0103 C.3       17 UNK        -0.1800 
     97 C          -5.1288  -21.4075  -51.1683 C.2       17 UNK         0.5000 
     98 O          -3.9803  -21.4691  -50.7262 O.2       17 UNK        -0.5000 
     99 N          -5.8225  -20.2744  -51.3124 N.am      18 UNK        -0.5000 
    100 CA        -5.3286  -18.9381  -50.9855 C.3       18 UNK         0.1400 
    101 CB        -6.5405  -17.9980  -50.8660 C.3       18 UNK        -0.1800 
    102 C         -4.3241  -18.4043  -52.0254 C.2       18 UNK         0.5000 
    103 O         -4.1688  -18.9864  -53.1028 O.2       18 UNK        -0.5000 
    104 N         -3.6832  -17.2818  -51.6776 N.am      19 UNK        -0.5000 
    105 CA        -2.7399  -16.5196  -52.4964 C.3       19 UNK         0.1400 
    106 CB        -2.3139  -15.2672  -51.7146 C.3       19 UNK        -0.1800 
    107 C         -3.2789  -16.1291  -53.8842 C.2       19 UNK         0.5000 
    108 O         -4.4881  -15.9669  -54.0631 O.2       19 UNK        -0.5000 
    109 N         -2.3516  -16.0069  -54.8428 N.am      20 UNK        -0.5000 
    110 CA        -2.5352  -15.7690  -56.2811 C.3       20 UNK         0.1400 
    111 CB        -3.3481  -14.4908  -56.5645 C.3       20 UNK        -0.1800 
    112 C         -3.0996  -16.9841  -57.0442 C.2       20 UNK         0.5000 
    113 O         -2.6735  -17.2265  -58.1740 O.2       20 UNK        -0.5000 
    114 N         -4.0119  -17.7408  -56.4212 N.am      21 UNK        -0.5000 
    115 CA        -4.5021  -19.0248  -56.9117 C.3       21 UNK         0.1400 
    116 CB        -5.8642  -19.3418  -56.2694 C.3       21 UNK        -0.1800 
    117 C         -3.4635  -20.1273  -56.6435 C.2       21 UNK         0.5000 
    118 O         -2.8939  -20.6684  -57.5915 O.2       21 UNK        -0.5000 
    119 N         -3.2289  -20.4187  -55.3565 N.am      22 UNK        -0.5000 
    120 CA        -2.2471  -21.3832  -54.8268 C.3       22 UNK         0.1400 
    121 C         -2.4242  -22.8682  -55.2790 C.2       22 UNK         0.5000 
    122 N         -3.5409  -23.2572  -55.8811 N.am      22 UNK        -0.7600 
    123 O         -1.5501  -23.6981  -55.0447 O.2       22 UNK        -0.5000 
    124 C124       -0.7808  -20.8878  -54.9854 C.3       23 UNK        -0.0398 
    125 S125       -0.4379  -19.3300  -54.0938 S.3       23 UNK        -0.2404 
    126 C126       -0.4756  -19.9207  -52.3713 C.3       23 UNK        -0.0205 
    127 H127       -4.8500  -18.5154  -47.3489 H         1 UNK         0.0600 
    128 H128       -6.0789  -17.2489  -47.3697 H         1 UNK         0.0600 
    129 H129       -5.0019  -17.4133  -45.9788 H         1 UNK         0.0600 
    130 H130       -3.4819  -15.7678  -45.9599 H         1 UNK         0.3000 
    131 H131       -2.4492  -14.6243  -48.4949 H         1 UNK         0.0600 
    132 H132       -0.2091  -14.3827  -47.4314 H         1 UNK         0.0800 
    133 H133       -0.7598  -15.2152  -46.0036 H         1 UNK         0.0800 
    134 H134        1.6271  -15.8040  -48.6453 H         1 UNK         0.0800 
    135 H135        0.2924  -15.5385  -49.7482 H         1 UNK         0.0800 
    136 H136       -0.7570  -17.6662  -50.8481 H         1 UNK         0.1150 
    137 H137        2.0791  -20.7037  -51.8749 H         1 UNK         0.1150 
    138 H138        3.1139  -17.6708  -49.0274 H         1 UNK         0.1150 
    139 H139        4.2858  -20.6833  -50.9234 H         1 UNK         0.0800 
    140 H140        4.8633  -19.2952  -50.0368 H         1 UNK         0.0800 
    141 H141        1.9343  -21.8151  -49.5856 H         1 UNK         0.0800 
    142 H142        1.5678  -20.5843  -48.3939 H         1 UNK         0.0800 
    143 H143        2.3064  -23.5005  -47.8918 H         1 UNK         0.0600 
    144 H144        1.9875  -21.3130  -45.9303 H         1 UNK         0.3000 
    145 H145        3.2245  -23.4975  -43.3143 H         1 UNK         0.0600 
    146 H146        4.6348  -21.4892  -43.1163 H         1 UNK         0.0600 
    147 H147        5.0424  -22.3525  -44.5910 H         1 UNK         0.0600 
    148 H148        4.0712  -20.8886  -44.6743 H         1 UNK         0.0600 
    149 H149        2.1006  -20.8671  -43.1917 H         1 UNK         0.3000 
    150 H150       -1.1132  -21.9144  -41.9921 H         1 UNK         0.0600 
    151 H151        0.4296  -21.9763  -40.0249 H         1 UNK         0.0600 
    152 H152       -0.4268  -20.4444  -40.1206 H         1 UNK         0.0600 
    153 H153        1.2601  -20.5427  -40.6197 H         1 UNK         0.0600 
    154 H154       -0.0030  -19.3219  -42.3741 H         1 UNK         0.3000 
    155 H155       -1.0394  -18.9120  -45.7914 H         1 UNK         0.0600 
    156 H156       -1.9292  -17.7097  -43.1188 H         1 UNK         0.0600 
    157 H157       -1.9510  -16.8552  -44.6573 H         1 UNK         0.0600 
    158 H158       -2.9674  -18.2701  -44.4207 H         1 UNK         0.0600 
    159 H159        0.4455  -17.1945  -44.0981 H         1 UNK         0.3000 
    160 H160        3.6935  -18.4586  -44.8730 H         1 UNK         0.0600 
    161 H161        2.2182  -15.9341  -45.7871 H         1 UNK         0.0600 
    162 H162        3.2065  -16.9949  -46.7732 H         1 UNK         0.0600 
    163 H163        3.9587  -16.0376  -45.5074 H         1 UNK         0.0600 
    164 H164        2.6011  -16.2912  -43.2836 H         1 UNK         0.3000 
    165 H165        2.4976  -18.1334  -40.2191 H         1 UNK         0.0600 
    166 H166        4.0135  -16.3103  -39.4967 H         1 UNK         0.0600 
    167 H167        4.8938  -17.4722  -40.4763 H         1 UNK         0.0600 
    168 H168        4.4082  -15.9315  -41.1737 H         1 UNK         0.0600 
    169 H169        2.0110  -15.3844  -40.8582 H         1 UNK         0.3000 
    170 H170       -1.3762  -15.6859  -41.8384 H         1 UNK         0.0600 
    171 H171       -1.5465  -15.8196  -39.3459 H         1 UNK         0.0600 
    172 H172       -0.2542  -14.6351  -39.1863 H         1 UNK         0.0600 
    173 H173       -1.7915  -14.1774  -39.9198 H         1 UNK         0.0600 
    174 H174        0.0638  -13.3445  -41.3547 H         1 UNK         0.3000 
    175 H175        1.9010  -12.5273  -42.7726 H         1 UNK         0.0600 
    176 H176        1.4671  -13.3785  -45.6844 H         1 UNK         0.0600 
    177 H177        2.5388  -12.0938  -45.1320 H         1 UNK         0.0600 
    178 H178        2.8746  -13.7602  -44.6962 H         1 UNK         0.0600 
    179 H179        0.0475  -11.5984  -44.7717 H         1 UNK         0.3000 
    180 H180       -2.2350  -10.0388  -42.5915 H         1 UNK         0.0600 
    181 H181       -0.0168   -8.7110  -44.2333 H         1 UNK         0.0600 
    182 H182       -0.3632   -8.4252  -42.5352 H         1 UNK         0.0600 
    183 H183       -1.5381   -7.9586  -43.7546 H         1 UNK         0.0600 
    184 H184       -3.1879  -10.6234  -44.4596 H         1 UNK         0.3000 
    185 H185       -3.7731  -10.9402  -46.4887 H         1 UNK         0.0600 
    186 H186       -2.9158   -8.9574  -47.7443 H         1 UNK         0.0600 
    187 H187       -1.7709   -9.9802  -48.6032 H         1 UNK         0.0600 
    188 H188       -3.5049  -10.2035  -48.8334 H         1 UNK         0.0600 
    189 H189       -2.1371  -12.3806  -48.3646 H         1 UNK         0.3000 
    190 H190       -0.2135  -21.0030  -47.2062 H         1 UNK         0.3000 
    191 H191       -1.9634  -22.0573  -49.0894 H         1 UNK         0.0600 
    192 H192       -2.6932  -20.2023  -46.7668 H         1 UNK         0.0600 
    193 H193       -3.5624  -20.3883  -48.2760 H         1 UNK         0.0600 
    194 H194       -1.9562  -19.6806  -48.2863 H         1 UNK         0.0600 
    195 H195       -2.0038  -22.5456  -45.5606 H         1 UNK         0.3000 
    196 H196       -4.3965  -24.0905  -45.4373 H         1 UNK         0.0600 
    197 H197       -3.5493  -24.6952  -43.1680 H         1 UNK         0.0600 
    198 H198       -3.3697  -22.9724  -43.4688 H         1 UNK         0.0600 
    199 H199       -1.9678  -24.0353  -43.5694 H         1 UNK         0.0600 
    200 H200       -1.0817  -24.9908  -46.2748 H         1 UNK         0.3000 
    201 H201       -1.5542  -27.8830  -46.0417 H         1 UNK         0.0600 
    202 H202        0.6817  -26.9439  -45.4960 H         1 UNK         0.0600 
    203 H203        0.8420  -26.3123  -47.1314 H         1 UNK         0.0600 
    204 H204        0.7786  -28.0481  -46.8597 H         1 UNK         0.0600 
    205 H205       -1.1742  -25.4039  -48.5954 H         1 UNK         0.3000 
    206 H206       -1.5491  -27.1347  -50.8398 H         1 UNK         0.0600 
    207 H207       -0.4508  -24.8967  -50.9695 H         1 UNK         0.0600 
    208 H208       -1.8190  -24.9754  -52.0701 H         1 UNK         0.0600 
    209 H209       -1.9696  -24.1073  -50.5479 H         1 UNK         0.0600 
    210 H210       -3.7824  -25.4890  -48.7132 H         1 UNK         0.3000 
    211 H211       -5.9528  -25.4023  -48.4120 H         1 UNK         0.0600 
    212 H212       -6.3133  -27.6938  -50.4149 H         1 UNK         0.0600 
    213 H213       -7.4873  -27.1350  -49.2333 H         1 UNK         0.0600 
    214 H214       -5.9992  -27.8942  -48.6913 H         1 UNK         0.0600 
    215 H215       -4.7131  -23.5894  -50.0771 H         1 UNK         0.3000 
    216 H216       -6.9206  -22.5083  -51.6025 H         1 UNK         0.0600 
    217 H217       -5.5467  -22.3077  -53.7289 H         1 UNK         0.0600 
    218 H218       -5.9682  -23.9751  -53.3648 H         1 UNK         0.0600 
    219 H219       -4.3438  -23.3853  -53.0249 H         1 UNK         0.0600 
    220 H220       -6.7415  -20.3149  -51.7272 H         1 UNK         0.3000 
    221 H221       -4.8223  -18.9830  -50.0192 H         1 UNK         0.0600 
    222 H222       -7.0770  -17.9129  -51.8120 H         1 UNK         0.0600 
    223 H223       -7.2420  -18.3530  -50.1108 H         1 UNK         0.0600 
    224 H224       -6.2370  -16.9927  -50.5720 H         1 UNK         0.0600 
    225 H225       -3.8706  -16.8990  -50.7521 H         1 UNK         0.3000 
    226 H226       -1.8686  -17.1531  -52.6548 H         1 UNK         0.0600 
    227 H227       -1.5526  -14.7032  -52.2548 H         1 UNK         0.0600 
    228 H228       -3.1589  -14.5999  -51.5401 H         1 UNK         0.0600 
    229 H229       -1.8960  -15.5315  -50.7439 H         1 UNK         0.0600 
    230 H230       -1.3925  -16.1862  -54.5788 H         1 UNK         0.3000 
    231 H231       -1.5303  -15.6020  -56.6722 H         1 UNK         0.0600 
    232 H232       -3.3323  -14.2529  -57.6287 H         1 UNK         0.0600 
    233 H233       -2.9347  -13.6334  -56.0334 H         1 UNK         0.0600 
    234 H234       -4.3938  -14.5951  -56.2749 H         1 UNK         0.0600 
    235 H235       -4.3134  -17.4539  -55.4967 H         1 UNK         0.3000 
    236 H236       -4.6524  -18.9595  -57.9915 H         1 UNK         0.0600 
    237 H237       -6.6110  -18.6013  -56.5558 H         1 UNK         0.0600 
    238 H238       -6.2319  -20.3155  -56.5951 H         1 UNK         0.0600 
    239 H239       -5.8157  -19.3558  -55.1805 H         1 UNK         0.0600 
    240 H240       -3.7175  -19.8853  -54.6393 H         1 UNK         0.3000 
    241 H241       -2.4588  -21.4235  -53.7580 H         1 UNK         0.0600 
    242 H242       -4.2656  -22.5927  -56.0953 H         1 UNK         0.3800 
    243 H243       -3.6442  -24.2209  -56.1565 H         1 UNK         0.3800 
    244 H244       -0.0689  -21.6322  -54.6254 H         1 UNK         0.0800 
    245 H245       -0.5455  -20.7406  -56.0403 H         1 UNK         0.0800 
    246 H246       -0.3101  -20.9985  -52.3368 H         1 UNK         0.0800 
    247 H247       -1.4754  -19.7619  -51.9631 H         1 UNK         0.0800 
@<TRIPOS>BOND
     1    1    2 1    
     2    1  127 1    
     3    1  128 1    
     4    1  129 1    
     5    2    3 2    
     6    2    4 am   BACKBONE|DICT|INTERRES
     7    4    5 1    
     8    4  130 1    
     9    5    6 1    
    10    5   65 1    
    11    5  131 1    
    12    6    7 1    
    13    6  132 1    
    14    6  133 1    
    15    7    8 1    
    16    8    9 1    
    17    8  134 1    
    18    8  135 1    
    19    9   10 ar   
    20    9   14 ar   
    21   10   11 ar   
    22   10  136 1    
    23   11   12 ar   
    24   11  126 1    
    25   12   13 ar   
    26   12  137 1    
    27   13   14 ar   
    28   13   15 1    
    29   14  138 1    
    30   15   16 1    
    31   15  139 1    
    32   15  140 1    
    33   16   17 1    
    34   17   18 1    
    35   17  141 1    
    36   17  142 1    
    37   18   19 1    
    38   18   67 1    
    39   18  143 1    
    40   19   20 am   BACKBONE|DICT|INTERRES
    41   19  144 1    
    42   20   21 2    
    43   20   22 1    
    44   22   23 1    
    45   22   24 1    
    46   22  145 1    
    47   23  146 1    
    48   23  147 1    
    49   23  148 1    
    50   24   25 am   BACKBONE|DICT|INTERRES
    51   24  149 1    
    52   25   26 2    
    53   25   27 1    
    54   27   28 1    
    55   27   29 1    
    56   27  150 1    
    57   28  151 1    
    58   28  152 1    
    59   28  153 1    
    60   29   30 am   BACKBONE|DICT|INTERRES
    61   29  154 1    
    62   30   31 2    
    63   30   32 1    
    64   32   33 1    
    65   32   34 1    
    66   32  155 1    
    67   33  156 1    
    68   33  157 1    
    69   33  158 1    
    70   34   35 am   BACKBONE|DICT|INTERRES
    71   34  159 1    
    72   35   36 2    
    73   35   37 1    
    74   37   38 1    
    75   37   39 1    
    76   37  160 1    
    77   38  161 1    
    78   38  162 1    
    79   38  163 1    
    80   39   40 am   BACKBONE|DICT|INTERRES
    81   39  164 1    
    82   40   41 2    
    83   40   42 1    
    84   42   43 1    
    85   42   44 1    
    86   42  165 1    
    87   43  166 1    
    88   43  167 1    
    89   43  168 1    
    90   44   45 am   BACKBONE|DICT|INTERRES
    91   44  169 1    
    92   45   46 2    
    93   45   47 1    
    94   47   48 1    
    95   47   49 1    
    96   47  170 1    
    97   48  171 1    
    98   48  172 1    
    99   48  173 1    
   100   49   50 am   BACKBONE|DICT|INTERRES
   101   49  174 1    
   102   50   51 2    
   103   50   52 1    
   104   52   53 1    
   105   52   54 1    
   106   52  175 1    
   107   53  176 1    
   108   53  177 1    
   109   53  178 1    
   110   54   55 am   BACKBONE|DICT|INTERRES
   111   54  179 1    
   112   55   56 2    
   113   55   57 1    
   114   57   58 1    
   115   57   59 1    
   116   57  180 1    
   117   58  181 1    
   118   58  182 1    
   119   58  183 1    
   120   59   60 am   BACKBONE|DICT|INTERRES
   121   59  184 1    
   122   60   61 2    
   123   60   62 1    
   124   62   63 1    
   125   62   64 1    
   126   62  185 1    
   127   63  186 1    
   128   63  187 1    
   129   63  188 1    
   130   64   65 am   BACKBONE|DICT|INTERRES
   131   64  189 1    
   132   65   66 2    
   133   67   68 2    
   134   67   69 am   BACKBONE|DICT|INTERRES
   135   69   70 1    
   136   69  190 1    
   137   70   71 1    
   138   70   72 1    
   139   70  191 1    
   140   71  192 1    
   141   71  193 1    
   142   71  194 1    
   143   72   73 2    
   144   72   74 am   BACKBONE|DICT|INTERRES
   145   74   75 1    
   146   74  195 1    
   147   75   76 1    
   148   75   77 1    
   149   75  196 1    
   150   76  197 1    
   151   76  198 1    
   152   76  199 1    
   153   77   78 2    
   154   77   79 am   BACKBONE|DICT|INTERRES
   155   79   80 1    
   156   79  200 1    
   157   80   81 1    
   158   80   82 1    
   159   80  201 1    
   160   81  202 1    
   161   81  203 1    
   162   81  204 1    
   163   82   83 2    
   164   82   84 am   BACKBONE|DICT|INTERRES
   165   84   85 1    
   166   84  205 1    
   167   85   86 1    
   168   85   87 1    
   169   85  206 1    
   170   86  207 1    
   171   86  208 1    
   172   86  209 1    
   173   87   88 2    
   174   87   89 am   BACKBONE|DICT|INTERRES
   175   89   90 1    
   176   89  210 1    
   177   90   91 1    
   178   90   92 1    
   179   90  211 1    
   180   91  212 1    
   181   91  213 1    
   182   91  214 1    
   183   92   93 2    
   184   92   94 am   BACKBONE|DICT|INTERRES
   185   94   95 1    
   186   94  215 1    
   187   95   96 1    
   188   95   97 1    
   189   95  216 1    
   190   96  217 1    
   191   96  218 1    
   192   96  219 1    
   193   97   98 2    
   194   97   99 am   BACKBONE|DICT|INTERRES
   195   99  100 1    
   196   99  220 1    
   197  100  101 1    
   198  100  102 1    
   199  100  221 1    
   200  101  222 1    
   201  101  223 1    
   202  101  224 1    
   203  102  103 2    
   204  102  104 am   BACKBONE|DICT|INTERRES
   205  104  105 1    
   206  104  225 1    
   207  105  106 1    
   208  105  107 1    
   209  105  226 1    
   210  106  227 1    
   211  106  228 1    
   212  106  229 1    
   213  107  108 2    
   214  107  109 am   BACKBONE|DICT|INTERRES
   215  109  110 1    
   216  109  230 1    
   217  110  111 1    
   218  110  112 1    
   219  110  231 1    
   220  111  232 1    
   221  111  233 1    
   222  111  234 1    
   223  112  113 2    
   224  112  114 am   BACKBONE|DICT|INTERRES
   225  114  115 1    
   226  114  235 1    
   227  115  116 1    
   228  115  117 1    
   229  115  236 1    
   230  116  237 1    
   231  116  238 1    
   232  116  239 1    
   233  117  118 2    
   234  117  119 am   BACKBONE|DICT|INTERRES
   235  119  120 1    
   236  119  240 1    
   237  120  121 1    
   238  120  124 1    
   239  120  241 1    
   240  121  122 am   BACKBONE|DICT|INTERRES
   241  121  123 2    
   242  122  242 1    
   243  122  243 1    
   244  124  125 1    
   245  124  244 1    
   246  124  245 1    
   247  125  126 1    
   248  126  246 1    
   249  126  247 1    
@<TRIPOS>SUBSTRUCTURE
     1 UNK         1 GROUP             0       ****    0 ROOT    
