@<TRIPOS>MOLECULE
3R540
247   249    1
SMALL
USER_CHARGES


@<TRIPOS>ATOM
      1 CA         -2.8802  -12.4730  -42.6346 C.3       0 UNK        -0.1800 
      2 C          -2.7649  -11.7766  -43.9824 C.2       0 UNK         0.5000 
      3 O          -3.5005  -10.8262  -44.2503 O.2       0 UNK        -0.5000 
      4 N          -1.8457  -12.2452  -44.8292 N.am      1 UNK        -0.5000 
      5 CA         -1.5751  -11.7255  -46.1670 C.3       1 UNK         0.1400 
      6 C6         -2.6636  -12.1270  -47.2037 C.3       23 UNK        -0.0398 
      7 S7         -2.8030  -13.9244  -47.5217 S.3       23 UNK        -0.2404 
      8 C8         -2.1958  -14.0046  -49.2355 C.3       23 UNK        -0.0205 
      9 C9         -1.7953  -15.4166  -49.6305 C.ar      23 UNK        -0.0193 
     10 C10        -2.5956  -16.1766  -50.4897 C.ar      23 UNK        -0.1150 
     11 C11        -2.1960  -17.4613  -50.8712 C.ar      23 UNK        -0.0193 
     12 C12        -0.9693  -17.9584  -50.4282 C.ar      23 UNK        -0.1150 
     13 C13        -0.1977  -17.2448  -49.5039 C.ar      23 UNK        -0.0193 
     14 C14        -0.6123  -15.9650  -49.1274 C.ar      23 UNK        -0.1150 
     15 C15         1.0629  -17.8329  -48.8664 C.3       23 UNK        -0.0205 
     16 S16         1.0809  -19.6553  -48.6894 S.3       23 UNK        -0.2404 
     17 C17        -0.5742  -20.0029  -47.9993 C.3       23 UNK        -0.0398 
     18 CA         -0.6583  -21.3872  -47.3271 C.3       11 UNK         0.1400 
     19 N          -0.0176  -21.4096  -46.0135 N.am      11 UNK        -0.5000 
     20 C           0.1819  -22.5119  -45.2806 C.2       10 UNK         0.5000 
     21 O          -0.1006  -23.6476  -45.6642 O.2       10 UNK        -0.5000 
     22 CA          0.7295  -22.2997  -43.8573 C.3       10 UNK         0.1400 
     23 CB          2.2502  -22.0852  -43.8755 C.3       10 UNK        -0.1800 
     24 N           0.0780  -21.1783  -43.1762 N.am      10 UNK        -0.5000 
     25 C          -1.2254  -21.1452  -42.8619 C.2       9 UNK         0.5000 
     26 O          -1.9968  -22.0856  -43.0557 O.2       9 UNK        -0.5000 
     27 CA         -1.7697  -19.8305  -42.2735 C.3       9 UNK         0.1400 
     28 CB         -1.4562  -19.7336  -40.7732 C.3       9 UNK        -0.1800 
     29 N          -1.2616  -18.6434  -42.9641 N.am      9 UNK        -0.5000 
     30 C          -1.5141  -18.3420  -44.2461 C.2       8 UNK         0.5000 
     31 O          -2.2397  -19.0178  -44.9719 O.2       8 UNK        -0.5000 
     32 CA         -0.8018  -17.1102  -44.8359 C.3       8 UNK         0.1400 
     33 CB         -1.5389  -15.8207  -44.4565 C.3       8 UNK        -0.1800 
     34 N           0.6008  -17.0160  -44.4300 N.am      8 UNK        -0.5000 
     35 C           1.5304  -17.9437  -44.6993 C.2       7 UNK         0.5000 
     36 O           1.3134  -18.9594  -45.3565 O.2       7 UNK        -0.5000 
     37 CA          2.9162  -17.7373  -44.0691 C.3       7 UNK         0.1400 
     38 CB          3.7474  -16.7200  -44.8678 C.3       7 UNK        -0.1800 
     39 N           2.8052  -17.3174  -42.6722 N.am      7 UNK        -0.5000 
     40 C           2.3662  -18.1097  -41.6824 C.2       6 UNK         0.5000 
     41 O           2.0627  -19.2929  -41.8373 O.2       6 UNK        -0.5000 
     42 CA          2.1995  -17.4582  -40.2964 C.3       6 UNK         0.1400 
     43 CB          3.5360  -17.4469  -39.5397 C.3       6 UNK        -0.1800 
     44 N           1.6770  -16.0931  -40.3763 N.am      6 UNK        -0.5000 
     45 C           0.4454  -15.7759  -40.8015 C.2       5 UNK         0.5000 
     46 O          -0.4033  -16.6096  -41.1114 O.2       5 UNK        -0.5000 
     47 CA          0.1263  -14.2766  -40.9602 C.3       5 UNK         0.1400 
     48 CB         -0.4715  -13.7076  -39.6656 C.3       5 UNK        -0.1800 
     49 N           1.2889  -13.4768  -41.3557 N.am      5 UNK        -0.5000 
     50 C           1.9616  -13.6394  -42.5022 C.2       4 UNK         0.5000 
     51 O           1.6504  -14.4633  -43.3653 O.2       4 UNK        -0.5000 
     52 CA          3.2425  -12.8131  -42.6581 C.3       4 UNK         0.1400 
     53 CB          4.3701  -13.4596  -41.8238 C.3       4 UNK        -0.1800 
     54 N           3.6188  -12.7564  -44.0687 N.am      4 UNK        -0.5000 
     55 C           4.6014  -12.0007  -44.5748 C.2       3 UNK         0.5000 
     56 O           5.2599  -11.1994  -43.9099 O.2       3 UNK        -0.5000 
     57 CA          4.9234  -12.1701  -46.0705 C.3       3 UNK         0.1400 
     58 CB          5.8819  -13.3533  -46.2796 C.3       3 UNK        -0.1800 
     59 N           3.7478  -12.3541  -46.9200 N.am      3 UNK        -0.5000 
     60 C           2.8232  -11.4173  -47.1687 C.2       2 UNK         0.5000 
     61 O           2.8294  -10.2972  -46.6542 O.2       2 UNK        -0.5000 
     62 CA          1.7191  -11.7633  -48.1926 C.3       2 UNK         0.1400 
     63 CB          1.8440  -13.1765  -48.8088 C.3       2 UNK        -0.1800 
     64 N           0.3763  -11.5457  -47.6443 N.am      2 UNK        -0.5000 
     65 C          -0.1495  -12.1515  -46.5707 C.2       1 UNK         0.5000 
     66 O           0.4417  -13.0101  -45.9107 O.2       1 UNK        -0.5000 
     67 C          -2.1221  -21.8691  -47.2750 C.2       11 UNK         0.5000 
     68 O          -2.5246  -22.6401  -48.1425 O.2       11 UNK        -0.5000 
     69 N          -2.8874  -21.4428  -46.2615 N.am      12 UNK        -0.5000 
     70 CA         -4.2732  -21.8631  -46.0433 C.3       12 UNK         0.1400 
     71 CB         -4.9009  -21.0238  -44.9207 C.3       12 UNK        -0.1800 
     72 C          -4.4043  -23.3678  -45.7424 C.2       12 UNK         0.5000 
     73 O          -5.3632  -23.9916  -46.1977 O.2       12 UNK        -0.5000 
     74 N          -3.4276  -23.9278  -45.0142 N.am      13 UNK        -0.5000 
     75 CA         -3.3155  -25.3621  -44.7477 C.3       13 UNK         0.1400 
     76 CB         -2.2882  -25.5991  -43.6302 C.3       13 UNK        -0.1800 
     77 C          -2.9594  -26.1722  -46.0103 C.2       13 UNK         0.5000 
     78 O          -3.5082  -27.2573  -46.2065 O.2       13 UNK        -0.5000 
     79 N          -2.0650  -25.6289  -46.8488 N.am      14 UNK        -0.5000 
     80 CA         -1.6805  -26.2022  -48.1422 C.3       14 UNK         0.1400 
     81 CB         -0.3924  -25.5220  -48.6290 C.3       14 UNK        -0.1800 
     82 C          -2.7912  -26.0949  -49.2076 C.2       14 UNK         0.5000 
     83 O          -2.8980  -26.9740  -50.0639 O.2       14 UNK        -0.5000 
     84 N          -3.5952  -25.0263  -49.1295 N.am      15 UNK        -0.5000 
     85 CA         -4.7050  -24.6715  -50.0125 C.3       15 UNK         0.1400 
     86 CB         -5.8634  -25.6841  -49.8717 C.3       15 UNK        -0.1800 
     87 C          -4.2157  -24.4460  -51.4568 C.2       15 UNK         0.5000 
     88 O          -3.2949  -23.6536  -51.6601 O.2       15 UNK        -0.5000 
     89 N          -4.8108  -25.1448  -52.4325 N.am      16 UNK        -0.5000 
     90 CA         -4.5118  -25.0283  -53.8640 C.3       16 UNK         0.1400 
     91 CB         -5.4944  -25.9096  -54.6495 C.3       16 UNK        -0.1800 
     92 C          -3.0557  -25.3635  -54.2493 C.2       16 UNK         0.5000 
     93 O          -2.6029  -24.9447  -55.3152 O.2       16 UNK        -0.5000 
     94 N          -2.3415  -26.0919  -53.3785 N.am      17 UNK        -0.5000 
     95 CA         -0.9163  -26.3861  -53.5187 C.3       17 UNK         0.1400 
     96 CB         -0.5381  -27.5288  -52.5645 C.3       17 UNK        -0.1800 
     97 C          -0.0128  -25.1581  -53.2837 C.2       17 UNK         0.5000 
     98 O           1.1196  -25.1584  -53.7684 O.2       17 UNK        -0.5000 
     99 N          -0.5066  -24.1386  -52.5617 N.am      18 UNK        -0.5000 
    100 CA         0.1960  -22.8693  -52.3670 C.3       18 UNK         0.1400 
    101 CB        -0.3911  -22.1194  -51.1621 C.3       18 UNK        -0.1800 
    102 C          0.1274  -22.0029  -53.6347 C.2       18 UNK         0.5000 
    103 O          1.1631  -21.5672  -54.1386 O.2       18 UNK        -0.5000 
    104 N         -1.0956  -21.8047  -54.1356 N.am      19 UNK        -0.5000 
    105 CA        -1.4349  -21.0968  -55.3636 C.3       19 UNK         0.1400 
    106 CB        -1.1649  -19.5850  -55.2255 C.3       19 UNK        -0.1800 
    107 C         -2.9209  -21.3456  -55.6433 C.2       19 UNK         0.5000 
    108 O         -3.6783  -21.6088  -54.7068 O.2       19 UNK        -0.5000 
    109 N         -3.3276  -21.2014  -56.9106 N.am      20 UNK        -0.5000 
    110 CA        -4.7055  -21.3974  -57.3808 C.3       20 UNK         0.1400 
    111 CB        -4.7166  -21.3430  -58.9165 C.3       20 UNK        -0.1800 
    112 C         -5.7320  -20.4020  -56.7968 C.2       20 UNK         0.5000 
    113 O         -6.9323  -20.6727  -56.8447 O.2       20 UNK        -0.5000 
    114 N         -5.2477  -19.2772  -56.2517 N.am      21 UNK        -0.5000 
    115 CA        -6.0377  -18.2978  -55.5042 C.3       21 UNK         0.1400 
    116 CB        -5.2158  -17.0067  -55.3639 C.3       21 UNK        -0.1800 
    117 C         -6.4816  -18.8064  -54.1158 C.2       21 UNK         0.5000 
    118 O         -7.4607  -18.2912  -53.5742 O.2       21 UNK        -0.5000 
    119 N         -5.7605  -19.7917  -53.5686 N.am      22 UNK        -0.5000 
    120 CA        -6.0656  -20.4738  -52.3062 C.3       22 UNK         0.1400 
    121 C         -6.8070  -21.8186  -52.5489 C.2       22 UNK         0.5000 
    122 N         -7.4273  -22.3778  -51.5177 N.am      22 UNK        -0.7600 
    123 O         -6.8318  -22.3687  -53.6469 O.2       22 UNK        -0.5000 
    124 C124       -4.7734  -20.6765  -51.4740 C.3       23 UNK        -0.0398 
    125 S125       -4.3013  -19.1714  -50.5624 S.3       23 UNK        -0.2404 
    126 C126       -3.1174  -18.3587  -51.6817 C.3       23 UNK        -0.0205 
    127 H127       -3.8800  -12.3418  -42.2205 H         1 UNK         0.0600 
    128 H128       -2.1608  -12.0546  -41.9309 H         1 UNK         0.0600 
    129 H129       -2.6974  -13.5428  -42.7296 H         1 UNK         0.0600 
    130 H130       -1.2174  -12.9939  -44.5631 H         1 UNK         0.3000 
    131 H131       -1.5589  -10.6357  -46.0969 H         1 UNK         0.0600 
    132 H132       -3.6385  -11.7788  -46.8610 H         1 UNK         0.0800 
    133 H133       -2.4954  -11.6000  -48.1438 H         1 UNK         0.0800 
    134 H134       -2.9645  -13.6187  -49.9068 H         1 UNK         0.0800 
    135 H135       -1.3307  -13.3513  -49.3509 H         1 UNK         0.0800 
    136 H136       -3.5389  -15.7821  -50.8405 H         1 UNK         0.1150 
    137 H137       -0.6593  -18.9427  -50.7456 H         1 UNK         0.1150 
    138 H138       -0.0236  -15.3952  -48.4234 H         1 UNK         0.1150 
    139 H139        1.9278  -17.5302  -49.4575 H         1 UNK         0.0800 
    140 H140        1.2032  -17.4053  -47.8722 H         1 UNK         0.0800 
    141 H141       -0.8555  -19.2124  -47.3033 H         1 UNK         0.0800 
    142 H142       -1.2912  -19.9560  -48.8185 H         1 UNK         0.0800 
    143 H143       -0.1212  -22.1019  -47.9533 H         1 UNK         0.0600 
    144 H144        0.3064  -20.5143  -45.6546 H         1 UNK         0.3000 
    145 H145        0.5220  -23.2055  -43.2838 H         1 UNK         0.0600 
    146 H146        2.6472  -21.9973  -42.8640 H         1 UNK         0.0600 
    147 H147        2.7563  -22.9250  -44.3531 H         1 UNK         0.0600 
    148 H148        2.5257  -21.1826  -44.4210 H         1 UNK         0.0600 
    149 H149        0.6592  -20.3773  -42.9540 H         1 UNK         0.3000 
    150 H150       -2.8552  -19.8415  -42.3901 H         1 UNK         0.0600 
    151 H151       -1.8372  -20.6038  -40.2373 H         1 UNK         0.0600 
    152 H152       -1.9191  -18.8514  -40.3308 H         1 UNK         0.0600 
    153 H153       -0.3835  -19.6766  -40.5879 H         1 UNK         0.0600 
    154 H154       -0.7099  -17.9959  -42.4084 H         1 UNK         0.3000 
    155 H155       -0.8221  -17.1995  -45.9239 H         1 UNK         0.0600 
    156 H156       -1.0505  -14.9545  -44.8981 H         1 UNK         0.0600 
    157 H157       -1.5742  -15.6780  -43.3776 H         1 UNK         0.0600 
    158 H158       -2.5666  -15.8365  -44.8214 H         1 UNK         0.0600 
    159 H159        0.8787  -16.1830  -43.9193 H         1 UNK         0.3000 
    160 H160        3.4421  -18.6941  -44.0946 H         1 UNK         0.0600 
    161 H161        3.2601  -15.7477  -44.9292 H         1 UNK         0.0600 
    162 H162        3.9027  -17.0679  -45.8898 H         1 UNK         0.0600 
    163 H163        4.7309  -16.5746  -44.4209 H         1 UNK         0.0600 
    164 H164        2.9697  -16.3412  -42.4786 H         1 UNK         0.3000 
    165 H165        1.4892  -18.0619  -39.7276 H         1 UNK         0.0600 
    166 H166        4.2829  -16.8349  -40.0470 H         1 UNK         0.0600 
    167 H167        3.4132  -17.0579  -38.5287 H         1 UNK         0.0600 
    168 H168        3.9424  -18.4554  -39.4515 H         1 UNK         0.0600 
    169 H169        2.3087  -15.3462  -40.1301 H         1 UNK         0.3000 
    170 H170       -0.6195  -14.1854  -41.7501 H         1 UNK         0.0600 
    171 H171       -1.3595  -14.2670  -39.3680 H         1 UNK         0.0600 
    172 H172        0.2386  -13.7538  -38.8391 H         1 UNK         0.0600 
    173 H173       -0.7723  -12.6676  -39.7928 H         1 UNK         0.0600 
    174 H174        1.6115  -12.7907  -40.6883 H         1 UNK         0.3000 
    175 H175        3.0483  -11.7992  -42.3029 H         1 UNK         0.0600 
    176 H176        5.2796  -12.8597  -41.8382 H         1 UNK         0.0600 
    177 H177        4.0820  -13.5634  -40.7771 H         1 UNK         0.0600 
    178 H178        4.6229  -14.4536  -42.1952 H         1 UNK         0.0600 
    179 H179        3.0645  -13.3487  -44.6758 H         1 UNK         0.3000 
    180 H180        5.4330  -11.2621  -46.4004 H         1 UNK         0.0600 
    181 H181        6.1982  -13.4266  -47.3203 H         1 UNK         0.0600 
    182 H182        6.7826  -13.2380  -45.6751 H         1 UNK         0.0600 
    183 H183        5.4196  -14.3010  -46.0008 H         1 UNK         0.0600 
    184 H184        3.6559  -13.2495  -47.3763 H         1 UNK         0.3000 
    185 H185        1.8340  -11.0458  -49.0063 H         1 UNK         0.0600 
    186 H186        1.0635  -13.3498  -49.5488 H         1 UNK         0.0600 
    187 H187        2.7966  -13.2988  -49.3257 H         1 UNK         0.0600 
    188 H188        1.7705  -13.9620  -48.0563 H         1 UNK         0.0600 
    189 H189       -0.1576  -10.8185  -48.0988 H         1 UNK         0.3000 
    190 H190       -2.5191  -20.7399  -45.6250 H         1 UNK         0.3000 
    191 H191       -4.8266  -21.6628  -46.9632 H         1 UNK         0.0600 
    192 H192       -5.9435  -21.3018  -44.7619 H         1 UNK         0.0600 
    193 H193       -4.8816  -19.9616  -45.1650 H         1 UNK         0.0600 
    194 H194       -4.3774  -21.1596  -43.9746 H         1 UNK         0.0600 
    195 H195       -2.7050  -23.3299  -44.6285 H         1 UNK         0.3000 
    196 H196       -4.2856  -25.7145  -44.3908 H         1 UNK         0.0600 
    197 H197       -2.2199  -26.6590  -43.3824 H         1 UNK         0.0600 
    198 H198       -2.5676  -25.0685  -42.7198 H         1 UNK         0.0600 
    199 H199       -1.2914  -25.2650  -43.9175 H         1 UNK         0.0600 
    200 H200       -1.6165  -24.7590  -46.5831 H         1 UNK         0.3000 
    201 H201       -1.4678  -27.2632  -47.9963 H         1 UNK         0.0600 
    202 H202        0.4267  -25.6837  -47.9282 H         1 UNK         0.0600 
    203 H203       -0.5277  -24.4472  -48.7378 H         1 UNK         0.0600 
    204 H204       -0.0771  -25.9136  -49.5963 H         1 UNK         0.0600 
    205 H205       -3.3198  -24.2907  -48.4837 H         1 UNK         0.3000 
    206 H206       -5.0697  -23.7053  -49.6623 H         1 UNK         0.0600 
    207 H207       -6.1741  -25.7698  -48.8301 H         1 UNK         0.0600 
    208 H208       -6.7385  -25.3645  -50.4387 H         1 UNK         0.0600 
    209 H209       -5.5869  -26.6818  -50.2141 H         1 UNK         0.0600 
    210 H210       -5.5428  -25.7920  -52.1799 H         1 UNK         0.3000 
    211 H211       -4.6855  -23.9900  -54.1497 H         1 UNK         0.0600 
    212 H212       -5.3950  -26.9618  -54.3800 H         1 UNK         0.0600 
    213 H213       -5.3219  -25.8266  -55.7234 H         1 UNK         0.0600 
    214 H214       -6.5259  -25.6085  -54.4650 H         1 UNK         0.0600 
    215 H215       -2.7843  -26.3896  -52.5192 H         1 UNK         0.3000 
    216 H216       -0.7407  -26.7298  -54.5403 H         1 UNK         0.0600 
    217 H217        0.5057  -27.8168  -52.6957 H         1 UNK         0.0600 
    218 H218       -1.1452  -28.4154  -52.7479 H         1 UNK         0.0600 
    219 H219       -0.6685  -27.2426  -51.5215 H         1 UNK         0.0600 
    220 H220       -1.4620  -24.1832  -52.2202 H         1 UNK         0.3000 
    221 H221        1.2462  -23.0776  -52.1508 H         1 UNK         0.0600 
    222 H222       -1.4353  -21.8434  -51.3098 H         1 UNK         0.0600 
    223 H223       -0.3301  -22.7200  -50.2572 H         1 UNK         0.0600 
    224 H224        0.1645  -21.2002  -50.9832 H         1 UNK         0.0600 
    225 H225       -1.8977  -22.2151  -53.6711 H         1 UNK         0.3000 
    226 H226       -0.8438  -21.5105  -56.1829 H         1 UNK         0.0600 
    227 H227       -0.1131  -19.3779  -55.0303 H         1 UNK         0.0600 
    228 H228       -1.4272  -19.0555  -56.1421 H         1 UNK         0.0600 
    229 H229       -1.7468  -19.1441  -54.4168 H         1 UNK         0.0600 
    230 H230       -2.6469  -20.9644  -57.6181 H         1 UNK         0.3000 
    231 H231       -5.0201  -22.3966  -57.0715 H         1 UNK         0.0600 
    232 H232       -5.7195  -21.5194  -59.3078 H         1 UNK         0.0600 
    233 H233       -4.0653  -22.1058  -59.3437 H         1 UNK         0.0600 
    234 H234       -4.3863  -20.3715  -59.2863 H         1 UNK         0.0600 
    235 H235       -4.2506  -19.1285  -56.2803 H         1 UNK         0.3000 
    236 H236       -6.9393  -18.0707  -56.0770 H         1 UNK         0.0600 
    237 H237       -4.2847  -17.1785  -54.8228 H         1 UNK         0.0600 
    238 H238       -4.9653  -16.5908  -56.3399 H         1 UNK         0.0600 
    239 H239       -5.7752  -16.2437  -54.8209 H         1 UNK         0.0600 
    240 H240       -5.0336  -20.2338  -54.1207 H         1 UNK         0.3000 
    241 H241       -6.7537  -19.8579  -51.7238 H         1 UNK         0.0600 
    242 H242       -7.9328  -23.2363  -51.6674 H         1 UNK         0.3800 
    243 H243       -7.4641  -21.9332  -50.6139 H         1 UNK         0.3800 
    244 H244       -3.9468  -21.0230  -52.0956 H         1 UNK         0.0800 
    245 H245       -4.9112  -21.4480  -50.7156 H         1 UNK         0.0800 
    246 H246       -2.5354  -19.1123  -52.2131 H         1 UNK         0.0800 
    247 H247       -3.6557  -17.7811  -52.4339 H         1 UNK         0.0800 
@<TRIPOS>BOND
     1    1    2 1    
     2    1  127 1    
     3    1  128 1    
     4    1  129 1    
     5    2    3 2    
     6    2    4 am   BACKBONE|DICT|INTERRES
     7    4    5 1    
     8    4  130 1    
     9    5    6 1    
    10    5   65 1    
    11    5  131 1    
    12    6    7 1    
    13    6  132 1    
    14    6  133 1    
    15    7    8 1    
    16    8    9 1    
    17    8  134 1    
    18    8  135 1    
    19    9   10 ar   
    20    9   14 ar   
    21   10   11 ar   
    22   10  136 1    
    23   11   12 ar   
    24   11  126 1    
    25   12   13 ar   
    26   12  137 1    
    27   13   14 ar   
    28   13   15 1    
    29   14  138 1    
    30   15   16 1    
    31   15  139 1    
    32   15  140 1    
    33   16   17 1    
    34   17   18 1    
    35   17  141 1    
    36   17  142 1    
    37   18   19 1    
    38   18   67 1    
    39   18  143 1    
    40   19   20 am   BACKBONE|DICT|INTERRES
    41   19  144 1    
    42   20   21 2    
    43   20   22 1    
    44   22   23 1    
    45   22   24 1    
    46   22  145 1    
    47   23  146 1    
    48   23  147 1    
    49   23  148 1    
    50   24   25 am   BACKBONE|DICT|INTERRES
    51   24  149 1    
    52   25   26 2    
    53   25   27 1    
    54   27   28 1    
    55   27   29 1    
    56   27  150 1    
    57   28  151 1    
    58   28  152 1    
    59   28  153 1    
    60   29   30 am   BACKBONE|DICT|INTERRES
    61   29  154 1    
    62   30   31 2    
    63   30   32 1    
    64   32   33 1    
    65   32   34 1    
    66   32  155 1    
    67   33  156 1    
    68   33  157 1    
    69   33  158 1    
    70   34   35 am   BACKBONE|DICT|INTERRES
    71   34  159 1    
    72   35   36 2    
    73   35   37 1    
    74   37   38 1    
    75   37   39 1    
    76   37  160 1    
    77   38  161 1    
    78   38  162 1    
    79   38  163 1    
    80   39   40 am   BACKBONE|DICT|INTERRES
    81   39  164 1    
    82   40   41 2    
    83   40   42 1    
    84   42   43 1    
    85   42   44 1    
    86   42  165 1    
    87   43  166 1    
    88   43  167 1    
    89   43  168 1    
    90   44   45 am   BACKBONE|DICT|INTERRES
    91   44  169 1    
    92   45   46 2    
    93   45   47 1    
    94   47   48 1    
    95   47   49 1    
    96   47  170 1    
    97   48  171 1    
    98   48  172 1    
    99   48  173 1    
   100   49   50 am   BACKBONE|DICT|INTERRES
   101   49  174 1    
   102   50   51 2    
   103   50   52 1    
   104   52   53 1    
   105   52   54 1    
   106   52  175 1    
   107   53  176 1    
   108   53  177 1    
   109   53  178 1    
   110   54   55 am   BACKBONE|DICT|INTERRES
   111   54  179 1    
   112   55   56 2    
   113   55   57 1    
   114   57   58 1    
   115   57   59 1    
   116   57  180 1    
   117   58  181 1    
   118   58  182 1    
   119   58  183 1    
   120   59   60 am   BACKBONE|DICT|INTERRES
   121   59  184 1    
   122   60   61 2    
   123   60   62 1    
   124   62   63 1    
   125   62   64 1    
   126   62  185 1    
   127   63  186 1    
   128   63  187 1    
   129   63  188 1    
   130   64   65 am   BACKBONE|DICT|INTERRES
   131   64  189 1    
   132   65   66 2    
   133   67   68 2    
   134   67   69 am   BACKBONE|DICT|INTERRES
   135   69   70 1    
   136   69  190 1    
   137   70   71 1    
   138   70   72 1    
   139   70  191 1    
   140   71  192 1    
   141   71  193 1    
   142   71  194 1    
   143   72   73 2    
   144   72   74 am   BACKBONE|DICT|INTERRES
   145   74   75 1    
   146   74  195 1    
   147   75   76 1    
   148   75   77 1    
   149   75  196 1    
   150   76  197 1    
   151   76  198 1    
   152   76  199 1    
   153   77   78 2    
   154   77   79 am   BACKBONE|DICT|INTERRES
   155   79   80 1    
   156   79  200 1    
   157   80   81 1    
   158   80   82 1    
   159   80  201 1    
   160   81  202 1    
   161   81  203 1    
   162   81  204 1    
   163   82   83 2    
   164   82   84 am   BACKBONE|DICT|INTERRES
   165   84   85 1    
   166   84  205 1    
   167   85   86 1    
   168   85   87 1    
   169   85  206 1    
   170   86  207 1    
   171   86  208 1    
   172   86  209 1    
   173   87   88 2    
   174   87   89 am   BACKBONE|DICT|INTERRES
   175   89   90 1    
   176   89  210 1    
   177   90   91 1    
   178   90   92 1    
   179   90  211 1    
   180   91  212 1    
   181   91  213 1    
   182   91  214 1    
   183   92   93 2    
   184   92   94 am   BACKBONE|DICT|INTERRES
   185   94   95 1    
   186   94  215 1    
   187   95   96 1    
   188   95   97 1    
   189   95  216 1    
   190   96  217 1    
   191   96  218 1    
   192   96  219 1    
   193   97   98 2    
   194   97   99 am   BACKBONE|DICT|INTERRES
   195   99  100 1    
   196   99  220 1    
   197  100  101 1    
   198  100  102 1    
   199  100  221 1    
   200  101  222 1    
   201  101  223 1    
   202  101  224 1    
   203  102  103 2    
   204  102  104 am   BACKBONE|DICT|INTERRES
   205  104  105 1    
   206  104  225 1    
   207  105  106 1    
   208  105  107 1    
   209  105  226 1    
   210  106  227 1    
   211  106  228 1    
   212  106  229 1    
   213  107  108 2    
   214  107  109 am   BACKBONE|DICT|INTERRES
   215  109  110 1    
   216  109  230 1    
   217  110  111 1    
   218  110  112 1    
   219  110  231 1    
   220  111  232 1    
   221  111  233 1    
   222  111  234 1    
   223  112  113 2    
   224  112  114 am   BACKBONE|DICT|INTERRES
   225  114  115 1    
   226  114  235 1    
   227  115  116 1    
   228  115  117 1    
   229  115  236 1    
   230  116  237 1    
   231  116  238 1    
   232  116  239 1    
   233  117  118 2    
   234  117  119 am   BACKBONE|DICT|INTERRES
   235  119  120 1    
   236  119  240 1    
   237  120  121 1    
   238  120  124 1    
   239  120  241 1    
   240  121  122 am   BACKBONE|DICT|INTERRES
   241  121  123 2    
   242  122  242 1    
   243  122  243 1    
   244  124  125 1    
   245  124  244 1    
   246  124  245 1    
   247  125  126 1    
   248  126  246 1    
   249  126  247 1    
@<TRIPOS>SUBSTRUCTURE
     1 UNK         1 GROUP             0       ****    0 ROOT    
