@<TRIPOS>MOLECULE
3R540
247   249    1
SMALL
USER_CHARGES


@<TRIPOS>ATOM
      1 CA         -1.7125  -16.3277  -48.9982 C.3       0 UNK        -0.1800 
      2 C          -0.8118  -15.1726  -48.5833 C.2       0 UNK         0.5000 
      3 O          -0.9445  -14.6605  -47.4735 O.2       0 UNK        -0.5000 
      4 N           0.0958  -14.7536  -49.4725 N.am      1 UNK        -0.5000 
      5 CA          1.1084  -13.7197  -49.2374 C.3       1 UNK         0.1400 
      6 C6          1.7768  -13.1796  -50.5444 C.3       23 UNK        -0.0398 
      7 S7          1.4409  -14.0934  -52.0983 S.3       23 UNK        -0.2404 
      8 C8          2.7328  -15.3757  -52.0930 C.3       23 UNK        -0.0205 
      9 C9          2.1131  -16.7633  -52.1418 C.ar      23 UNK        -0.0193 
     10 C10         1.8960  -17.4009  -53.3669 C.ar      23 UNK        -0.1150 
     11 C11         1.3034  -18.6672  -53.4149 C.ar      23 UNK        -0.0193 
     12 C12         0.9371  -19.3007  -52.2214 C.ar      23 UNK        -0.1150 
     13 C13         1.1591  -18.6757  -50.9896 C.ar      23 UNK        -0.0193 
     14 C14         1.7449  -17.4084  -50.9595 C.ar      23 UNK        -0.1150 
     15 C15         0.7352  -19.3378  -49.6878 C.3       23 UNK        -0.0205 
     16 S16         2.1578  -19.7802  -48.6408 S.3       23 UNK        -0.2404 
     17 C17         1.3754  -19.8333  -46.9906 C.3       23 UNK        -0.0398 
     18 CA          0.8965  -21.2436  -46.5677 C.3       11 UNK         0.1400 
     19 N           0.6511  -21.3318  -45.1281 N.am      11 UNK        -0.5000 
     20 C           0.3521  -22.4569  -44.4631 C.2       10 UNK         0.5000 
     21 O           0.3136  -23.5727  -44.9832 O.2       10 UNK        -0.5000 
     22 CA         -0.0243  -22.2979  -42.9786 C.3       10 UNK         0.1400 
     23 CB          1.2302  -22.1468  -42.1057 C.3       10 UNK        -0.1800 
     24 N          -0.9271  -21.1676  -42.7488 N.am      10 UNK        -0.5000 
     25 C          -2.1663  -21.0767  -43.2543 C.2       9 UNK         0.5000 
     26 O          -2.6960  -21.9608  -43.9277 O.2       9 UNK        -0.5000 
     27 CA         -2.9255  -19.7609  -43.0077 C.3       9 UNK         0.1400 
     28 CB         -3.5193  -19.7271  -41.5917 C.3       9 UNK        -0.1800 
     29 N          -2.0909  -18.5786  -43.2214 N.am      9 UNK        -0.5000 
     30 C          -1.5423  -18.2344  -44.3955 C.2       8 UNK         0.5000 
     31 O          -1.7103  -18.8592  -45.4414 O.2       8 UNK        -0.5000 
     32 CA         -0.6031  -17.0179  -44.3908 C.3       8 UNK         0.1400 
     33 CB         -1.4095  -15.7113  -44.3764 C.3       8 UNK        -0.1800 
     34 N           0.3301  -17.0417  -43.2640 N.am      8 UNK        -0.5000 
     35 C           1.2505  -17.9932  -43.0512 C.2       7 UNK         0.5000 
     36 O           1.4475  -18.9362  -43.8151 O.2       7 UNK        -0.5000 
     37 CA          2.0452  -17.9118  -41.7368 C.3       7 UNK         0.1400 
     38 CB          3.2322  -16.9441  -41.8547 C.3       7 UNK        -0.1800 
     39 N           1.1970  -17.5182  -40.6138 N.am      7 UNK        -0.5000 
     40 C           0.2310  -18.2867  -40.0914 C.2       6 UNK         0.5000 
     41 O          -0.0167  -19.4312  -40.4721 O.2       6 UNK        -0.5000 
     42 CA         -0.6309  -17.6428  -38.9907 C.3       6 UNK         0.1400 
     43 CB          0.0711  -17.7323  -37.6275 C.3       6 UNK        -0.1800 
     44 N          -0.9479  -16.2437  -39.2853 N.am      6 UNK        -0.5000 
     45 C          -1.7380  -15.8487  -40.2936 C.2       5 UNK         0.5000 
     46 O          -2.3168  -16.6276  -41.0502 O.2       5 UNK        -0.5000 
     47 CA         -1.8686  -14.3311  -40.5206 C.3       5 UNK         0.1400 
     48 CB         -2.9918  -13.7509  -39.6485 C.3       5 UNK        -0.1800 
     49 N          -0.6264  -13.5943  -40.2682 N.am      5 UNK        -0.5000 
     50 C           0.5070  -13.7477  -40.9649 C.2       4 UNK         0.5000 
     51 O           0.6457  -14.5591  -41.8829 O.2       4 UNK        -0.5000 
     52 CA          1.6961  -12.8841  -40.5309 C.3       4 UNK         0.1400 
     53 CB          2.4107  -13.5139  -39.3222 C.3       4 UNK        -0.1800 
     54 N           2.6369  -12.7592  -41.6405 N.am      4 UNK        -0.5000 
     55 C           3.4358  -11.7078  -41.8563 C.2       3 UNK         0.5000 
     56 O           3.4516  -10.7112  -41.1319 O.2       3 UNK        -0.5000 
     57 CA          4.3990  -11.7678  -43.0601 C.3       3 UNK         0.1400 
     58 CB          5.8460  -11.9504  -42.5738 C.3       3 UNK        -0.1800 
     59 N           4.0999  -12.8269  -44.0277 N.am      3 UNK        -0.5000 
     60 C           3.1267  -12.7743  -44.9445 C.2       2 UNK         0.5000 
     61 O           2.3194  -11.8456  -45.0401 O.2       2 UNK        -0.5000 
     62 CA          3.0525  -13.9638  -45.9137 C.3       2 UNK         0.1400 
     63 CB          2.5659  -15.2330  -45.1942 C.3       2 UNK        -0.1800 
     64 N           2.1502  -13.6361  -47.0128 N.am      2 UNK        -0.5000 
     65 C           2.1521  -14.2206  -48.2151 C.2       1 UNK         0.5000 
     66 O           2.9308  -15.1210  -48.5318 O.2       1 UNK        -0.5000 
     67 C          -0.3366  -21.6971  -47.3720 C.2       11 UNK         0.5000 
     68 O          -0.1949  -22.5391  -48.2537 O.2       11 UNK        -0.5000 
     69 N          -1.5245  -21.1724  -47.0382 N.am      12 UNK        -0.5000 
     70 CA         -2.7923  -21.5184  -47.6827 C.3       12 UNK         0.1400 
     71 CB         -3.9091  -20.6002  -47.1677 C.3       12 UNK        -0.1800 
     72 C          -3.1816  -22.9987  -47.5338 C.2       12 UNK         0.5000 
     73 O          -3.7178  -23.5737  -48.4822 O.2       12 UNK        -0.5000 
     74 N          -2.8795  -23.5951  -46.3735 N.am      13 UNK        -0.5000 
     75 CA         -3.0446  -25.0244  -46.1176 C.3       13 UNK         0.1400 
     76 CB         -2.8585  -25.3080  -44.6192 C.3       13 UNK        -0.1800 
     77 C          -2.0882  -25.8803  -46.9686 C.2       13 UNK         0.5000 
     78 O          -2.5318  -26.8490  -47.5854 O.2       13 UNK        -0.5000 
     79 N          -0.8057  -25.4911  -47.0136 N.am      14 UNK        -0.5000 
     80 CA          0.2404  -26.1579  -47.7935 C.3       14 UNK         0.1400 
     81 CB          1.6118  -25.5968  -47.3872 C.3       14 UNK        -0.1800 
     82 C           0.0323  -26.0371  -49.3157 C.2       14 UNK         0.5000 
     83 O           0.2365  -27.0117  -50.0401 O.2       14 UNK        -0.5000 
     84 N          -0.3864  -24.8485  -49.7665 N.am      15 UNK        -0.5000 
     85 CA         -0.6763  -24.5171  -51.1621 C.3       15 UNK         0.1400 
     86 CB         -0.6902  -22.9872  -51.3043 C.3       15 UNK        -0.1800 
     87 C          -2.0025  -25.1095  -51.6765 C.2       15 UNK         0.5000 
     88 O          -2.2227  -25.1074  -52.8882 O.2       15 UNK        -0.5000 
     89 N          -2.8561  -25.5861  -50.7577 N.am      16 UNK        -0.5000 
     90 CA         -4.2004  -26.1214  -50.9807 C.3       16 UNK         0.1400 
     91 CB         -4.1536  -27.4165  -51.8188 C.3       16 UNK        -0.1800 
     92 C          -5.1423  -25.0468  -51.5586 C.2       16 UNK         0.5000 
     93 O          -5.6114  -25.1724  -52.6908 O.2       16 UNK        -0.5000 
     94 N          -5.3756  -24.0087  -50.7434 N.am      17 UNK        -0.5000 
     95 CA         -6.1570  -22.7988  -51.0040 C.3       17 UNK         0.1400 
     96 CB         -7.5829  -23.1037  -51.5065 C.3       17 UNK        -0.1800 
     97 C          -5.3819  -21.8328  -51.9141 C.2       17 UNK         0.5000 
     98 O          -5.5779  -21.8053  -53.1332 O.2       17 UNK        -0.5000 
     99 N          -4.5009  -21.0422  -51.2853 N.am      18 UNK        -0.5000 
    100 CA        -3.6786  -20.0261  -51.9441 C.3       18 UNK         0.1400 
    101 CB        -2.6955  -19.4088  -50.9419 C.3       18 UNK        -0.1800 
    102 C         -4.5054  -18.9275  -52.6361 C.2       18 UNK         0.5000 
    103 O         -4.1738  -18.5188  -53.7481 O.2       18 UNK        -0.5000 
    104 N         -5.5938  -18.5065  -51.9800 N.am      19 UNK        -0.5000 
    105 CA        -6.5215  -17.4914  -52.4790 C.3       19 UNK         0.1400 
    106 CB        -7.4220  -17.0355  -51.3205 C.3       19 UNK        -0.1800 
    107 C         -7.3769  -17.9629  -53.6722 C.2       19 UNK         0.5000 
    108 O         -7.8767  -17.1191  -54.4174 O.2       19 UNK        -0.5000 
    109 N         -7.5487  -19.2840  -53.8264 N.am      20 UNK        -0.5000 
    110 CA        -8.3445  -19.8829  -54.8949 C.3       20 UNK         0.1400 
    111 CB        -8.8280  -21.2788  -54.4708 C.3       20 UNK        -0.1800 
    112 C         -7.5671  -19.9444  -56.2186 C.2       20 UNK         0.5000 
    113 O         -8.0583  -19.4400  -57.2296 O.2       20 UNK        -0.5000 
    114 N         -6.3798  -20.5659  -56.1954 N.am      21 UNK        -0.5000 
    115 CA        -5.5795  -20.8343  -57.3946 C.3       21 UNK         0.1400 
    116 CB        -6.1958  -22.0094  -58.1859 C.3       21 UNK        -0.1800 
    117 C         -4.0922  -21.0673  -57.0695 C.2       21 UNK         0.5000 
    118 O         -3.4209  -21.8046  -57.7938 O.2       21 UNK        -0.5000 
    119 N         -3.5897  -20.4443  -55.9952 N.am      22 UNK        -0.5000 
    120 CA        -2.2133  -20.6089  -55.4937 C.3       22 UNK         0.1400 
    121 C         -1.8901  -22.0447  -54.9726 C.2       22 UNK         0.5000 
    122 N         -2.8641  -22.7737  -54.4393 N.am      22 UNK        -0.7600 
    123 O         -0.7495  -22.4962  -55.0164 O.2       22 UNK        -0.5000 
    124 C124       -1.1291  -19.9947  -56.4367 C.3       23 UNK        -0.0398 
    125 S125       -0.3070  -18.5576  -55.6636 S.3       23 UNK        -0.2404 
    126 C126        1.0611  -19.3475  -54.7555 C.3       23 UNK        -0.0205 
    127 H127       -2.7471  -15.9917  -49.0659 H         1 UNK         0.0600 
    128 H128       -1.6622  -17.1284  -48.2598 H         1 UNK         0.0600 
    129 H129       -1.4221  -16.7351  -49.9666 H         1 UNK         0.0600 
    130 H130        0.1619  -15.2039  -50.3751 H         1 UNK         0.3000 
    131 H131        0.5886  -12.8746  -48.7796 H         1 UNK         0.0600 
    132 H132        1.4114  -12.1662  -50.7157 H         1 UNK         0.0800 
    133 H133        2.8567  -13.0571  -50.4387 H         1 UNK         0.0800 
    134 H134        3.3670  -15.2845  -51.2104 H         1 UNK         0.0800 
    135 H135        3.3869  -15.2247  -52.9530 H         1 UNK         0.0800 
    136 H136        2.1733  -16.9056  -54.2870 H         1 UNK         0.1150 
    137 H137        0.4743  -20.2770  -52.2528 H         1 UNK         0.1150 
    138 H138        1.9118  -16.9254  -50.0082 H         1 UNK         0.1150 
    139 H139        0.0711  -18.6600  -49.1525 H         1 UNK         0.0800 
    140 H140        0.1643  -20.2434  -49.8887 H         1 UNK         0.0800 
    141 H141        0.5712  -19.0994  -46.9235 H         1 UNK         0.0800 
    142 H142        2.1383  -19.4903  -46.2911 H         1 UNK         0.0800 
    143 H143        1.7022  -21.9481  -46.7849 H         1 UNK         0.0600 
    144 H144        0.7113  -20.4597  -44.6079 H         1 UNK         0.3000 
    145 H145       -0.5444  -23.2070  -42.6698 H         1 UNK         0.0600 
    146 H146        0.9707  -22.1045  -41.0478 H         1 UNK         0.0600 
    147 H147        1.9048  -22.9928  -42.2424 H         1 UNK         0.0600 
    148 H148        1.7856  -21.2410  -42.3492 H         1 UNK         0.0600 
    149 H149       -0.5768  -20.4135  -42.1669 H         1 UNK         0.3000 
    150 H150       -3.7507  -19.7165  -43.7213 H         1 UNK         0.0600 
    151 H151       -4.1582  -20.5932  -41.4150 H         1 UNK         0.0600 
    152 H152       -4.1299  -18.8363  -41.4427 H         1 UNK         0.0600 
    153 H153       -2.7419  -19.7297  -40.8274 H         1 UNK         0.0600 
    154 H154       -1.9422  -17.9757  -42.4174 H         1 UNK         0.3000 
    155 H155       -0.0169  -17.0446  -45.3117 H         1 UNK         0.0600 
    156 H156       -2.0114  -15.6152  -43.4746 H         1 UNK         0.0600 
    157 H157       -2.0922  -15.6689  -45.2257 H         1 UNK         0.0600 
    158 H158       -0.7586  -14.8395  -44.4401 H         1 UNK         0.0600 
    159 H159        0.2809  -16.2598  -42.6168 H         1 UNK         0.3000 
    160 H160        2.4433  -18.9070  -41.5283 H         1 UNK         0.0600 
    161 H161        2.9079  -15.9211  -42.0418 H         1 UNK         0.0600 
    162 H162        3.8913  -17.2367  -42.6729 H         1 UNK         0.0600 
    163 H163        3.8296  -16.9424  -40.9430 H         1 UNK         0.0600 
    164 H164        1.3006  -16.5743  -40.2746 H         1 UNK         0.3000 
    165 H165       -1.5676  -18.2012  -38.9307 H         1 UNK         0.0600 
    166 H166       -0.5643  -17.3441  -36.8313 H         1 UNK         0.0600 
    167 H167        0.3069  -18.7677  -37.3781 H         1 UNK         0.0600 
    168 H168        1.0059  -17.1703  -37.6156 H         1 UNK         0.0600 
    169 H169       -0.5149  -15.5406  -38.7052 H         1 UNK         0.3000 
    170 H170       -2.1391  -14.1757  -41.5667 H         1 UNK         0.0600 
    171 H171       -3.9347  -14.2681  -39.8317 H         1 UNK         0.0600 
    172 H172       -2.7671  -13.8446  -38.5853 H         1 UNK         0.0600 
    173 H173       -3.1549  -12.6952  -39.8661 H         1 UNK         0.0600 
    174 H174       -0.6537  -12.9143  -39.5219 H         1 UNK         0.3000 
    175 H175        1.3139  -11.8981  -40.2580 H         1 UNK         0.0600 
    176 H176        2.8107  -14.5002  -39.5611 H         1 UNK         0.0600 
    177 H177        3.2402  -12.8910  -38.9870 H         1 UNK         0.0600 
    178 H178        1.7318  -13.6286  -38.4764 H         1 UNK         0.0600 
    179 H179        2.6125  -13.5173  -42.3088 H         1 UNK         0.3000 
    180 H180        4.3341  -10.8050  -43.5717 H         1 UNK         0.0600 
    181 H181        5.9793  -12.9014  -42.0564 H         1 UNK         0.0600 
    182 H182        6.1306  -11.1576  -41.8806 H         1 UNK         0.0600 
    183 H183        6.5498  -11.9179  -43.4058 H         1 UNK         0.0600 
    184 H184        4.7150  -13.6277  -44.0124 H         1 UNK         0.3000 
    185 H185        4.0535  -14.1336  -46.3161 H         1 UNK         0.0600 
    186 H186        2.4271  -16.0649  -45.8850 H         1 UNK         0.0600 
    187 H187        3.2863  -15.5573  -44.4445 H         1 UNK         0.0600 
    188 H188        1.6183  -15.0548  -44.6878 H         1 UNK         0.0600 
    189 H189        1.5053  -12.8827  -46.8073 H         1 UNK         0.3000 
    190 H190       -1.5656  -20.4539  -46.3176 H         1 UNK         0.3000 
    191 H191       -2.6710  -21.3350  -48.7491 H         1 UNK         0.0600 
    192 H192       -4.0453  -20.7021  -46.0907 H         1 UNK         0.0600 
    193 H193       -4.8625  -20.8331  -47.6435 H         1 UNK         0.0600 
    194 H194       -3.6865  -19.5539  -47.3784 H         1 UNK         0.0600 
    195 H195       -2.5037  -23.0322  -45.6167 H         1 UNK         0.3000 
    196 H196       -4.0667  -25.2988  -46.3873 H         1 UNK         0.0600 
    197 H197       -2.9964  -26.3679  -44.4023 H         1 UNK         0.0600 
    198 H198       -3.5844  -24.7559  -44.0221 H         1 UNK         0.0600 
    199 H199       -1.8631  -25.0285  -44.2739 H         1 UNK         0.0600 
    200 H200       -0.5169  -24.6896  -46.4609 H         1 UNK         0.3000 
    201 H201        0.2208  -27.2199  -47.5402 H         1 UNK         0.0600 
    202 H202        1.8015  -25.7522  -46.3250 H         1 UNK         0.0600 
    203 H203        1.6836  -24.5267  -47.5851 H         1 UNK         0.0600 
    204 H204        2.4149  -26.0885  -47.9374 H         1 UNK         0.0600 
    205 H205       -0.4556  -24.0764  -49.1042 H         1 UNK         0.3000 
    206 H206        0.1271  -24.9137  -51.7859 H         1 UNK         0.0600 
    207 H207        0.2524  -22.5513  -50.9734 H         1 UNK         0.0600 
    208 H208       -0.8336  -22.6891  -52.3406 H         1 UNK         0.0600 
    209 H209       -1.4949  -22.5404  -50.7200 H         1 UNK         0.0600 
    210 H210       -2.5779  -25.5084  -49.7887 H         1 UNK         0.3000 
    211 H211       -4.5909  -26.3863  -49.9967 H         1 UNK         0.0600 
    212 H212       -3.7978  -27.2382  -52.8337 H         1 UNK         0.0600 
    213 H213       -5.1457  -27.8623  -51.8966 H         1 UNK         0.0600 
    214 H214       -3.4988  -28.1573  -51.3598 H         1 UNK         0.0600 
    215 H215       -4.8572  -23.9904  -49.8663 H         1 UNK         0.3000 
    216 H216       -6.2708  -22.3089  -50.0356 H         1 UNK         0.0600 
    217 H217       -8.1754  -22.1899  -51.5549 H         1 UNK         0.0600 
    218 H218       -8.0989  -23.7894  -50.8346 H         1 UNK         0.0600 
    219 H219       -7.5888  -23.5444  -52.5030 H         1 UNK         0.0600 
    220 H220       -4.3905  -21.1383  -50.2881 H         1 UNK         0.3000 
    221 H221       -3.0944  -20.5430  -52.7002 H         1 UNK         0.0600 
    222 H222       -3.2061  -18.9589  -50.0897 H         1 UNK         0.0600 
    223 H223       -2.0048  -20.1604  -50.5687 H         1 UNK         0.0600 
    224 H224       -2.0933  -18.6323  -51.4158 H         1 UNK         0.0600 
    225 H225       -5.7983  -18.9024  -51.0746 H         1 UNK         0.3000 
    226 H226       -5.9373  -16.6322  -52.8155 H         1 UNK         0.0600 
    227 H227       -6.8327  -16.6279  -50.4988 H         1 UNK         0.0600 
    228 H228       -8.1095  -16.2527  -51.6440 H         1 UNK         0.0600 
    229 H229       -8.0223  -17.8579  -50.9294 H         1 UNK         0.0600 
    230 H230       -7.0674  -19.9166  -53.2040 H         1 UNK         0.3000 
    231 H231       -9.2325  -19.2676  -55.0570 H         1 UNK         0.0600 
    232 H232       -9.4171  -21.2307  -53.5550 H         1 UNK         0.0600 
    233 H233       -7.9982  -21.9647  -54.3029 H         1 UNK         0.0600 
    234 H234       -9.4621  -21.7195  -55.2410 H         1 UNK         0.0600 
    235 H235       -6.0475  -20.9641  -55.3255 H         1 UNK         0.3000 
    236 H236       -5.6018  -19.9474  -58.0312 H         1 UNK         0.0600 
    237 H237       -5.6459  -22.1992  -59.1085 H         1 UNK         0.0600 
    238 H238       -6.1870  -22.9296  -57.6005 H         1 UNK         0.0600 
    239 H239       -7.2275  -21.8056  -58.4719 H         1 UNK         0.0600 
    240 H240       -4.1716  -19.8104  -55.4603 H         1 UNK         0.3000 
    241 H241       -2.1969  -20.0187  -54.5822 H         1 UNK         0.0600 
    242 H242       -2.6390  -23.6896  -54.0594 H         1 UNK         0.3800 
    243 H243       -3.8085  -22.4249  -54.3574 H         1 UNK         0.3800 
    244 H244       -1.5788  -19.6403  -57.3647 H         1 UNK         0.0800 
    245 H245       -0.3762  -20.7179  -56.7529 H         1 UNK         0.0800 
    246 H246        1.9672  -19.3024  -55.3612 H         1 UNK         0.0800 
    247 H247        0.8504  -20.4060  -54.6014 H         1 UNK         0.0800 
@<TRIPOS>BOND
     1    1    2 1    
     2    1  127 1    
     3    1  128 1    
     4    1  129 1    
     5    2    3 2    
     6    2    4 am   BACKBONE|DICT|INTERRES
     7    4    5 1    
     8    4  130 1    
     9    5    6 1    
    10    5   65 1    
    11    5  131 1    
    12    6    7 1    
    13    6  132 1    
    14    6  133 1    
    15    7    8 1    
    16    8    9 1    
    17    8  134 1    
    18    8  135 1    
    19    9   10 ar   
    20    9   14 ar   
    21   10   11 ar   
    22   10  136 1    
    23   11   12 ar   
    24   11  126 1    
    25   12   13 ar   
    26   12  137 1    
    27   13   14 ar   
    28   13   15 1    
    29   14  138 1    
    30   15   16 1    
    31   15  139 1    
    32   15  140 1    
    33   16   17 1    
    34   17   18 1    
    35   17  141 1    
    36   17  142 1    
    37   18   19 1    
    38   18   67 1    
    39   18  143 1    
    40   19   20 am   BACKBONE|DICT|INTERRES
    41   19  144 1    
    42   20   21 2    
    43   20   22 1    
    44   22   23 1    
    45   22   24 1    
    46   22  145 1    
    47   23  146 1    
    48   23  147 1    
    49   23  148 1    
    50   24   25 am   BACKBONE|DICT|INTERRES
    51   24  149 1    
    52   25   26 2    
    53   25   27 1    
    54   27   28 1    
    55   27   29 1    
    56   27  150 1    
    57   28  151 1    
    58   28  152 1    
    59   28  153 1    
    60   29   30 am   BACKBONE|DICT|INTERRES
    61   29  154 1    
    62   30   31 2    
    63   30   32 1    
    64   32   33 1    
    65   32   34 1    
    66   32  155 1    
    67   33  156 1    
    68   33  157 1    
    69   33  158 1    
    70   34   35 am   BACKBONE|DICT|INTERRES
    71   34  159 1    
    72   35   36 2    
    73   35   37 1    
    74   37   38 1    
    75   37   39 1    
    76   37  160 1    
    77   38  161 1    
    78   38  162 1    
    79   38  163 1    
    80   39   40 am   BACKBONE|DICT|INTERRES
    81   39  164 1    
    82   40   41 2    
    83   40   42 1    
    84   42   43 1    
    85   42   44 1    
    86   42  165 1    
    87   43  166 1    
    88   43  167 1    
    89   43  168 1    
    90   44   45 am   BACKBONE|DICT|INTERRES
    91   44  169 1    
    92   45   46 2    
    93   45   47 1    
    94   47   48 1    
    95   47   49 1    
    96   47  170 1    
    97   48  171 1    
    98   48  172 1    
    99   48  173 1    
   100   49   50 am   BACKBONE|DICT|INTERRES
   101   49  174 1    
   102   50   51 2    
   103   50   52 1    
   104   52   53 1    
   105   52   54 1    
   106   52  175 1    
   107   53  176 1    
   108   53  177 1    
   109   53  178 1    
   110   54   55 am   BACKBONE|DICT|INTERRES
   111   54  179 1    
   112   55   56 2    
   113   55   57 1    
   114   57   58 1    
   115   57   59 1    
   116   57  180 1    
   117   58  181 1    
   118   58  182 1    
   119   58  183 1    
   120   59   60 am   BACKBONE|DICT|INTERRES
   121   59  184 1    
   122   60   61 2    
   123   60   62 1    
   124   62   63 1    
   125   62   64 1    
   126   62  185 1    
   127   63  186 1    
   128   63  187 1    
   129   63  188 1    
   130   64   65 am   BACKBONE|DICT|INTERRES
   131   64  189 1    
   132   65   66 2    
   133   67   68 2    
   134   67   69 am   BACKBONE|DICT|INTERRES
   135   69   70 1    
   136   69  190 1    
   137   70   71 1    
   138   70   72 1    
   139   70  191 1    
   140   71  192 1    
   141   71  193 1    
   142   71  194 1    
   143   72   73 2    
   144   72   74 am   BACKBONE|DICT|INTERRES
   145   74   75 1    
   146   74  195 1    
   147   75   76 1    
   148   75   77 1    
   149   75  196 1    
   150   76  197 1    
   151   76  198 1    
   152   76  199 1    
   153   77   78 2    
   154   77   79 am   BACKBONE|DICT|INTERRES
   155   79   80 1    
   156   79  200 1    
   157   80   81 1    
   158   80   82 1    
   159   80  201 1    
   160   81  202 1    
   161   81  203 1    
   162   81  204 1    
   163   82   83 2    
   164   82   84 am   BACKBONE|DICT|INTERRES
   165   84   85 1    
   166   84  205 1    
   167   85   86 1    
   168   85   87 1    
   169   85  206 1    
   170   86  207 1    
   171   86  208 1    
   172   86  209 1    
   173   87   88 2    
   174   87   89 am   BACKBONE|DICT|INTERRES
   175   89   90 1    
   176   89  210 1    
   177   90   91 1    
   178   90   92 1    
   179   90  211 1    
   180   91  212 1    
   181   91  213 1    
   182   91  214 1    
   183   92   93 2    
   184   92   94 am   BACKBONE|DICT|INTERRES
   185   94   95 1    
   186   94  215 1    
   187   95   96 1    
   188   95   97 1    
   189   95  216 1    
   190   96  217 1    
   191   96  218 1    
   192   96  219 1    
   193   97   98 2    
   194   97   99 am   BACKBONE|DICT|INTERRES
   195   99  100 1    
   196   99  220 1    
   197  100  101 1    
   198  100  102 1    
   199  100  221 1    
   200  101  222 1    
   201  101  223 1    
   202  101  224 1    
   203  102  103 2    
   204  102  104 am   BACKBONE|DICT|INTERRES
   205  104  105 1    
   206  104  225 1    
   207  105  106 1    
   208  105  107 1    
   209  105  226 1    
   210  106  227 1    
   211  106  228 1    
   212  106  229 1    
   213  107  108 2    
   214  107  109 am   BACKBONE|DICT|INTERRES
   215  109  110 1    
   216  109  230 1    
   217  110  111 1    
   218  110  112 1    
   219  110  231 1    
   220  111  232 1    
   221  111  233 1    
   222  111  234 1    
   223  112  113 2    
   224  112  114 am   BACKBONE|DICT|INTERRES
   225  114  115 1    
   226  114  235 1    
   227  115  116 1    
   228  115  117 1    
   229  115  236 1    
   230  116  237 1    
   231  116  238 1    
   232  116  239 1    
   233  117  118 2    
   234  117  119 am   BACKBONE|DICT|INTERRES
   235  119  120 1    
   236  119  240 1    
   237  120  121 1    
   238  120  124 1    
   239  120  241 1    
   240  121  122 am   BACKBONE|DICT|INTERRES
   241  121  123 2    
   242  122  242 1    
   243  122  243 1    
   244  124  125 1    
   245  124  244 1    
   246  124  245 1    
   247  125  126 1    
   248  126  246 1    
   249  126  247 1    
@<TRIPOS>SUBSTRUCTURE
     1 UNK         1 GROUP             0       ****    0 ROOT    
