@<TRIPOS>MOLECULE
3R540
247   249    1
SMALL
USER_CHARGES


@<TRIPOS>ATOM
      1 CA         -3.5659  -11.8673  -49.1128 C.3       0 UNK        -0.1800 
      2 C          -2.3537  -11.9555  -48.1964 C.2       0 UNK         0.5000 
      3 O          -2.0782  -11.0134  -47.4539 O.2       0 UNK        -0.5000 
      4 N          -1.6264  -13.0784  -48.2607 N.am      1 UNK        -0.5000 
      5 CA         -0.4453  -13.4233  -47.4525 C.3       1 UNK         0.1400 
      6 C6         -0.6922  -13.4343  -45.9154 C.3       23 UNK        -0.0398 
      7 S7         -2.1773  -14.3734  -45.4227 S.3       23 UNK        -0.2404 
      8 C8         -1.5027  -16.0510  -45.2516 C.3       23 UNK        -0.0205 
      9 C9         -2.6320  -17.0680  -45.2217 C.ar      23 UNK        -0.0193 
     10 C10        -3.1771  -17.5315  -46.4211 C.ar      23 UNK        -0.1150 
     11 C11        -4.2803  -18.3893  -46.4184 C.ar      23 UNK        -0.0193 
     12 C12        -4.8057  -18.8230  -45.1984 C.ar      23 UNK        -0.1150 
     13 C13        -4.2234  -18.4267  -43.9907 C.ar      23 UNK        -0.0193 
     14 C14        -3.1497  -17.5292  -44.0081 C.ar      23 UNK        -0.1150 
     15 C15        -4.7558  -18.9666  -42.6697 C.3       23 UNK        -0.0205 
     16 S16        -3.5143  -19.9656  -41.7821 S.3       23 UNK        -0.2404 
     17 C17        -3.6001  -21.6050  -42.5871 C.3       23 UNK        -0.0398 
     18 CA         -3.0001  -21.6776  -44.0143 C.3       11 UNK         0.1400 
     19 N          -1.6347  -21.1404  -44.1184 N.am      11 UNK        -0.5000 
     20 C          -1.0324  -20.8800  -45.2881 C.2       10 UNK         0.5000 
     21 O          -1.5670  -21.0658  -46.3800 O.2       10 UNK        -0.5000 
     22 CA          0.4315  -20.4150  -45.2628 C.3       10 UNK         0.1400 
     23 CB          0.4930  -18.8891  -45.2065 C.3       10 UNK        -0.1800 
     24 N           1.2380  -20.9837  -44.1827 N.am      10 UNK        -0.5000 
     25 C           1.4452  -22.2900  -43.9621 C.2       9 UNK         0.5000 
     26 O           0.8943  -23.1878  -44.6005 O.2       9 UNK        -0.5000 
     27 CA          2.4262  -22.6521  -42.8365 C.3       9 UNK         0.1400 
     28 CB          3.8772  -22.5393  -43.3294 C.3       9 UNK        -0.1800 
     29 N           2.2357  -21.7797  -41.6801 N.am      9 UNK        -0.5000 
     30 C           1.3935  -22.0414  -40.6716 C.2       8 UNK         0.5000 
     31 O           0.7750  -23.0999  -40.5533 O.2       8 UNK        -0.5000 
     32 CA          1.1897  -20.9302  -39.6213 C.3       8 UNK         0.1400 
     33 CB          2.1631  -21.1154  -38.4473 C.3       8 UNK        -0.1800 
     34 N           1.3325  -19.5710  -40.1498 N.am      8 UNK        -0.5000 
     35 C           0.5679  -19.0374  -41.1129 C.2       7 UNK         0.5000 
     36 O          -0.3282  -19.6464  -41.6932 O.2       7 UNK        -0.5000 
     37 CA          0.9063  -17.5987  -41.5435 C.3       7 UNK         0.1400 
     38 CB          0.2734  -16.5829  -40.5815 C.3       7 UNK        -0.1800 
     39 N           2.3383  -17.3135  -41.6778 N.am      7 UNK        -0.5000 
     40 C           3.2441  -18.0408  -42.3463 C.2       6 UNK         0.5000 
     41 O           3.0093  -19.1412  -42.8498 O.2       6 UNK        -0.5000 
     42 CA          4.6347  -17.3975  -42.5110 C.3       6 UNK         0.1400 
     43 CB          5.7005  -18.4151  -42.9559 C.3       6 UNK        -0.1800 
     44 N           4.5796  -16.3143  -43.4919 N.am      6 UNK        -0.5000 
     45 C           4.0541  -15.0984  -43.2859 C.2       5 UNK         0.5000 
     46 O           3.6440  -14.7136  -42.1894 O.2       5 UNK        -0.5000 
     47 CA          3.9547  -14.1594  -44.5051 C.3       5 UNK         0.1400 
     48 CB          5.0885  -13.1231  -44.4827 C.3       5 UNK        -0.1800 
     49 N           3.9739  -14.8555  -45.7953 N.am      5 UNK        -0.5000 
     50 C           2.9867  -15.6344  -46.2581 C.2       4 UNK         0.5000 
     51 O           1.9548  -15.8763  -45.6321 O.2       4 UNK        -0.5000 
     52 CA          3.1864  -16.1860  -47.6770 C.3       4 UNK         0.1400 
     53 CB          2.0221  -17.0712  -48.1624 C.3       4 UNK        -0.1800 
     54 N           3.3769  -15.0663  -48.5947 N.am      4 UNK        -0.5000 
     55 C           4.0794  -15.1144  -49.7345 C.2       3 UNK         0.5000 
     56 O           4.6954  -16.1149  -50.1049 O.2       3 UNK        -0.5000 
     57 CA          4.0854  -13.8486  -50.6162 C.3       3 UNK         0.1400 
     58 CB          3.9654  -14.1936  -52.1115 C.3       3 UNK        -0.1800 
     59 N           2.9904  -12.9462  -50.2565 N.am      3 UNK        -0.5000 
     60 C           3.1266  -11.6919  -49.8112 C.2       2 UNK         0.5000 
     61 O           4.2080  -11.1147  -49.6942 O.2       2 UNK        -0.5000 
     62 CA          1.8291  -10.9633  -49.4095 C.3       2 UNK         0.1400 
     63 CB          1.2964  -10.1268  -50.5826 C.3       2 UNK        -0.1800 
     64 N           0.7641  -11.8566  -48.9403 N.am      2 UNK        -0.5000 
     65 C           0.8112  -12.6005  -47.8249 C.2       1 UNK         0.5000 
     66 O           1.8167  -12.6763  -47.1191 O.2       1 UNK        -0.5000 
     67 C          -3.1642  -23.0929  -44.6210 C.2       11 UNK         0.5000 
     68 O          -4.2993  -23.5079  -44.8568 O.2       11 UNK        -0.5000 
     69 N          -2.0519  -23.7885  -44.8972 N.am      12 UNK        -0.5000 
     70 CA         -2.0064  -24.9906  -45.7238 C.3       12 UNK         0.1400 
     71 CB         -1.2350  -26.0926  -44.9800 C.3       12 UNK        -0.1800 
     72 C          -1.3497  -24.6805  -47.0809 C.2       12 UNK         0.5000 
     73 O          -1.9290  -24.9920  -48.1206 O.2       12 UNK        -0.5000 
     74 N          -0.1529  -24.0766  -47.0532 N.am      13 UNK        -0.5000 
     75 CA          0.7228  -23.8996  -48.2141 C.3       13 UNK         0.1400 
     76 CB          2.1196  -23.4789  -47.7315 C.3       13 UNK        -0.1800 
     77 C           0.2022  -22.9145  -49.2762 C.2       13 UNK         0.5000 
     78 O           0.4040  -23.1563  -50.4658 O.2       13 UNK        -0.5000 
     79 N          -0.4573  -21.8328  -48.8444 N.am      14 UNK        -0.5000 
     80 CA         -1.0293  -20.8072  -49.7216 C.3       14 UNK         0.1400 
     81 CB         -0.7829  -19.4211  -49.1050 C.3       14 UNK        -0.1800 
     82 C          -2.5288  -21.0476  -49.9756 C.2       14 UNK         0.5000 
     83 O          -3.1182  -20.3609  -50.8084 O.2       14 UNK        -0.5000 
     84 N          -3.1221  -22.0189  -49.2714 N.am      15 UNK        -0.5000 
     85 CA         -4.4846  -22.5051  -49.4905 C.3       15 UNK         0.1400 
     86 CB         -5.0680  -22.9263  -48.1331 C.3       15 UNK        -0.1800 
     87 C          -4.5263  -23.6876  -50.4822 C.2       15 UNK         0.5000 
     88 O          -5.6190  -24.1301  -50.8408 O.2       15 UNK        -0.5000 
     89 N          -3.3456  -24.1915  -50.8759 N.am      16 UNK        -0.5000 
     90 CA         -3.1009  -25.3861  -51.6841 C.3       16 UNK         0.1400 
     91 CB         -1.6046  -25.4592  -52.0234 C.3       16 UNK        -0.1800 
     92 C          -3.9570  -25.4635  -52.9606 C.2       16 UNK         0.5000 
     93 O          -3.8140  -24.6221  -53.8515 O.2       16 UNK        -0.5000 
     94 N          -4.8518  -26.4629  -52.9898 N.am      17 UNK        -0.5000 
     95 CA         -5.8057  -26.7863  -54.0583 C.3       17 UNK         0.1400 
     96 CB         -5.0508  -27.2946  -55.3047 C.3       17 UNK        -0.1800 
     97 C          -6.7893  -25.6451  -54.4011 C.2       17 UNK         0.5000 
     98 O          -7.3338  -25.6300  -55.5059 O.2       17 UNK        -0.5000 
     99 N          -6.9653  -24.6844  -53.4794 N.am      18 UNK        -0.5000 
    100 CA        -7.6986  -23.4149  -53.5880 C.3       18 UNK         0.1400 
    101 CB        -9.1946  -23.6462  -53.8718 C.3       18 UNK        -0.1800 
    102 C         -7.0912  -22.4053  -54.5867 C.2       18 UNK         0.5000 
    103 O         -7.1420  -21.2037  -54.3270 O.2       18 UNK        -0.5000 
    104 N         -6.5079  -22.8976  -55.6870 N.am      19 UNK        -0.5000 
    105 CA        -5.8932  -22.1447  -56.7816 C.3       19 UNK         0.1400 
    106 CB        -5.4475  -23.1363  -57.8671 C.3       19 UNK        -0.1800 
    107 C         -4.7164  -21.2420  -56.3648 C.2       19 UNK         0.5000 
    108 O         -4.4654  -20.2403  -57.0360 O.2       19 UNK        -0.5000 
    109 N         -4.0314  -21.5877  -55.2643 N.am      20 UNK        -0.5000 
    110 CA        -2.9917  -20.7611  -54.6431 C.3       20 UNK         0.1400 
    111 CB        -2.2455  -21.6037  -53.6003 C.3       20 UNK        -0.1800 
    112 C         -3.5353  -19.4440  -54.0396 C.2       20 UNK         0.5000 
    113 O         -2.7866  -18.4691  -53.9423 O.2       20 UNK        -0.5000 
    114 N         -4.8344  -19.4310  -53.6971 N.am      21 UNK        -0.5000 
    115 CA        -5.6869  -18.2724  -53.4054 C.3       21 UNK         0.1400 
    116 CB        -6.0018  -17.5326  -54.7218 C.3       21 UNK        -0.1800 
    117 C         -5.1802  -17.3160  -52.3046 C.2       21 UNK         0.5000 
    118 O         -5.5144  -16.1297  -52.3330 O.2       21 UNK        -0.5000 
    119 N         -4.3890  -17.8359  -51.3581 N.am      22 UNK        -0.5000 
    120 CA        -3.7331  -17.0801  -50.2785 C.3       22 UNK         0.1400 
    121 C         -2.6313  -16.0912  -50.7658 C.2       22 UNK         0.5000 
    122 N         -2.0888  -16.2501  -51.9680 N.am      22 UNK        -0.7600 
    123 O         -2.2322  -15.1900  -50.0335 O.2       22 UNK        -0.5000 
    124 C124       -4.7341  -16.4422  -49.2688 C.3       23 UNK        -0.0398 
    125 S125       -5.9325  -17.6233  -48.5434 S.3       23 UNK        -0.2404 
    126 C126       -4.8881  -18.8776  -47.7251 C.3       23 UNK        -0.0205 
    127 H127       -3.4641  -11.0199  -49.7907 H         1 UNK         0.0600 
    128 H128       -4.4717  -11.7279  -48.5229 H         1 UNK         0.0600 
    129 H129       -3.6874  -12.7702  -49.7121 H         1 UNK         0.0600 
    130 H130       -1.9099  -13.8084  -48.9147 H         1 UNK         0.3000 
    131 H131       -0.2033  -14.4471  -47.7396 H         1 UNK         0.0600 
    132 H132        0.1691  -13.8491  -45.3890 H         1 UNK         0.0800 
    133 H133       -0.8055  -12.4156  -45.5422 H         1 UNK         0.0800 
    134 H134       -0.8963  -16.1124  -44.3469 H         1 UNK         0.0800 
    135 H135       -0.8368  -16.2617  -46.0893 H         1 UNK         0.0800 
    136 H136       -2.7500  -17.2005  -47.3554 H         1 UNK         0.1150 
    137 H137       -5.6482  -19.5002  -45.1898 H         1 UNK         0.1150 
    138 H138       -2.7156  -17.1958  -43.0759 H         1 UNK         0.1150 
    139 H139       -5.0390  -18.1228  -42.0393 H         1 UNK         0.0800 
    140 H140       -5.6617  -19.5563  -42.8171 H         1 UNK         0.0800 
    141 H141       -4.6458  -21.9174  -42.5976 H         1 UNK         0.0800 
    142 H142       -3.0825  -22.3108  -41.9353 H         1 UNK         0.0800 
    143 H143       -3.6196  -21.0516  -44.6510 H         1 UNK         0.0600 
    144 H144       -1.1602  -20.9056  -43.2528 H         1 UNK         0.3000 
    145 H145        0.8921  -20.7302  -46.2001 H         1 UNK         0.0600 
    146 H146        1.5183  -18.5274  -45.1343 H         1 UNK         0.0600 
    147 H147        0.0523  -18.4572  -46.1046 H         1 UNK         0.0600 
    148 H148       -0.0667  -18.5073  -44.3558 H         1 UNK         0.0600 
    149 H149        1.7562  -20.3165  -43.6178 H         1 UNK         0.3000 
    150 H150        2.2475  -23.6919  -42.5545 H         1 UNK         0.0600 
    151 H151        4.0478  -23.1891  -44.1888 H         1 UNK         0.0600 
    152 H152        4.5803  -22.8371  -42.5515 H         1 UNK         0.0600 
    153 H153        4.1265  -21.5218  -43.6330 H         1 UNK         0.0600 
    154 H154        2.6585  -20.8605  -41.7360 H         1 UNK         0.3000 
    155 H155        0.1712  -21.0279  -39.2397 H         1 UNK         0.0600 
    156 H156        3.2003  -20.9955  -38.7627 H         1 UNK         0.0600 
    157 H157        2.0652  -22.1107  -38.0116 H         1 UNK         0.0600 
    158 H158        1.9667  -20.3944  -37.6535 H         1 UNK         0.0600 
    159 H159        2.0647  -19.0022  -39.7507 H         1 UNK         0.3000 
    160 H160        0.4620  -17.4337  -42.5237 H         1 UNK         0.0600 
    161 H161        0.7125  -16.6439  -39.5850 H         1 UNK         0.0600 
    162 H162       -0.7990  -16.7563  -40.4806 H         1 UNK         0.0600 
    163 H163        0.4033  -15.5630  -40.9442 H         1 UNK         0.0600 
    164 H164        2.6346  -16.3943  -41.3704 H         1 UNK         0.3000 
    165 H165        4.9380  -16.9927  -41.5432 H         1 UNK         0.0600 
    166 H166        6.6867  -17.9540  -43.0100 H         1 UNK         0.0600 
    167 H167        5.7677  -19.2436  -42.2495 H         1 UNK         0.0600 
    168 H168        5.4740  -18.8376  -43.9359 H         1 UNK         0.0600 
    169 H169        4.8694  -16.5463  -44.4298 H         1 UNK         0.3000 
    170 H170        3.0048  -13.6258  -44.4267 H         1 UNK         0.0600 
    171 H171        5.0871  -12.5618  -43.5474 H         1 UNK         0.0600 
    172 H172        6.0671  -13.5945  -44.5819 H         1 UNK         0.0600 
    173 H173        4.9776  -12.4016  -45.2926 H         1 UNK         0.0600 
    174 H174        4.7761  -14.6880  -46.3852 H         1 UNK         0.3000 
    175 H175        4.0926  -16.7949  -47.6521 H         1 UNK         0.0600 
    176 H176        1.0708  -16.5385  -48.1477 H         1 UNK         0.0600 
    177 H177        2.1893  -17.4270  -49.1790 H         1 UNK         0.0600 
    178 H178        1.9219  -17.9521  -47.5298 H         1 UNK         0.0600 
    179 H179        2.9589  -14.1885  -48.3086 H         1 UNK         0.3000 
    180 H180        5.0506  -13.3649  -50.4551 H         1 UNK         0.0600 
    181 H181        3.0429  -14.7343  -52.3261 H         1 UNK         0.0600 
    182 H182        4.7976  -14.8163  -52.4419 H         1 UNK         0.0600 
    183 H183        3.9756  -13.2921  -52.7245 H         1 UNK         0.0600 
    184 H184        2.0579  -13.3295  -50.3196 H         1 UNK         0.3000 
    185 H185        2.0771  -10.2844  -48.5909 H         1 UNK         0.0600 
    186 H186        2.0538   -9.4281  -50.9406 H         1 UNK         0.0600 
    187 H187        1.0048  -10.7550  -51.4253 H         1 UNK         0.0600 
    188 H188        0.4282   -9.5381  -50.2854 H         1 UNK         0.0600 
    189 H189       -0.0968  -11.8549  -49.4678 H         1 UNK         0.3000 
    190 H190       -1.1560  -23.3724  -44.6695 H         1 UNK         0.3000 
    191 H191       -3.0131  -25.3635  -45.9234 H         1 UNK         0.0600 
    192 H192       -0.2192  -25.7835  -44.7308 H         1 UNK         0.0600 
    193 H193       -1.1652  -26.9971  -45.5856 H         1 UNK         0.0600 
    194 H194       -1.7375  -26.3615  -44.0507 H         1 UNK         0.0600 
    195 H195        0.2511  -23.8316  -46.1515 H         1 UNK         0.3000 
    196 H196        0.8186  -24.8732  -48.6998 H         1 UNK         0.0600 
    197 H197        2.0978  -22.5177  -47.2183 H         1 UNK         0.0600 
    198 H198        2.8121  -23.3876  -48.5693 H         1 UNK         0.0600 
    199 H199        2.5375  -24.2144  -47.0438 H         1 UNK         0.0600 
    200 H200       -0.6515  -21.7174  -47.8529 H         1 UNK         0.3000 
    201 H201       -0.5283  -20.8279  -50.6913 H         1 UNK         0.0600 
    202 H202        0.2531  -19.3124  -48.7869 H         1 UNK         0.0600 
    203 H203       -1.4204  -19.2365  -48.2406 H         1 UNK         0.0600 
    204 H204       -0.9768  -18.6352  -49.8346 H         1 UNK         0.0600 
    205 H205       -2.5707  -22.5194  -48.5887 H         1 UNK         0.3000 
    206 H206       -5.1047  -21.7040  -49.8982 H         1 UNK         0.0600 
    207 H207       -5.0194  -22.1137  -47.4085 H         1 UNK         0.0600 
    208 H208       -6.1153  -23.2150  -48.2290 H         1 UNK         0.0600 
    209 H209       -4.5307  -23.7770  -47.7122 H         1 UNK         0.0600 
    210 H210       -2.5182  -23.7514  -50.5031 H         1 UNK         0.3000 
    211 H211       -3.3378  -26.2446  -51.0528 H         1 UNK         0.0600 
    212 H212       -1.2734  -24.5766  -52.5723 H         1 UNK         0.0600 
    213 H213       -1.3829  -26.3324  -52.6382 H         1 UNK         0.0600 
    214 H214       -1.0002  -25.5375  -51.1194 H         1 UNK         0.0600 
    215 H215       -4.9060  -27.0659  -52.1805 H         1 UNK         0.3000 
    216 H216       -6.4183  -27.6073  -53.6836 H         1 UNK         0.0600 
    217 H217       -5.7422  -27.6815  -56.0542 H         1 UNK         0.0600 
    218 H218       -4.3681  -28.1050  -55.0493 H         1 UNK         0.0600 
    219 H219       -4.4687  -26.5015  -55.7754 H         1 UNK         0.0600 
    220 H220       -6.4384  -24.7754  -52.6160 H         1 UNK         0.3000 
    221 H221       -7.6218  -22.9533  -52.6023 H         1 UNK         0.0600 
    222 H222       -9.3638  -24.0696  -54.8620 H         1 UNK         0.0600 
    223 H223       -9.6354  -24.3204  -53.1375 H         1 UNK         0.0600 
    224 H224       -9.7468  -22.7069  -53.8235 H         1 UNK         0.0600 
    225 H225       -6.5654  -23.9032  -55.8123 H         1 UNK         0.3000 
    226 H226       -6.6640  -21.4966  -57.2030 H         1 UNK         0.0600 
    227 H227       -6.2912  -23.7155  -58.2431 H         1 UNK         0.0600 
    228 H228       -5.0065  -22.6155  -58.7182 H         1 UNK         0.0600 
    229 H229       -4.7027  -23.8370  -57.4870 H         1 UNK         0.0600 
    230 H230       -4.2670  -22.4542  -54.7967 H         1 UNK         0.3000 
    231 H231       -2.2761  -20.4817  -55.4190 H         1 UNK         0.0600 
    232 H232       -1.7246  -22.4381  -54.0701 H         1 UNK         0.0600 
    233 H233       -2.9296  -22.0185  -52.8605 H         1 UNK         0.0600 
    234 H234       -1.4990  -21.0090  -53.0729 H         1 UNK         0.0600 
    235 H235       -5.3532  -20.2923  -53.8245 H         1 UNK         0.3000 
    236 H236       -6.6247  -18.6820  -53.0281 H         1 UNK         0.0600 
    237 H237       -5.1113  -17.0604  -55.1382 H         1 UNK         0.0600 
    238 H238       -6.3986  -18.2177  -55.4715 H         1 UNK         0.0600 
    239 H239       -6.7499  -16.7534  -54.5714 H         1 UNK         0.0600 
    240 H240       -4.1262  -18.8160  -51.4164 H         1 UNK         0.3000 
    241 H241       -3.1564  -17.8184  -49.7303 H         1 UNK         0.0600 
    242 H242       -2.3941  -16.9986  -52.5823 H         1 UNK         0.3800 
    243 H243       -1.3708  -15.6147  -52.2746 H         1 UNK         0.3800 
    244 H244       -5.3047  -15.6532  -49.7594 H         1 UNK         0.0800 
    245 H245       -4.2109  -15.9412  -48.4548 H         1 UNK         0.0800 
    246 H246       -4.1055  -19.2340  -48.3894 H         1 UNK         0.0800 
    247 H247       -5.5152  -19.7488  -47.5335 H         1 UNK         0.0800 
@<TRIPOS>BOND
     1    1    2 1    
     2    1  127 1    
     3    1  128 1    
     4    1  129 1    
     5    2    3 2    
     6    2    4 am   BACKBONE|DICT|INTERRES
     7    4    5 1    
     8    4  130 1    
     9    5    6 1    
    10    5   65 1    
    11    5  131 1    
    12    6    7 1    
    13    6  132 1    
    14    6  133 1    
    15    7    8 1    
    16    8    9 1    
    17    8  134 1    
    18    8  135 1    
    19    9   10 ar   
    20    9   14 ar   
    21   10   11 ar   
    22   10  136 1    
    23   11   12 ar   
    24   11  126 1    
    25   12   13 ar   
    26   12  137 1    
    27   13   14 ar   
    28   13   15 1    
    29   14  138 1    
    30   15   16 1    
    31   15  139 1    
    32   15  140 1    
    33   16   17 1    
    34   17   18 1    
    35   17  141 1    
    36   17  142 1    
    37   18   19 1    
    38   18   67 1    
    39   18  143 1    
    40   19   20 am   BACKBONE|DICT|INTERRES
    41   19  144 1    
    42   20   21 2    
    43   20   22 1    
    44   22   23 1    
    45   22   24 1    
    46   22  145 1    
    47   23  146 1    
    48   23  147 1    
    49   23  148 1    
    50   24   25 am   BACKBONE|DICT|INTERRES
    51   24  149 1    
    52   25   26 2    
    53   25   27 1    
    54   27   28 1    
    55   27   29 1    
    56   27  150 1    
    57   28  151 1    
    58   28  152 1    
    59   28  153 1    
    60   29   30 am   BACKBONE|DICT|INTERRES
    61   29  154 1    
    62   30   31 2    
    63   30   32 1    
    64   32   33 1    
    65   32   34 1    
    66   32  155 1    
    67   33  156 1    
    68   33  157 1    
    69   33  158 1    
    70   34   35 am   BACKBONE|DICT|INTERRES
    71   34  159 1    
    72   35   36 2    
    73   35   37 1    
    74   37   38 1    
    75   37   39 1    
    76   37  160 1    
    77   38  161 1    
    78   38  162 1    
    79   38  163 1    
    80   39   40 am   BACKBONE|DICT|INTERRES
    81   39  164 1    
    82   40   41 2    
    83   40   42 1    
    84   42   43 1    
    85   42   44 1    
    86   42  165 1    
    87   43  166 1    
    88   43  167 1    
    89   43  168 1    
    90   44   45 am   BACKBONE|DICT|INTERRES
    91   44  169 1    
    92   45   46 2    
    93   45   47 1    
    94   47   48 1    
    95   47   49 1    
    96   47  170 1    
    97   48  171 1    
    98   48  172 1    
    99   48  173 1    
   100   49   50 am   BACKBONE|DICT|INTERRES
   101   49  174 1    
   102   50   51 2    
   103   50   52 1    
   104   52   53 1    
   105   52   54 1    
   106   52  175 1    
   107   53  176 1    
   108   53  177 1    
   109   53  178 1    
   110   54   55 am   BACKBONE|DICT|INTERRES
   111   54  179 1    
   112   55   56 2    
   113   55   57 1    
   114   57   58 1    
   115   57   59 1    
   116   57  180 1    
   117   58  181 1    
   118   58  182 1    
   119   58  183 1    
   120   59   60 am   BACKBONE|DICT|INTERRES
   121   59  184 1    
   122   60   61 2    
   123   60   62 1    
   124   62   63 1    
   125   62   64 1    
   126   62  185 1    
   127   63  186 1    
   128   63  187 1    
   129   63  188 1    
   130   64   65 am   BACKBONE|DICT|INTERRES
   131   64  189 1    
   132   65   66 2    
   133   67   68 2    
   134   67   69 am   BACKBONE|DICT|INTERRES
   135   69   70 1    
   136   69  190 1    
   137   70   71 1    
   138   70   72 1    
   139   70  191 1    
   140   71  192 1    
   141   71  193 1    
   142   71  194 1    
   143   72   73 2    
   144   72   74 am   BACKBONE|DICT|INTERRES
   145   74   75 1    
   146   74  195 1    
   147   75   76 1    
   148   75   77 1    
   149   75  196 1    
   150   76  197 1    
   151   76  198 1    
   152   76  199 1    
   153   77   78 2    
   154   77   79 am   BACKBONE|DICT|INTERRES
   155   79   80 1    
   156   79  200 1    
   157   80   81 1    
   158   80   82 1    
   159   80  201 1    
   160   81  202 1    
   161   81  203 1    
   162   81  204 1    
   163   82   83 2    
   164   82   84 am   BACKBONE|DICT|INTERRES
   165   84   85 1    
   166   84  205 1    
   167   85   86 1    
   168   85   87 1    
   169   85  206 1    
   170   86  207 1    
   171   86  208 1    
   172   86  209 1    
   173   87   88 2    
   174   87   89 am   BACKBONE|DICT|INTERRES
   175   89   90 1    
   176   89  210 1    
   177   90   91 1    
   178   90   92 1    
   179   90  211 1    
   180   91  212 1    
   181   91  213 1    
   182   91  214 1    
   183   92   93 2    
   184   92   94 am   BACKBONE|DICT|INTERRES
   185   94   95 1    
   186   94  215 1    
   187   95   96 1    
   188   95   97 1    
   189   95  216 1    
   190   96  217 1    
   191   96  218 1    
   192   96  219 1    
   193   97   98 2    
   194   97   99 am   BACKBONE|DICT|INTERRES
   195   99  100 1    
   196   99  220 1    
   197  100  101 1    
   198  100  102 1    
   199  100  221 1    
   200  101  222 1    
   201  101  223 1    
   202  101  224 1    
   203  102  103 2    
   204  102  104 am   BACKBONE|DICT|INTERRES
   205  104  105 1    
   206  104  225 1    
   207  105  106 1    
   208  105  107 1    
   209  105  226 1    
   210  106  227 1    
   211  106  228 1    
   212  106  229 1    
   213  107  108 2    
   214  107  109 am   BACKBONE|DICT|INTERRES
   215  109  110 1    
   216  109  230 1    
   217  110  111 1    
   218  110  112 1    
   219  110  231 1    
   220  111  232 1    
   221  111  233 1    
   222  111  234 1    
   223  112  113 2    
   224  112  114 am   BACKBONE|DICT|INTERRES
   225  114  115 1    
   226  114  235 1    
   227  115  116 1    
   228  115  117 1    
   229  115  236 1    
   230  116  237 1    
   231  116  238 1    
   232  116  239 1    
   233  117  118 2    
   234  117  119 am   BACKBONE|DICT|INTERRES
   235  119  120 1    
   236  119  240 1    
   237  120  121 1    
   238  120  124 1    
   239  120  241 1    
   240  121  122 am   BACKBONE|DICT|INTERRES
   241  121  123 2    
   242  122  242 1    
   243  122  243 1    
   244  124  125 1    
   245  124  244 1    
   246  124  245 1    
   247  125  126 1    
   248  126  246 1    
   249  126  247 1    
@<TRIPOS>SUBSTRUCTURE
     1 UNK         1 GROUP             0       ****    0 ROOT    
