@<TRIPOS>MOLECULE
3R540
247   249    1
SMALL
USER_CHARGES


@<TRIPOS>ATOM
      1 CA          2.6573   -9.9365  -48.8595 C.3       0 UNK        -0.1800 
      2 C           2.5948  -11.1427  -47.9341 C.2       0 UNK         0.5000 
      3 O           3.1269  -11.0937  -46.8258 O.2       0 UNK        -0.5000 
      4 N           1.9358  -12.2218  -48.3760 N.am      1 UNK        -0.5000 
      5 CA          1.7623  -13.4781  -47.6326 C.3       1 UNK         0.1400 
      6 C6          1.1570  -14.5967  -48.5187 C.3       23 UNK        -0.0398 
      7 S7         -0.4393  -14.1433  -49.2933 S.3       23 UNK        -0.2404 
      8 C8         -1.3868  -15.6893  -49.1516 C.3       23 UNK        -0.0205 
      9 C9         -0.9251  -16.7236  -50.1669 C.ar      23 UNK        -0.0193 
     10 C10        -1.4587  -16.7171  -51.4600 C.ar      23 UNK        -0.1150 
     11 C11        -1.0398  -17.6589  -52.4043 C.ar      23 UNK        -0.0193 
     12 C12        -0.0809  -18.6089  -52.0474 C.ar      23 UNK        -0.1150 
     13 C13         0.4517  -18.6333  -50.7570 C.ar      23 UNK        -0.0193 
     14 C14         0.0265  -17.6881  -49.8182 C.ar      23 UNK        -0.1150 
     15 C15         1.4876  -19.6845  -50.3933 C.3       23 UNK        -0.0205 
     16 S16         0.7003  -21.2328  -49.8515 S.3       23 UNK        -0.2404 
     17 C17         0.2707  -20.8057  -48.1349 C.3       23 UNK        -0.0398 
     18 CA         -0.0320  -22.0544  -47.2733 C.3       11 UNK         0.1400 
     19 N           0.3291  -21.8546  -45.8670 N.am      11 UNK        -0.5000 
     20 C           0.3600  -22.8260  -44.9430 C.2       10 UNK         0.5000 
     21 O           0.1191  -24.0079  -45.1860 O.2       10 UNK        -0.5000 
     22 CA          0.6519  -22.3971  -43.4935 C.3       10 UNK         0.1400 
     23 CB          2.1461  -22.1108  -43.2926 C.3       10 UNK        -0.1800 
     24 N          -0.1281  -21.2254  -43.1004 N.am      10 UNK        -0.5000 
     25 C          -1.4657  -21.1896  -43.0393 C.2       9 UNK         0.5000 
     26 O          -2.1864  -22.1712  -43.2228 O.2       9 UNK        -0.5000 
     27 CA         -2.1058  -19.8132  -42.7875 C.3       9 UNK         0.1400 
     28 CB         -2.2655  -19.5382  -41.2848 C.3       9 UNK        -0.1800 
     29 N          -1.3669  -18.7224  -43.4328 N.am      9 UNK        -0.5000 
     30 C          -1.3181  -18.5511  -44.7607 C.2       8 UNK         0.5000 
     31 O          -1.8362  -19.3220  -45.5678 O.2       8 UNK        -0.5000 
     32 CA         -0.5757  -17.3120  -45.2853 C.3       8 UNK         0.1400 
     33 CB         -1.3619  -16.0344  -44.9511 C.3       8 UNK        -0.1800 
     34 N           0.8205  -17.1831  -44.8549 N.am      8 UNK        -0.5000 
     35 C           1.7752  -18.1010  -45.0699 C.2       7 UNK         0.5000 
     36 O           1.5499  -19.2285  -45.5066 O.2       7 UNK        -0.5000 
     37 CA          3.2263  -17.7086  -44.7481 C.3       7 UNK         0.1400 
     38 CB          3.6015  -16.3023  -45.2444 C.3       7 UNK        -0.1800 
     39 N           3.4270  -17.7881  -43.3101 N.am      7 UNK        -0.5000 
     40 C           4.0190  -18.8067  -42.6729 C.2       6 UNK         0.5000 
     41 O           4.6268  -19.7126  -43.2437 O.2       6 UNK        -0.5000 
     42 CA          3.9105  -18.8325  -41.1331 C.3       6 UNK         0.1400 
     43 CB          5.2445  -18.4177  -40.4934 C.3       6 UNK        -0.1800 
     44 N           2.8481  -17.9783  -40.5965 N.am      6 UNK        -0.5000 
     45 C           1.5363  -18.1206  -40.8347 C.2       5 UNK         0.5000 
     46 O           1.0591  -19.0352  -41.5045 O.2       5 UNK        -0.5000 
     47 CA          0.6177  -17.0047  -40.2999 C.3       5 UNK         0.1400 
     48 CB          0.0995  -17.3557  -38.8977 C.3       5 UNK        -0.1800 
     49 N           1.2859  -15.6997  -40.2578 N.am      5 UNK        -0.5000 
     50 C           1.7078  -15.0260  -41.3364 C.2       4 UNK         0.5000 
     51 O           1.5249  -15.4037  -42.4955 O.2       4 UNK        -0.5000 
     52 CA          2.5506  -13.7766  -41.0649 C.3       4 UNK         0.1400 
     53 CB          4.0469  -14.1381  -41.0454 C.3       4 UNK        -0.1800 
     54 N           2.3009  -12.7669  -42.0885 N.am      4 UNK        -0.5000 
     55 C           2.4308  -11.4482  -41.8880 C.2       3 UNK         0.5000 
     56 O           2.7929  -10.9599  -40.8160 O.2       3 UNK        -0.5000 
     57 CA          2.1152  -10.4981  -43.0611 C.3       3 UNK         0.1400 
     58 CB          3.4168  -10.0110  -43.7154 C.3       3 UNK        -0.1800 
     59 N           1.2511  -11.0727  -44.0926 N.am      3 UNK        -0.5000 
     60 C          -0.0363  -11.4079  -43.9225 C.2       2 UNK         0.5000 
     61 O          -0.6386  -11.2580  -42.8586 O.2       2 UNK        -0.5000 
     62 CA         -0.7913  -11.9982  -45.1329 C.3       2 UNK         0.1400 
     63 CB         -1.8936  -11.0379  -45.6069 C.3       2 UNK        -0.1800 
     64 N           0.0587  -12.3267  -46.2793 N.am      2 UNK        -0.5000 
     65 C           0.9706  -13.3075  -46.3176 C.2       1 UNK         0.5000 
     66 O           1.2159  -14.0404  -45.3621 O.2       1 UNK        -0.5000 
     67 C          -1.4968  -22.5124  -47.4282 C.2       11 UNK         0.5000 
     68 O          -1.7627  -23.4525  -48.1794 O.2       11 UNK        -0.5000 
     69 N          -2.4050  -21.8826  -46.6648 N.am      12 UNK        -0.5000 
     70 CA         -3.8276  -22.2148  -46.5977 C.3       12 UNK         0.1400 
     71 CB         -4.5682  -21.2332  -45.6790 C.3       12 UNK        -0.1800 
     72 C          -4.0867  -23.6706  -46.1773 C.2       12 UNK         0.5000 
     73 O          -4.8966  -24.3479  -46.8107 O.2       12 UNK        -0.5000 
     74 N          -3.3609  -24.1335  -45.1517 N.am      13 UNK        -0.5000 
     75 CA         -3.3822  -25.5191  -44.6879 C.3       13 UNK         0.1400 
     76 CB         -2.6629  -25.6080  -43.3333 C.3       13 UNK        -0.1800 
     77 C          -2.7616  -26.5030  -45.6993 C.2       13 UNK         0.5000 
     78 O          -3.2615  -27.6202  -45.8363 O.2       13 UNK        -0.5000 
     79 N          -1.6832  -26.0812  -46.3737 N.am      14 UNK        -0.5000 
     80 CA         -0.9238  -26.8975  -47.3179 C.3       14 UNK         0.1400 
     81 CB          0.4508  -26.2584  -47.5730 C.3       14 UNK        -0.1800 
     82 C          -1.6593  -27.1589  -48.6441 C.2       14 UNK         0.5000 
     83 O          -1.8040  -28.3215  -49.0261 O.2       14 UNK        -0.5000 
     84 N          -2.0725  -26.0919  -49.3429 N.am      15 UNK        -0.5000 
     85 CA         -2.5613  -26.1758  -50.7259 C.3       15 UNK         0.1400 
     86 CB         -1.3593  -26.2536  -51.6906 C.3       15 UNK        -0.1800 
     87 C          -3.5310  -25.0402  -51.1041 C.2       15 UNK         0.5000 
     88 O          -3.7163  -24.7826  -52.2952 O.2       15 UNK        -0.5000 
     89 N          -4.1381  -24.4019  -50.0934 N.am      16 UNK        -0.5000 
     90 CA         -4.9663  -23.1914  -50.1556 C.3       16 UNK         0.1400 
     91 CB         -6.1261  -23.3165  -51.1628 C.3       16 UNK        -0.1800 
     92 C          -4.1349  -21.9160  -50.4103 C.2       16 UNK         0.5000 
     93 O          -3.0288  -21.9698  -50.9493 O.2       16 UNK        -0.5000 
     94 N          -4.6992  -20.7800  -49.9923 N.am      17 UNK        -0.5000 
     95 CA         -4.1416  -19.4457  -50.1703 C.3       17 UNK         0.1400 
     96 CB         -3.7420  -18.8731  -48.8008 C.3       17 UNK        -0.1800 
     97 C          -5.2264  -18.5923  -50.8360 C.2       17 UNK         0.5000 
     98 O          -6.3818  -18.6402  -50.4068 O.2       17 UNK        -0.5000 
     99 N          -4.8368  -17.8607  -51.8870 N.am      18 UNK        -0.5000 
    100 CA        -5.6861  -17.0708  -52.7877 C.3       18 UNK         0.1400 
    101 CB        -6.3160  -15.8768  -52.0411 C.3       18 UNK        -0.1800 
    102 C         -6.7256  -17.9186  -53.5602 C.2       18 UNK         0.5000 
    103 O         -7.7711  -17.3989  -53.9542 O.2       18 UNK        -0.5000 
    104 N         -6.4187  -19.2041  -53.7748 N.am      19 UNK        -0.5000 
    105 CA        -7.2562  -20.1990  -54.4375 C.3       19 UNK         0.1400 
    106 CB        -8.4113  -20.6154  -53.5051 C.3       19 UNK        -0.1800 
    107 C         -6.3901  -21.4133  -54.8092 C.2       19 UNK         0.5000 
    108 O         -5.2479  -21.5067  -54.3530 O.2       19 UNK        -0.5000 
    109 N         -6.9620  -22.3207  -55.6149 N.am      20 UNK        -0.5000 
    110 CA        -6.4193  -23.6142  -56.0513 C.3       20 UNK         0.1400 
    111 CB        -6.4999  -24.6459  -54.9066 C.3       20 UNK        -0.1800 
    112 C         -5.0135  -23.4984  -56.6741 C.2       20 UNK         0.5000 
    113 O         -4.9045  -23.1181  -57.8415 O.2       20 UNK        -0.5000 
    114 N         -3.9688  -23.7903  -55.8849 N.am      21 UNK        -0.5000 
    115 CA        -2.5543  -23.6982  -56.2576 C.3       21 UNK         0.1400 
    116 CB        -1.6984  -24.1855  -55.0791 C.3       21 UNK        -0.1800 
    117 C         -2.1048  -22.2924  -56.7056 C.2       21 UNK         0.5000 
    118 O         -1.1357  -22.1829  -57.4584 O.2       21 UNK        -0.5000 
    119 N         -2.8252  -21.2528  -56.2665 N.am      22 UNK        -0.5000 
    120 CA        -2.6531  -19.8633  -56.7190 C.3       22 UNK         0.1400 
    121 C         -3.1418  -19.5956  -58.1748 C.2       22 UNK         0.5000 
    122 N         -3.8722  -20.4990  -58.8200 N.am      22 UNK        -0.7600 
    123 O         -2.8476  -18.5425  -58.7335 O.2       22 UNK        -0.5000 
    124 C124       -3.3025  -18.8520  -55.7422 C.3       23 UNK        -0.0398 
    125 S125       -2.7459  -19.0758  -54.0210 S.3       23 UNK        -0.2404 
    126 C126       -1.6203  -17.6665  -53.8085 C.3       23 UNK        -0.0205 
    127 H127        3.6949   -9.6917  -49.0862 H         1 UNK         0.0600 
    128 H128        2.1988   -9.0720  -48.3794 H         1 UNK         0.0600 
    129 H129        2.1372  -10.1196  -49.8000 H         1 UNK         0.0600 
    130 H130        1.5045  -12.2000  -49.2897 H         1 UNK         0.3000 
    131 H131        2.7619  -13.8061  -47.3399 H         1 UNK         0.0600 
    132 H132        1.8547  -14.8454  -49.3195 H         1 UNK         0.0800 
    133 H133        1.0430  -15.5126  -47.9364 H         1 UNK         0.0800 
    134 H134       -2.4420  -15.4652  -49.3148 H         1 UNK         0.0800 
    135 H135       -1.3177  -16.0801  -48.1370 H         1 UNK         0.0800 
    136 H136       -2.1959  -15.9737  -51.7296 H         1 UNK         0.1150 
    137 H137        0.2387  -19.3433  -52.7737 H         1 UNK         0.1150 
    138 H138        0.4371  -17.7053  -48.8189 H         1 UNK         0.1150 
    139 H139        2.1118  -19.8970  -51.2625 H         1 UNK         0.0800 
    140 H140        2.1637  -19.3105  -49.6230 H         1 UNK         0.0800 
    141 H141       -0.5495  -20.0858  -48.1195 H         1 UNK         0.0800 
    142 H142        1.1359  -20.2842  -47.7297 H         1 UNK         0.0800 
    143 H143        0.6007  -22.8711  -47.6268 H         1 UNK         0.0600 
    144 H144        0.5685  -20.9058  -45.5917 H         1 UNK         0.3000 
    145 H145        0.3704  -23.2223  -42.8361 H         1 UNK         0.0600 
    146 H146        2.3613  -21.8378  -42.2593 H         1 UNK         0.0600 
    147 H147        2.7476  -22.9885  -43.5317 H         1 UNK         0.0600 
    148 H148        2.4871  -21.2958  -43.9313 H         1 UNK         0.0600 
    149 H149        0.3844  -20.3786  -42.8766 H         1 UNK         0.3000 
    150 H150       -3.1069  -19.8302  -43.2219 H         1 UNK         0.0600 
    151 H151       -2.9453  -20.2619  -40.8337 H         1 UNK         0.0600 
    152 H152       -2.6792  -18.5465  -41.1021 H         1 UNK         0.0600 
    153 H153       -1.3194  -19.6149  -40.7521 H         1 UNK         0.0600 
    154 H154       -0.8556  -18.0903  -42.8359 H         1 UNK         0.3000 
    155 H155       -0.5569  -17.4109  -46.3716 H         1 UNK         0.0600 
    156 H156       -1.1810  -15.7018  -43.9283 H         1 UNK         0.0600 
    157 H157       -2.4366  -16.1841  -45.0655 H         1 UNK         0.0600 
    158 H158       -1.0908  -15.2250  -45.6249 H         1 UNK         0.0600 
    159 H159        1.0837  -16.2917  -44.4449 H         1 UNK         0.3000 
    160 H160        3.8719  -18.4189  -45.2690 H         1 UNK         0.0600 
    161 H161        4.6820  -16.1614  -45.2203 H         1 UNK         0.0600 
    162 H162        3.1618  -15.5203  -44.6272 H         1 UNK         0.0600 
    163 H163        3.2760  -16.1439  -46.2731 H         1 UNK         0.0600 
    164 H164        2.9192  -17.1060  -42.7618 H         1 UNK         0.3000 
    165 H165        3.6910  -19.8615  -40.8409 H         1 UNK         0.0600 
    166 H166        5.2068  -18.5059  -39.4075 H         1 UNK         0.0600 
    167 H167        6.0598  -19.0538  -40.8408 H         1 UNK         0.0600 
    168 H168        5.5047  -17.3873  -40.7394 H         1 UNK         0.0600 
    169 H169        3.1455  -17.1940  -40.0361 H         1 UNK         0.3000 
    170 H170       -0.2380  -16.9267  -40.9736 H         1 UNK         0.0600 
    171 H171       -0.4103  -18.3197  -38.8963 H         1 UNK         0.0600 
    172 H172        0.9105  -17.4142  -38.1707 H         1 UNK         0.0600 
    173 H173       -0.6153  -16.6121  -38.5446 H         1 UNK         0.0600 
    174 H174        1.4775  -15.3247  -39.3396 H         1 UNK         0.3000 
    175 H175        2.2632  -13.3814  -40.0880 H         1 UNK         0.0600 
    176 H176        4.3753  -14.5349  -42.0072 H         1 UNK         0.0600 
    177 H177        4.6619  -13.2679  -40.8159 H         1 UNK         0.0600 
    178 H178        4.2606  -14.8926  -40.2876 H         1 UNK         0.0600 
    179 H179        1.9656  -13.1188  -42.9780 H         1 UNK         0.3000 
    180 H180        1.6008   -9.6298  -42.6442 H         1 UNK         0.0600 
    181 H181        3.9760  -10.8371  -44.1568 H         1 UNK         0.0600 
    182 H182        4.0668   -9.5279  -42.9848 H         1 UNK         0.0600 
    183 H183        3.2163   -9.2835  -44.5022 H         1 UNK         0.0600 
    184 H184        1.6768  -11.2318  -44.9969 H         1 UNK         0.3000 
    185 H185       -1.2668  -12.9192  -44.7906 H         1 UNK         0.0600 
    186 H186       -2.5827  -10.7987  -44.7958 H         1 UNK         0.0600 
    187 H187       -1.4772  -10.0982  -45.9720 H         1 UNK         0.0600 
    188 H188       -2.4832  -11.4799  -46.4104 H         1 UNK         0.0600 
    189 H189       -0.0671  -11.7667  -47.1098 H         1 UNK         0.3000 
    190 H190       -2.1041  -21.0853  -46.1088 H         1 UNK         0.3000 
    191 H191       -4.2268  -22.0787  -47.5972 H         1 UNK         0.0600 
    192 H192       -4.2527  -21.3327  -44.6419 H         1 UNK         0.0600 
    193 H193       -5.6435  -21.4124  -45.7087 H         1 UNK         0.0600 
    194 H194       -4.4037  -20.2001  -45.9842 H         1 UNK         0.0600 
    195 H195       -2.7475  -23.4934  -44.6566 H         1 UNK         0.3000 
    196 H196       -4.4242  -25.8095  -44.5382 H         1 UNK         0.0600 
    197 H197       -2.6793  -26.6280  -42.9473 H         1 UNK         0.0600 
    198 H198       -3.1425  -24.9703  -42.5904 H         1 UNK         0.0600 
    199 H199       -1.6191  -25.3014  -43.4109 H         1 UNK         0.0600 
    200 H200       -1.3075  -25.1626  -46.1656 H         1 UNK         0.3000 
    201 H201       -0.7469  -27.8673  -46.8476 H         1 UNK         0.0600 
    202 H202        1.0257  -26.1797  -46.6502 H         1 UNK         0.0600 
    203 H203        0.3607  -25.2586  -47.9972 H         1 UNK         0.0600 
    204 H204        1.0375  -26.8581  -48.2699 H         1 UNK         0.0600 
    205 H205       -1.9199  -25.1571  -48.9659 H         1 UNK         0.3000 
    206 H206       -3.1432  -27.0929  -50.8372 H         1 UNK         0.0600 
    207 H207       -1.6878  -26.4065  -52.7187 H         1 UNK         0.0600 
    208 H208       -0.7701  -25.3362  -51.6641 H         1 UNK         0.0600 
    209 H209       -0.6985  -27.0844  -51.4436 H         1 UNK         0.0600 
    210 H210       -3.9068  -24.7023  -49.1563 H         1 UNK         0.3000 
    211 H211       -5.4208  -23.1078  -49.1694 H         1 UNK         0.0600 
    212 H212       -5.7837  -23.1572  -52.1837 H         1 UNK         0.0600 
    213 H213       -6.8916  -22.5662  -50.9651 H         1 UNK         0.0600 
    214 H214       -6.6053  -24.2940  -51.1096 H         1 UNK         0.0600 
    215 H215       -5.6422  -20.7934  -49.6274 H         1 UNK         0.3000 
    216 H216       -3.2580  -19.4706  -50.8126 H         1 UNK         0.0600 
    217 H217       -3.3548  -17.8598  -48.8999 H         1 UNK         0.0600 
    218 H218       -2.9624  -19.4756  -48.3351 H         1 UNK         0.0600 
    219 H219       -4.5893  -18.8344  -48.1154 H         1 UNK         0.0600 
    220 H220       -3.8710  -17.9393  -52.1783 H         1 UNK         0.3000 
    221 H221       -5.0168  -16.6627  -53.5464 H         1 UNK         0.0600 
    222 H222       -7.0596  -16.2005  -51.3124 H         1 UNK         0.0600 
    223 H223       -5.5580  -15.2980  -51.5132 H         1 UNK         0.0600 
    224 H224       -6.8139  -15.1992  -52.7355 H         1 UNK         0.0600 
    225 H225       -5.5218  -19.5650  -53.4714 H         1 UNK         0.3000 
    226 H226       -7.6574  -19.7705  -55.3581 H         1 UNK         0.0600 
    227 H227       -9.0397  -21.3794  -53.9639 H         1 UNK         0.0600 
    228 H228       -8.0367  -21.0189  -52.5639 H         1 UNK         0.0600 
    229 H229       -9.0584  -19.7707  -53.2692 H         1 UNK         0.0600 
    230 H230       -7.8897  -22.1189  -55.9603 H         1 UNK         0.3000 
    231 H231       -7.0752  -23.9666  -56.8488 H         1 UNK         0.0600 
    232 H232       -7.5249  -24.7601  -54.5540 H         1 UNK         0.0600 
    233 H233       -5.8875  -24.3646  -54.0523 H         1 UNK         0.0600 
    234 H234       -6.1624  -25.6274  -55.2416 H         1 UNK         0.0600 
    235 H235       -4.1553  -24.0301  -54.9199 H         1 UNK         0.3000 
    236 H236       -2.3937  -24.3728  -57.1007 H         1 UNK         0.0600 
    237 H237       -1.9376  -25.2170  -54.8218 H         1 UNK         0.0600 
    238 H238       -0.6356  -24.1492  -55.3219 H         1 UNK         0.0600 
    239 H239       -1.8550  -23.5730  -54.1897 H         1 UNK         0.0600 
    240 H240       -3.5875  -21.4251  -55.6193 H         1 UNK         0.3000 
    241 H241       -1.5806  -19.6597  -56.7242 H         1 UNK         0.0600 
    242 H242       -4.1292  -21.3804  -58.3868 H         1 UNK         0.3800 
    243 H243       -4.1730  -20.3060  -59.7621 H         1 UNK         0.3800 
    244 H244       -3.0958  -17.8271  -56.0553 H         1 UNK         0.0800 
    245 H245       -4.3876  -18.9590  -55.7614 H         1 UNK         0.0800 
    246 H246       -0.8122  -17.7315  -54.5387 H         1 UNK         0.0800 
    247 H247       -2.1531  -16.7360  -54.0107 H         1 UNK         0.0800 
@<TRIPOS>BOND
     1    1    2 1    
     2    1  127 1    
     3    1  128 1    
     4    1  129 1    
     5    2    3 2    
     6    2    4 am   BACKBONE|DICT|INTERRES
     7    4    5 1    
     8    4  130 1    
     9    5    6 1    
    10    5   65 1    
    11    5  131 1    
    12    6    7 1    
    13    6  132 1    
    14    6  133 1    
    15    7    8 1    
    16    8    9 1    
    17    8  134 1    
    18    8  135 1    
    19    9   10 ar   
    20    9   14 ar   
    21   10   11 ar   
    22   10  136 1    
    23   11   12 ar   
    24   11  126 1    
    25   12   13 ar   
    26   12  137 1    
    27   13   14 ar   
    28   13   15 1    
    29   14  138 1    
    30   15   16 1    
    31   15  139 1    
    32   15  140 1    
    33   16   17 1    
    34   17   18 1    
    35   17  141 1    
    36   17  142 1    
    37   18   19 1    
    38   18   67 1    
    39   18  143 1    
    40   19   20 am   BACKBONE|DICT|INTERRES
    41   19  144 1    
    42   20   21 2    
    43   20   22 1    
    44   22   23 1    
    45   22   24 1    
    46   22  145 1    
    47   23  146 1    
    48   23  147 1    
    49   23  148 1    
    50   24   25 am   BACKBONE|DICT|INTERRES
    51   24  149 1    
    52   25   26 2    
    53   25   27 1    
    54   27   28 1    
    55   27   29 1    
    56   27  150 1    
    57   28  151 1    
    58   28  152 1    
    59   28  153 1    
    60   29   30 am   BACKBONE|DICT|INTERRES
    61   29  154 1    
    62   30   31 2    
    63   30   32 1    
    64   32   33 1    
    65   32   34 1    
    66   32  155 1    
    67   33  156 1    
    68   33  157 1    
    69   33  158 1    
    70   34   35 am   BACKBONE|DICT|INTERRES
    71   34  159 1    
    72   35   36 2    
    73   35   37 1    
    74   37   38 1    
    75   37   39 1    
    76   37  160 1    
    77   38  161 1    
    78   38  162 1    
    79   38  163 1    
    80   39   40 am   BACKBONE|DICT|INTERRES
    81   39  164 1    
    82   40   41 2    
    83   40   42 1    
    84   42   43 1    
    85   42   44 1    
    86   42  165 1    
    87   43  166 1    
    88   43  167 1    
    89   43  168 1    
    90   44   45 am   BACKBONE|DICT|INTERRES
    91   44  169 1    
    92   45   46 2    
    93   45   47 1    
    94   47   48 1    
    95   47   49 1    
    96   47  170 1    
    97   48  171 1    
    98   48  172 1    
    99   48  173 1    
   100   49   50 am   BACKBONE|DICT|INTERRES
   101   49  174 1    
   102   50   51 2    
   103   50   52 1    
   104   52   53 1    
   105   52   54 1    
   106   52  175 1    
   107   53  176 1    
   108   53  177 1    
   109   53  178 1    
   110   54   55 am   BACKBONE|DICT|INTERRES
   111   54  179 1    
   112   55   56 2    
   113   55   57 1    
   114   57   58 1    
   115   57   59 1    
   116   57  180 1    
   117   58  181 1    
   118   58  182 1    
   119   58  183 1    
   120   59   60 am   BACKBONE|DICT|INTERRES
   121   59  184 1    
   122   60   61 2    
   123   60   62 1    
   124   62   63 1    
   125   62   64 1    
   126   62  185 1    
   127   63  186 1    
   128   63  187 1    
   129   63  188 1    
   130   64   65 am   BACKBONE|DICT|INTERRES
   131   64  189 1    
   132   65   66 2    
   133   67   68 2    
   134   67   69 am   BACKBONE|DICT|INTERRES
   135   69   70 1    
   136   69  190 1    
   137   70   71 1    
   138   70   72 1    
   139   70  191 1    
   140   71  192 1    
   141   71  193 1    
   142   71  194 1    
   143   72   73 2    
   144   72   74 am   BACKBONE|DICT|INTERRES
   145   74   75 1    
   146   74  195 1    
   147   75   76 1    
   148   75   77 1    
   149   75  196 1    
   150   76  197 1    
   151   76  198 1    
   152   76  199 1    
   153   77   78 2    
   154   77   79 am   BACKBONE|DICT|INTERRES
   155   79   80 1    
   156   79  200 1    
   157   80   81 1    
   158   80   82 1    
   159   80  201 1    
   160   81  202 1    
   161   81  203 1    
   162   81  204 1    
   163   82   83 2    
   164   82   84 am   BACKBONE|DICT|INTERRES
   165   84   85 1    
   166   84  205 1    
   167   85   86 1    
   168   85   87 1    
   169   85  206 1    
   170   86  207 1    
   171   86  208 1    
   172   86  209 1    
   173   87   88 2    
   174   87   89 am   BACKBONE|DICT|INTERRES
   175   89   90 1    
   176   89  210 1    
   177   90   91 1    
   178   90   92 1    
   179   90  211 1    
   180   91  212 1    
   181   91  213 1    
   182   91  214 1    
   183   92   93 2    
   184   92   94 am   BACKBONE|DICT|INTERRES
   185   94   95 1    
   186   94  215 1    
   187   95   96 1    
   188   95   97 1    
   189   95  216 1    
   190   96  217 1    
   191   96  218 1    
   192   96  219 1    
   193   97   98 2    
   194   97   99 am   BACKBONE|DICT|INTERRES
   195   99  100 1    
   196   99  220 1    
   197  100  101 1    
   198  100  102 1    
   199  100  221 1    
   200  101  222 1    
   201  101  223 1    
   202  101  224 1    
   203  102  103 2    
   204  102  104 am   BACKBONE|DICT|INTERRES
   205  104  105 1    
   206  104  225 1    
   207  105  106 1    
   208  105  107 1    
   209  105  226 1    
   210  106  227 1    
   211  106  228 1    
   212  106  229 1    
   213  107  108 2    
   214  107  109 am   BACKBONE|DICT|INTERRES
   215  109  110 1    
   216  109  230 1    
   217  110  111 1    
   218  110  112 1    
   219  110  231 1    
   220  111  232 1    
   221  111  233 1    
   222  111  234 1    
   223  112  113 2    
   224  112  114 am   BACKBONE|DICT|INTERRES
   225  114  115 1    
   226  114  235 1    
   227  115  116 1    
   228  115  117 1    
   229  115  236 1    
   230  116  237 1    
   231  116  238 1    
   232  116  239 1    
   233  117  118 2    
   234  117  119 am   BACKBONE|DICT|INTERRES
   235  119  120 1    
   236  119  240 1    
   237  120  121 1    
   238  120  124 1    
   239  120  241 1    
   240  121  122 am   BACKBONE|DICT|INTERRES
   241  121  123 2    
   242  122  242 1    
   243  122  243 1    
   244  124  125 1    
   245  124  244 1    
   246  124  245 1    
   247  125  126 1    
   248  126  246 1    
   249  126  247 1    
@<TRIPOS>SUBSTRUCTURE
     1 UNK         1 GROUP             0       ****    0 ROOT    
