@<TRIPOS>MOLECULE
3R540
247   249    1
SMALL
USER_CHARGES


@<TRIPOS>ATOM
      1 CA          7.9076  -12.4010  -45.6712 C.3       0 UNK        -0.1800 
      2 C           6.7461  -12.5844  -46.6368 C.2       0 UNK         0.5000 
      3 O           6.6478  -11.8530  -47.6222 O.2       0 UNK        -0.5000 
      4 N           5.8573  -13.5449  -46.3475 N.am      1 UNK        -0.5000 
      5 CA          4.6514  -13.9110  -47.1043 C.3       1 UNK         0.1400 
      6 C6          4.9387  -14.3327  -48.5688 C.3       23 UNK        -0.0398 
      7 S7          3.6275  -15.4034  -49.2445 S.3       23 UNK        -0.2404 
      8 C8          4.4134  -17.0510  -49.1610 C.3       23 UNK        -0.0205 
      9 C9          3.5035  -18.1964  -49.6056 C.ar      23 UNK        -0.0193 
     10 C10         2.5682  -18.0276  -50.6331 C.ar      23 UNK        -0.1150 
     11 C11         1.7416  -19.0790  -51.0354 C.ar      23 UNK        -0.0193 
     12 C12         1.8736  -20.3257  -50.4171 C.ar      23 UNK        -0.1150 
     13 C13         2.8277  -20.5277  -49.4130 C.ar      23 UNK        -0.0193 
     14 C14         3.6341  -19.4566  -49.0101 C.ar      23 UNK        -0.1150 
     15 C15         3.0128  -21.9226  -48.8182 C.3       23 UNK        -0.0205 
     16 S16         3.0243  -21.9987  -46.9933 S.3       23 UNK        -0.2404 
     17 C17         1.4688  -21.1642  -46.5447 C.3       23 UNK        -0.0398 
     18 CA          0.2416  -22.0973  -46.3828 C.3       11 UNK         0.1400 
     19 N          -0.8165  -21.4556  -45.5934 N.am      11 UNK        -0.5000 
     20 C          -1.9486  -22.0458  -45.1836 C.2       10 UNK         0.5000 
     21 O          -2.1730  -23.2474  -45.3178 O.2       10 UNK        -0.5000 
     22 CA         -3.0267  -21.1426  -44.5508 C.3       10 UNK         0.1400 
     23 CB         -2.8164  -21.0292  -43.0342 C.3       10 UNK        -0.1800 
     24 N          -3.0671  -19.8019  -45.1393 N.am      10 UNK        -0.5000 
     25 C          -3.4778  -19.5226  -46.3850 C.2       9 UNK         0.5000 
     26 O          -3.9489  -20.3556  -47.1599 O.2       9 UNK        -0.5000 
     27 CA         -3.2741  -18.0768  -46.8766 C.3       9 UNK         0.1400 
     28 CB         -4.4414  -17.1704  -46.4621 C.3       9 UNK        -0.1800 
     29 N          -2.0035  -17.5064  -46.4297 N.am      9 UNK        -0.5000 
     30 C          -0.8078  -17.9770  -46.8109 C.2       8 UNK         0.5000 
     31 O          -0.6732  -18.8837  -47.6310 O.2       8 UNK        -0.5000 
     32 CA          0.4329  -17.3956  -46.1110 C.3       8 UNK         0.1400 
     33 CB          0.9468  -16.1489  -46.8423 C.3       8 UNK        -0.1800 
     34 N           0.1712  -17.1008  -44.6981 N.am      8 UNK        -0.5000 
     35 C           0.0564  -18.0491  -43.7546 C.2       7 UNK         0.5000 
     36 O           0.2608  -19.2414  -43.9734 O.2       7 UNK        -0.5000 
     37 CA         -0.4273  -17.6248  -42.3542 C.3       7 UNK         0.1400 
     38 CB          0.7435  -17.3588  -41.3983 C.3       7 UNK        -0.1800 
     39 N          -1.3156  -16.4644  -42.3928 N.am      7 UNK        -0.5000 
     40 C          -2.5815  -16.5191  -42.8307 C.2       6 UNK         0.5000 
     41 O          -3.1271  -17.5616  -43.1923 O.2       6 UNK        -0.5000 
     42 CA         -3.3477  -15.1860  -42.9387 C.3       6 UNK         0.1400 
     43 CB         -4.0855  -14.8808  -41.6273 C.3       6 UNK        -0.1800 
     44 N          -2.4884  -14.0517  -43.2851 N.am      6 UNK        -0.5000 
     45 C          -1.7631  -13.9539  -44.4075 C.2       5 UNK         0.5000 
     46 O          -1.7856  -14.8016  -45.2993 O.2       5 UNK        -0.5000 
     47 CA         -0.8210  -12.7412  -44.5414 C.3       5 UNK         0.1400 
     48 CB         -1.2932  -11.5057  -43.7452 C.3       5 UNK        -0.1800 
     49 N           0.5671  -13.0629  -44.1929 N.am      5 UNK        -0.5000 
     50 C           1.0289  -13.5818  -43.0435 C.2       4 UNK         0.5000 
     51 O           0.3110  -13.9864  -42.1284 O.2       4 UNK        -0.5000 
     52 CA          2.5584  -13.6188  -42.8707 C.3       4 UNK         0.1400 
     53 CB          3.1750  -14.8565  -43.5424 C.3       4 UNK        -0.1800 
     54 N           3.1907  -12.4116  -43.4045 N.am      4 UNK        -0.5000 
     55 C           3.1866  -11.2153  -42.7978 C.2       3 UNK         0.5000 
     56 O           2.6865  -11.0117  -41.6912 O.2       3 UNK        -0.5000 
     57 CA          3.8641  -10.0499  -43.5463 C.3       3 UNK         0.1400 
     58 CB          5.3195   -9.8900  -43.0800 C.3       3 UNK        -0.1800 
     59 N           3.8527  -10.2291  -44.9982 N.am      3 UNK        -0.5000 
     60 C           2.7831  -10.0443  -45.7849 C.2       2 UNK         0.5000 
     61 O           1.6991   -9.6213  -45.3840 O.2       2 UNK        -0.5000 
     62 CA          2.9495  -10.4463  -47.2634 C.3       2 UNK         0.1400 
     63 CB          3.5057   -9.2754  -48.0868 C.3       2 UNK        -0.1800 
     64 N           3.8233  -11.6113  -47.4278 N.am      2 UNK        -0.5000 
     65 C           3.5410  -12.8431  -46.9853 C.2       1 UNK         0.5000 
     66 O           2.4826  -13.1258  -46.4232 O.2       1 UNK        -0.5000 
     67 C          -0.3102  -22.5575  -47.7479 C.2       11 UNK         0.5000 
     68 O          -0.1502  -23.7205  -48.1230 O.2       11 UNK        -0.5000 
     69 N          -1.0089  -21.6477  -48.4405 N.am      12 UNK        -0.5000 
     70 CA         -1.6814  -21.8997  -49.7130 C.3       12 UNK         0.1400 
     71 CB         -2.2391  -20.5828  -50.2541 C.3       12 UNK        -0.1800 
     72 C          -2.7845  -22.9703  -49.6255 C.2       12 UNK         0.5000 
     73 O          -2.9301  -23.7434  -50.5701 O.2       12 UNK        -0.5000 
     74 N          -3.4705  -23.0514  -48.4750 N.am      13 UNK        -0.5000 
     75 CA         -4.4654  -24.0807  -48.1463 C.3       13 UNK         0.1400 
     76 CB         -5.1969  -23.6933  -46.8482 C.3       13 UNK        -0.1800 
     77 C          -3.8928  -25.5110  -48.0243 C.2       13 UNK         0.5000 
     78 O          -4.6728  -26.4573  -47.9021 O.2       13 UNK        -0.5000 
     79 N          -2.5614  -25.6519  -48.0422 N.am      14 UNK        -0.5000 
     80 CA         -1.8603  -26.9248  -48.1561 C.3       14 UNK         0.1400 
     81 CB         -0.8719  -27.0650  -46.9869 C.3       14 UNK        -0.1800 
     82 C          -1.1285  -27.0191  -49.5056 C.2       14 UNK         0.5000 
     83 O          -1.2290  -28.0471  -50.1766 O.2       14 UNK        -0.5000 
     84 N          -0.3777  -25.9688  -49.8657 N.am      15 UNK        -0.5000 
     85 CA          0.5665  -25.9903  -50.9820 C.3       15 UNK         0.1400 
     86 CB          1.6672  -24.9539  -50.7145 C.3       15 UNK        -0.1800 
     87 C          -0.0591  -25.7254  -52.3619 C.2       15 UNK         0.5000 
     88 O           0.3891  -26.3248  -53.3405 O.2       15 UNK        -0.5000 
     89 N          -1.0251  -24.8011  -52.4390 N.am      16 UNK        -0.5000 
     90 CA         -1.5410  -24.2749  -53.7051 C.3       16 UNK         0.1400 
     91 CB         -1.7567  -22.7561  -53.5820 C.3       16 UNK        -0.1800 
     92 C          -2.8387  -24.9731  -54.1338 C.2       16 UNK         0.5000 
     93 O          -2.9942  -25.2898  -55.3141 O.2       16 UNK        -0.5000 
     94 N          -3.7438  -25.2010  -53.1782 N.am      17 UNK        -0.5000 
     95 CA         -5.0579  -25.8046  -53.3776 C.3       17 UNK         0.1400 
     96 CB         -6.0122  -24.7779  -54.0237 C.3       17 UNK        -0.1800 
     97 C          -5.5941  -26.2826  -52.0212 C.2       17 UNK         0.5000 
     98 O          -4.9477  -26.0648  -50.9974 O.2       17 UNK        -0.5000 
     99 N          -6.7760  -26.9122  -52.0262 N.am      18 UNK        -0.5000 
    100 CA        -7.5136  -27.2545  -50.8057 C.3       18 UNK         0.1400 
    101 CB        -8.5868  -28.3018  -51.1409 C.3       18 UNK        -0.1800 
    102 C         -8.1519  -26.0158  -50.1427 C.2       18 UNK         0.5000 
    103 O         -8.3155  -25.9914  -48.9224 O.2       18 UNK        -0.5000 
    104 N         -8.4985  -25.0124  -50.9601 N.am      19 UNK        -0.5000 
    105 CA        -8.9747  -23.7034  -50.5230 C.3       19 UNK         0.1400 
    106 CB        -9.7943  -23.0701  -51.6580 C.3       19 UNK        -0.1800 
    107 C         -7.7887  -22.7989  -50.1475 C.2       19 UNK         0.5000 
    108 O         -6.7260  -22.8951  -50.7644 O.2       19 UNK        -0.5000 
    109 N         -8.0022  -21.9237  -49.1593 N.am      20 UNK        -0.5000 
    110 CA        -7.0256  -20.9326  -48.7097 C.3       20 UNK         0.1400 
    111 CB        -7.4591  -20.4042  -47.3321 C.3       20 UNK        -0.1800 
    112 C         -6.8507  -19.7752  -49.7102 C.2       20 UNK         0.5000 
    113 O         -7.7395  -19.5265  -50.5290 O.2       20 UNK        -0.5000 
    114 N         -5.7143  -19.0786  -49.5701 N.am      21 UNK        -0.5000 
    115 CA        -5.1928  -17.9903  -50.4086 C.3       21 UNK         0.1400 
    116 CB        -6.2226  -16.8648  -50.6299 C.3       21 UNK        -0.1800 
    117 C         -4.5976  -18.4983  -51.7357 C.2       21 UNK         0.5000 
    118 O         -5.0291  -19.5178  -52.2759 O.2       21 UNK        -0.5000 
    119 N         -3.5757  -17.7817  -52.2167 N.am      22 UNK        -0.5000 
    120 CA        -2.7439  -18.1666  -53.3713 C.3       22 UNK         0.1400 
    121 C         -3.4306  -18.0243  -54.7626 C.2       22 UNK         0.5000 
    122 N         -4.5971  -17.4007  -54.8723 N.am      22 UNK        -0.7600 
    123 O         -2.8933  -18.4918  -55.7628 O.2       22 UNK        -0.5000 
    124 C124       -1.3762  -17.4329  -53.3627 C.3       23 UNK        -0.0398 
    125 S125       -0.4748  -17.5754  -51.7792 S.3       23 UNK        -0.2404 
    126 C126        0.7461  -18.8702  -52.1704 C.3       23 UNK        -0.0205 
    127 H127        7.8568  -13.1007  -44.8366 H         1 UNK         0.0600 
    128 H128        7.9025  -11.3888  -45.2667 H         1 UNK         0.0600 
    129 H129        8.8536  -12.5574  -46.1895 H         1 UNK         0.0600 
    130 H130        6.0128  -14.0984  -45.5162 H         1 UNK         0.3000 
    131 H131        4.2790  -14.7967  -46.5875 H         1 UNK         0.0600 
    132 H132        5.0569  -13.4646  -49.2191 H         1 UNK         0.0800 
    133 H133        5.8862  -14.8704  -48.6228 H         1 UNK         0.0800 
    134 H134        4.7469  -17.2207  -48.1359 H         1 UNK         0.0800 
    135 H135        5.3056  -17.0542  -49.7883 H         1 UNK         0.0800 
    136 H136        2.4737  -17.0722  -51.1289 H         1 UNK         0.1150 
    137 H137        1.2519  -21.1483  -50.7395 H         1 UNK         0.1150 
    138 H138        4.3756  -19.6112  -48.2388 H         1 UNK         0.1150 
    139 H139        2.2330  -22.5918  -49.1747 H         1 UNK         0.0800 
    140 H140        3.9533  -22.3330  -49.1877 H         1 UNK         0.0800 
    141 H141        1.2749  -20.3592  -47.2495 H         1 UNK         0.0800 
    142 H142        1.6729  -20.6728  -45.5939 H         1 UNK         0.0800 
    143 H143        0.5551  -22.9871  -45.8329 H         1 UNK         0.0600 
    144 H144       -0.6728  -20.4810  -45.3585 H         1 UNK         0.3000 
    145 H145       -3.9968  -21.6130  -44.7240 H         1 UNK         0.0600 
    146 H146       -3.5916  -20.4174  -42.5722 H         1 UNK         0.0600 
    147 H147       -1.8508  -20.5852  -42.7937 H         1 UNK         0.0600 
    148 H148       -2.8516  -22.0118  -42.5620 H         1 UNK         0.0600 
    149 H149       -2.7769  -19.0337  -44.5436 H         1 UNK         0.3000 
    150 H150       -3.2404  -18.1079  -47.9654 H         1 UNK         0.0600 
    151 H151       -5.3819  -17.5311  -46.8800 H         1 UNK         0.0600 
    152 H152       -4.2964  -16.1512  -46.8211 H         1 UNK         0.0600 
    153 H153       -4.5602  -17.1307  -45.3800 H         1 UNK         0.0600 
    154 H154       -2.0388  -16.7052  -45.8078 H         1 UNK         0.3000 
    155 H155        1.2219  -18.1479  -46.1668 H         1 UNK         0.0600 
    156 H156        0.2700  -15.3008  -46.7512 H         1 UNK         0.0600 
    157 H157        1.0716  -16.3515  -47.9068 H         1 UNK         0.0600 
    158 H158        1.9196  -15.8458  -46.4603 H         1 UNK         0.0600 
    159 H159       -0.0875  -16.1505  -44.4743 H         1 UNK         0.3000 
    160 H160       -0.9877  -18.4678  -41.9446 H         1 UNK         0.0600 
    161 H161        1.2728  -16.4424  -41.6466 H         1 UNK         0.0600 
    162 H162        1.4649  -18.1768  -41.4199 H         1 UNK         0.0600 
    163 H163        0.3913  -17.2644  -40.3711 H         1 UNK         0.0600 
    164 H164       -0.9134  -15.5649  -42.1444 H         1 UNK         0.3000 
    165 H165       -4.0896  -15.2951  -43.7320 H         1 UNK         0.0600 
    166 H166       -4.6978  -13.9834  -41.7185 H         1 UNK         0.0600 
    167 H167       -4.7511  -15.7007  -41.3541 H         1 UNK         0.0600 
    168 H168       -3.3906  -14.7317  -40.7999 H         1 UNK         0.0600 
    169 H169       -2.3772  -13.3360  -42.5817 H         1 UNK         0.3000 
    170 H170       -0.8186  -12.4708  -45.5984 H         1 UNK         0.0600 
    171 H171       -2.3240  -11.2480  -43.9922 H         1 UNK         0.0600 
    172 H172       -1.2358  -11.6583  -42.6671 H         1 UNK         0.0600 
    173 H173       -0.6792  -10.6369  -43.9838 H         1 UNK         0.0600 
    174 H174        1.2481  -12.8600  -44.9190 H         1 UNK         0.3000 
    175 H175        2.7733  -13.6767  -41.8013 H         1 UNK         0.0600 
    176 H176        2.9251  -14.9121  -44.5989 H         1 UNK         0.0600 
    177 H177        4.2613  -14.8539  -43.4535 H         1 UNK         0.0600 
    178 H178        2.8206  -15.7776  -43.0841 H         1 UNK         0.0600 
    179 H179        3.5827  -12.4768  -44.3305 H         1 UNK         0.3000 
    180 H180        3.3218   -9.1344  -43.3006 H         1 UNK         0.0600 
    181 H181        5.7952   -9.0335  -43.5582 H         1 UNK         0.0600 
    182 H182        5.9158  -10.7751  -43.3058 H         1 UNK         0.0600 
    183 H183        5.3685   -9.7274  -42.0025 H         1 UNK         0.0600 
    184 H184        4.7071  -10.5561  -45.4237 H         1 UNK         0.3000 
    185 H185        1.9621  -10.7036  -47.6525 H         1 UNK         0.0600 
    186 H186        2.8672   -8.3956  -47.9956 H         1 UNK         0.0600 
    187 H187        4.5066   -8.9915  -47.7591 H         1 UNK         0.0600 
    188 H188        3.5591   -9.5293  -49.1456 H         1 UNK         0.0600 
    189 H189        4.7512  -11.4488  -47.8085 H         1 UNK         0.3000 
    190 H190       -1.0576  -20.6963  -48.0834 H         1 UNK         0.3000 
    191 H191       -0.9266  -22.2607  -50.4142 H         1 UNK         0.0600 
    192 H192       -1.4614  -19.8237  -50.3076 H         1 UNK         0.0600 
    193 H193       -3.0370  -20.1948  -49.6239 H         1 UNK         0.0600 
    194 H194       -2.6428  -20.7162  -51.2571 H         1 UNK         0.0600 
    195 H195       -3.3015  -22.3464  -47.7683 H         1 UNK         0.3000 
    196 H196       -5.1938  -24.0961  -48.9580 H         1 UNK         0.0600 
    197 H197       -5.4654  -22.6397  -46.8208 H         1 UNK         0.0600 
    198 H198       -4.5908  -23.8991  -45.9668 H         1 UNK         0.0600 
    199 H199       -6.1188  -24.2667  -46.7445 H         1 UNK         0.0600 
    200 H200       -1.9916  -24.8180  -48.1036 H         1 UNK         0.3000 
    201 H201       -2.5611  -27.7606  -48.1054 H         1 UNK         0.0600 
    202 H202       -1.3948  -27.0578  -46.0304 H         1 UNK         0.0600 
    203 H203       -0.1410  -26.2556  -46.9716 H         1 UNK         0.0600 
    204 H204       -0.3219  -28.0046  -47.0509 H         1 UNK         0.0600 
    205 H205       -0.3199  -25.1650  -49.2450 H         1 UNK         0.3000 
    206 H206        1.0406  -26.9738  -51.0159 H         1 UNK         0.0600 
    207 H207        1.2636  -23.9413  -50.7262 H         1 UNK         0.0600 
    208 H208        2.4465  -25.0042  -51.4760 H         1 UNK         0.0600 
    209 H209        2.1440  -25.1190  -49.7479 H         1 UNK         0.0600 
    210 H210       -1.4410  -24.4304  -51.5908 H         1 UNK         0.3000 
    211 H211       -0.8046  -24.4296  -54.4969 H         1 UNK         0.0600 
    212 H212       -2.5551  -22.5135  -52.8813 H         1 UNK         0.0600 
    213 H213       -2.0333  -22.3259  -54.5453 H         1 UNK         0.0600 
    214 H214       -0.8499  -22.2512  -53.2487 H         1 UNK         0.0600 
    215 H215       -3.5458  -24.9389  -52.2150 H         1 UNK         0.3000 
    216 H216       -4.9572  -26.6768  -54.0265 H         1 UNK         0.0600 
    217 H217       -6.9972  -25.2069  -54.2082 H         1 UNK         0.0600 
    218 H218       -5.6347  -24.4302  -54.9851 H         1 UNK         0.0600 
    219 H219       -6.1471  -23.9040  -53.3845 H         1 UNK         0.0600 
    220 H220       -7.2400  -27.0932  -52.9047 H         1 UNK         0.3000 
    221 H221       -6.8194  -27.6957  -50.0866 H         1 UNK         0.0600 
    222 H222       -9.3101  -27.9220  -51.8635 H         1 UNK         0.0600 
    223 H223       -8.1398  -29.2057  -51.5549 H         1 UNK         0.0600 
    224 H224       -9.1388  -28.5936  -50.2464 H         1 UNK         0.0600 
    225 H225       -8.2790  -25.1007  -51.9401 H         1 UNK         0.3000 
    226 H226       -9.6224  -23.8277  -49.6523 H         1 UNK         0.0600 
    227 H227      -10.6486  -23.6931  -51.9236 H         1 UNK         0.0600 
    228 H228      -10.1823  -22.0946  -51.3618 H         1 UNK         0.0600 
    229 H229       -9.1923  -22.9236  -52.5559 H         1 UNK         0.0600 
    230 H230       -8.9167  -21.8741  -48.7351 H         1 UNK         0.3000 
    231 H231       -6.0588  -21.4282  -48.6126 H         1 UNK         0.0600 
    232 H232       -6.7268  -19.7038  -46.9296 H         1 UNK         0.0600 
    233 H233       -7.5564  -21.2153  -46.6103 H         1 UNK         0.0600 
    234 H234       -8.4162  -19.8838  -47.3844 H         1 UNK         0.0600 
    235 H235       -5.0725  -19.4141  -48.8630 H         1 UNK         0.3000 
    236 H236       -4.3711  -17.5574  -49.8388 H         1 UNK         0.0600 
    237 H237       -7.0261  -17.1687  -51.3010 H         1 UNK         0.0600 
    238 H238       -6.6702  -16.5470  -49.6881 H         1 UNK         0.0600 
    239 H239       -5.7489  -15.9894  -51.0753 H         1 UNK         0.0600 
    240 H240       -3.2741  -16.9541  -51.7233 H         1 UNK         0.3000 
    241 H241       -2.5306  -19.2321  -53.2647 H         1 UNK         0.0600 
    242 H242       -5.0540  -17.0235  -54.0579 H         1 UNK         0.3800 
    243 H243       -5.0335  -17.3179  -55.7771 H         1 UNK         0.3800 
    244 H244       -1.5228  -16.3700  -53.5619 H         1 UNK         0.0800 
    245 H245       -0.7390  -17.8014  -54.1685 H         1 UNK         0.0800 
    246 H246        1.2972  -18.5913  -53.0696 H         1 UNK         0.0800 
    247 H247        0.2186  -19.7972  -52.4002 H         1 UNK         0.0800 
@<TRIPOS>BOND
     1    1    2 1    
     2    1  127 1    
     3    1  128 1    
     4    1  129 1    
     5    2    3 2    
     6    2    4 am   BACKBONE|DICT|INTERRES
     7    4    5 1    
     8    4  130 1    
     9    5    6 1    
    10    5   65 1    
    11    5  131 1    
    12    6    7 1    
    13    6  132 1    
    14    6  133 1    
    15    7    8 1    
    16    8    9 1    
    17    8  134 1    
    18    8  135 1    
    19    9   10 ar   
    20    9   14 ar   
    21   10   11 ar   
    22   10  136 1    
    23   11   12 ar   
    24   11  126 1    
    25   12   13 ar   
    26   12  137 1    
    27   13   14 ar   
    28   13   15 1    
    29   14  138 1    
    30   15   16 1    
    31   15  139 1    
    32   15  140 1    
    33   16   17 1    
    34   17   18 1    
    35   17  141 1    
    36   17  142 1    
    37   18   19 1    
    38   18   67 1    
    39   18  143 1    
    40   19   20 am   BACKBONE|DICT|INTERRES
    41   19  144 1    
    42   20   21 2    
    43   20   22 1    
    44   22   23 1    
    45   22   24 1    
    46   22  145 1    
    47   23  146 1    
    48   23  147 1    
    49   23  148 1    
    50   24   25 am   BACKBONE|DICT|INTERRES
    51   24  149 1    
    52   25   26 2    
    53   25   27 1    
    54   27   28 1    
    55   27   29 1    
    56   27  150 1    
    57   28  151 1    
    58   28  152 1    
    59   28  153 1    
    60   29   30 am   BACKBONE|DICT|INTERRES
    61   29  154 1    
    62   30   31 2    
    63   30   32 1    
    64   32   33 1    
    65   32   34 1    
    66   32  155 1    
    67   33  156 1    
    68   33  157 1    
    69   33  158 1    
    70   34   35 am   BACKBONE|DICT|INTERRES
    71   34  159 1    
    72   35   36 2    
    73   35   37 1    
    74   37   38 1    
    75   37   39 1    
    76   37  160 1    
    77   38  161 1    
    78   38  162 1    
    79   38  163 1    
    80   39   40 am   BACKBONE|DICT|INTERRES
    81   39  164 1    
    82   40   41 2    
    83   40   42 1    
    84   42   43 1    
    85   42   44 1    
    86   42  165 1    
    87   43  166 1    
    88   43  167 1    
    89   43  168 1    
    90   44   45 am   BACKBONE|DICT|INTERRES
    91   44  169 1    
    92   45   46 2    
    93   45   47 1    
    94   47   48 1    
    95   47   49 1    
    96   47  170 1    
    97   48  171 1    
    98   48  172 1    
    99   48  173 1    
   100   49   50 am   BACKBONE|DICT|INTERRES
   101   49  174 1    
   102   50   51 2    
   103   50   52 1    
   104   52   53 1    
   105   52   54 1    
   106   52  175 1    
   107   53  176 1    
   108   53  177 1    
   109   53  178 1    
   110   54   55 am   BACKBONE|DICT|INTERRES
   111   54  179 1    
   112   55   56 2    
   113   55   57 1    
   114   57   58 1    
   115   57   59 1    
   116   57  180 1    
   117   58  181 1    
   118   58  182 1    
   119   58  183 1    
   120   59   60 am   BACKBONE|DICT|INTERRES
   121   59  184 1    
   122   60   61 2    
   123   60   62 1    
   124   62   63 1    
   125   62   64 1    
   126   62  185 1    
   127   63  186 1    
   128   63  187 1    
   129   63  188 1    
   130   64   65 am   BACKBONE|DICT|INTERRES
   131   64  189 1    
   132   65   66 2    
   133   67   68 2    
   134   67   69 am   BACKBONE|DICT|INTERRES
   135   69   70 1    
   136   69  190 1    
   137   70   71 1    
   138   70   72 1    
   139   70  191 1    
   140   71  192 1    
   141   71  193 1    
   142   71  194 1    
   143   72   73 2    
   144   72   74 am   BACKBONE|DICT|INTERRES
   145   74   75 1    
   146   74  195 1    
   147   75   76 1    
   148   75   77 1    
   149   75  196 1    
   150   76  197 1    
   151   76  198 1    
   152   76  199 1    
   153   77   78 2    
   154   77   79 am   BACKBONE|DICT|INTERRES
   155   79   80 1    
   156   79  200 1    
   157   80   81 1    
   158   80   82 1    
   159   80  201 1    
   160   81  202 1    
   161   81  203 1    
   162   81  204 1    
   163   82   83 2    
   164   82   84 am   BACKBONE|DICT|INTERRES
   165   84   85 1    
   166   84  205 1    
   167   85   86 1    
   168   85   87 1    
   169   85  206 1    
   170   86  207 1    
   171   86  208 1    
   172   86  209 1    
   173   87   88 2    
   174   87   89 am   BACKBONE|DICT|INTERRES
   175   89   90 1    
   176   89  210 1    
   177   90   91 1    
   178   90   92 1    
   179   90  211 1    
   180   91  212 1    
   181   91  213 1    
   182   91  214 1    
   183   92   93 2    
   184   92   94 am   BACKBONE|DICT|INTERRES
   185   94   95 1    
   186   94  215 1    
   187   95   96 1    
   188   95   97 1    
   189   95  216 1    
   190   96  217 1    
   191   96  218 1    
   192   96  219 1    
   193   97   98 2    
   194   97   99 am   BACKBONE|DICT|INTERRES
   195   99  100 1    
   196   99  220 1    
   197  100  101 1    
   198  100  102 1    
   199  100  221 1    
   200  101  222 1    
   201  101  223 1    
   202  101  224 1    
   203  102  103 2    
   204  102  104 am   BACKBONE|DICT|INTERRES
   205  104  105 1    
   206  104  225 1    
   207  105  106 1    
   208  105  107 1    
   209  105  226 1    
   210  106  227 1    
   211  106  228 1    
   212  106  229 1    
   213  107  108 2    
   214  107  109 am   BACKBONE|DICT|INTERRES
   215  109  110 1    
   216  109  230 1    
   217  110  111 1    
   218  110  112 1    
   219  110  231 1    
   220  111  232 1    
   221  111  233 1    
   222  111  234 1    
   223  112  113 2    
   224  112  114 am   BACKBONE|DICT|INTERRES
   225  114  115 1    
   226  114  235 1    
   227  115  116 1    
   228  115  117 1    
   229  115  236 1    
   230  116  237 1    
   231  116  238 1    
   232  116  239 1    
   233  117  118 2    
   234  117  119 am   BACKBONE|DICT|INTERRES
   235  119  120 1    
   236  119  240 1    
   237  120  121 1    
   238  120  124 1    
   239  120  241 1    
   240  121  122 am   BACKBONE|DICT|INTERRES
   241  121  123 2    
   242  122  242 1    
   243  122  243 1    
   244  124  125 1    
   245  124  244 1    
   246  124  245 1    
   247  125  126 1    
   248  126  246 1    
   249  126  247 1    
@<TRIPOS>SUBSTRUCTURE
     1 UNK         1 GROUP             0       ****    0 ROOT    
