@<TRIPOS>MOLECULE
3R540
247   249    1
SMALL
USER_CHARGES


@<TRIPOS>ATOM
      1 CA          5.5294  -13.0002  -44.9173 C.3       0 UNK        -0.1800 
      2 C           4.3949  -13.7761  -45.5699 C.2       0 UNK         0.5000 
      3 O           3.6502  -14.4713  -44.8788 O.2       0 UNK        -0.5000 
      4 N           4.2479  -13.6512  -46.8952 N.am      1 UNK        -0.5000 
      5 CA          3.2294  -14.3154  -47.7184 C.3       1 UNK         0.1400 
      6 C6          3.7184  -14.4634  -49.1842 C.3       23 UNK        -0.0398 
      7 S7          2.8113  -15.7625  -50.0871 S.3       23 UNK        -0.2404 
      8 C8          4.0428  -17.1070  -50.1600 C.3       23 UNK        -0.0205 
      9 C9          3.4484  -18.4943  -50.4040 C.ar      23 UNK        -0.0193 
     10 C10         2.2372  -18.6847  -51.0839 C.ar      23 UNK        -0.1150 
     11 C11         1.6998  -19.9640  -51.2450 C.ar      23 UNK        -0.0193 
     12 C12         2.4015  -21.0682  -50.7580 C.ar      23 UNK        -0.1150 
     13 C13         3.6257  -20.9003  -50.1055 C.ar      23 UNK        -0.0193 
     14 C14         4.1403  -19.6132  -49.9302 C.ar      23 UNK        -0.1150 
     15 C15         4.3827  -22.1092  -49.5737 C.3       23 UNK        -0.0205 
     16 S16         4.2972  -22.2228  -47.7582 S.3       23 UNK        -0.2404 
     17 C17         2.4937  -22.2012  -47.4882 C.3       23 UNK        -0.0398 
     18 CA          2.0417  -23.0783  -46.3030 C.3       11 UNK         0.1400 
     19 N           2.6708  -22.6648  -45.0475 N.am      11 UNK        -0.5000 
     20 C           2.9097  -23.4661  -44.0032 C.2       10 UNK         0.5000 
     21 O           2.5906  -24.6547  -43.9656 O.2       10 UNK        -0.5000 
     22 CA          3.6333  -22.8311  -42.7995 C.3       10 UNK         0.1400 
     23 CB          5.1530  -23.0105  -42.9355 C.3       10 UNK        -0.1800 
     24 N           3.3340  -21.4054  -42.6473 N.am      10 UNK        -0.5000 
     25 C           2.1748  -20.9295  -42.1743 C.2       9 UNK         0.5000 
     26 O           1.2602  -21.6438  -41.7633 O.2       9 UNK        -0.5000 
     27 CA          1.9923  -19.3990  -42.1890 C.3       9 UNK         0.1400 
     28 CB          2.5029  -18.7827  -40.8780 C.3       9 UNK        -0.1800 
     29 N           2.6206  -18.7084  -43.3235 N.am      9 UNK        -0.5000 
     30 C           2.3405  -18.9444  -44.6114 C.2       8 UNK         0.5000 
     31 O           1.6377  -19.8825  -44.9915 O.2       8 UNK        -0.5000 
     32 CA          2.9660  -17.9962  -45.6512 C.3       8 UNK         0.1400 
     33 CB          4.3948  -18.4362  -46.0006 C.3       8 UNK        -0.1800 
     34 N           2.1673  -17.9828  -46.8758 N.am      8 UNK        -0.5000 
     35 C           0.9736  -17.3893  -46.9859 C.2       7 UNK         0.5000 
     36 O           0.5081  -16.6135  -46.1462 O.2       7 UNK        -0.5000 
     37 CA          0.1667  -17.7424  -48.2398 C.3       7 UNK         0.1400 
     38 CB         -0.3231  -19.2001  -48.1942 C.3       7 UNK        -0.1800 
     39 N          -0.9630  -16.8327  -48.3599 N.am      7 UNK        -0.5000 
     40 C          -1.5908  -16.5184  -49.4957 C.2       6 UNK         0.5000 
     41 O          -1.3239  -17.0324  -50.5838 O.2       6 UNK        -0.5000 
     42 CA         -2.7050  -15.4561  -49.3873 C.3       6 UNK         0.1400 
     43 CB         -3.4110  -15.2038  -50.7312 C.3       6 UNK        -0.1800 
     44 N          -3.7111  -15.8062  -48.3792 N.am      6 UNK        -0.5000 
     45 C          -3.5853  -15.5876  -47.0646 C.2       5 UNK         0.5000 
     46 O          -2.5624  -15.1126  -46.5632 O.2       5 UNK        -0.5000 
     47 CA         -4.7824  -15.9737  -46.1688 C.3       5 UNK         0.1400 
     48 CB         -4.9411  -17.4961  -46.0558 C.3       5 UNK        -0.1800 
     49 N          -4.5923  -15.4559  -44.8190 N.am      5 UNK        -0.5000 
     50 C          -4.8617  -14.2148  -44.4077 C.2       4 UNK         0.5000 
     51 O          -5.4846  -13.3892  -45.0766 O.2       4 UNK        -0.5000 
     52 CA         -4.2999  -13.8177  -43.0282 C.3       4 UNK         0.1400 
     53 CB         -5.0865  -14.4735  -41.8767 C.3       4 UNK        -0.1800 
     54 N          -2.8534  -14.0525  -42.9134 N.am      4 UNK        -0.5000 
     55 C          -2.1722  -15.2077  -42.8975 C.2       3 UNK         0.5000 
     56 O          -2.7050  -16.3194  -42.8790 O.2       3 UNK        -0.5000 
     57 CA         -0.6364  -15.0814  -42.9811 C.3       3 UNK         0.1400 
     58 CB          0.0820  -16.4260  -42.7856 C.3       3 UNK        -0.1800 
     59 N          -0.2243  -14.5074  -44.2646 N.am      3 UNK        -0.5000 
     60 C          -0.3058  -13.2086  -44.5833 C.2       2 UNK         0.5000 
     61 O          -0.6861  -12.3471  -43.7865 O.2       2 UNK        -0.5000 
     62 CA          0.1127  -12.8087  -46.0075 C.3       2 UNK         0.1400 
     63 CB          0.2297  -11.2794  -46.1877 C.3       2 UNK        -0.1800 
     64 N           1.3708  -13.4610  -46.3556 N.am      2 UNK        -0.5000 
     65 C           1.8478  -13.6219  -47.5933 C.2       1 UNK         0.5000 
     66 O           1.2558  -13.2210  -48.5971 O.2       1 UNK        -0.5000 
     67 C           0.5057  -23.0513  -46.2010 C.2       11 UNK         0.5000 
     68 O          -0.1557  -23.8419  -46.8732 O.2       11 UNK        -0.5000 
     69 N          -0.0366  -22.1580  -45.3591 N.am      12 UNK        -0.5000 
     70 CA         -1.4673  -21.9254  -45.1346 C.3       12 UNK         0.1400 
     71 CB         -1.6350  -20.7936  -44.1097 C.3       12 UNK        -0.1800 
     72 C          -2.2696  -23.1744  -44.7159 C.2       12 UNK         0.5000 
     73 O          -3.4740  -23.2313  -44.9651 O.2       12 UNK        -0.5000 
     74 N          -1.5794  -24.1785  -44.1567 N.am      13 UNK        -0.5000 
     75 CA         -2.0910  -25.5173  -43.8559 C.3       13 UNK         0.1400 
     76 CB         -0.9863  -26.3138  -43.1449 C.3       13 UNK        -0.1800 
     77 C          -2.6100  -26.2950  -45.0871 C.2       13 UNK         0.5000 
     78 O          -3.4093  -27.2161  -44.9160 O.2       13 UNK        -0.5000 
     79 N          -2.1813  -25.9079  -46.2999 N.am      14 UNK        -0.5000 
     80 CA         -2.6914  -26.4268  -47.5731 C.3       14 UNK         0.1400 
     81 CB         -1.7571  -25.9812  -48.7090 C.3       14 UNK        -0.1800 
     82 C          -4.1400  -25.9911  -47.8799 C.2       14 UNK         0.5000 
     83 O          -4.7906  -26.6260  -48.7111 O.2       14 UNK        -0.5000 
     84 N          -4.6132  -24.9278  -47.2109 N.am      15 UNK        -0.5000 
     85 CA         -5.9448  -24.3233  -47.2765 C.3       15 UNK         0.1400 
     86 CB         -7.0363  -25.3024  -46.7987 C.3       15 UNK        -0.1800 
     87 C          -6.2700  -23.7044  -48.6466 C.2       15 UNK         0.5000 
     88 O          -6.2505  -22.4811  -48.7713 O.2       15 UNK        -0.5000 
     89 N          -6.5556  -24.5445  -49.6498 N.am      16 UNK        -0.5000 
     90 CA         -7.0238  -24.1563  -50.9841 C.3       16 UNK         0.1400 
     91 CB         -7.3080  -25.4202  -51.8085 C.3       16 UNK        -0.1800 
     92 C          -6.0609  -23.2219  -51.7385 C.2       16 UNK         0.5000 
     93 O          -6.5098  -22.2703  -52.3775 O.2       16 UNK        -0.5000 
     94 N          -4.7532  -23.4808  -51.6072 N.am      17 UNK        -0.5000 
     95 CA         -3.6824  -22.6728  -52.1954 C.3       17 UNK         0.1400 
     96 CB         -2.3491  -23.4160  -52.0219 C.3       17 UNK        -0.1800 
     97 C          -3.5882  -21.2562  -51.5958 C.2       17 UNK         0.5000 
     98 O          -3.1811  -20.3289  -52.2932 O.2       17 UNK        -0.5000 
     99 N          -3.9708  -21.1206  -50.3202 N.am      18 UNK        -0.5000 
    100 CA        -3.9661  -19.8624  -49.5796 C.3       18 UNK         0.1400 
    101 CB        -3.6453  -20.1739  -48.1121 C.3       18 UNK        -0.1800 
    102 C         -5.3063  -19.1171  -49.7089 C.2       18 UNK         0.5000 
    103 O         -5.3209  -17.8879  -49.6518 O.2       18 UNK        -0.5000 
    104 N         -6.4066  -19.8646  -49.8770 N.am      19 UNK        -0.5000 
    105 CA        -7.7436  -19.3397  -50.1584 C.3       19 UNK         0.1400 
    106 CB        -8.7775  -20.4624  -49.9856 C.3       19 UNK        -0.1800 
    107 C         -7.8375  -18.7208  -51.5657 C.2       19 UNK         0.5000 
    108 O         -8.5330  -17.7198  -51.7440 O.2       19 UNK        -0.5000 
    109 N         -7.1144  -19.3158  -52.5242 N.am      20 UNK        -0.5000 
    110 CA        -6.8145  -18.7468  -53.8344 C.3       20 UNK         0.1400 
    111 CB        -6.6304  -19.9004  -54.8415 C.3       20 UNK        -0.1800 
    112 C         -5.5876  -17.8172  -53.7043 C.2       20 UNK         0.5000 
    113 O         -5.6525  -16.8339  -52.9665 O.2       20 UNK        -0.5000 
    114 N         -4.4953  -18.1397  -54.4025 N.am      21 UNK        -0.5000 
    115 CA        -3.1791  -17.5172  -54.3052 C.3       21 UNK         0.1400 
    116 CB        -3.2025  -16.0750  -54.8519 C.3       21 UNK        -0.1800 
    117 C         -2.1922  -18.3783  -55.1069 C.2       21 UNK         0.5000 
    118 O         -2.6149  -19.1046  -56.0122 O.2       21 UNK        -0.5000 
    119 N         -0.9001  -18.2531  -54.7886 N.am      22 UNK        -0.5000 
    120 CA         0.2073  -18.9076  -55.5113 C.3       22 UNK         0.1400 
    121 C          0.9066  -17.9777  -56.5472 C.2       22 UNK         0.5000 
    122 N          0.4852  -16.7306  -56.7222 N.am      22 UNK        -0.7600 
    123 O          1.8416  -18.3992  -57.2228 O.2       22 UNK        -0.5000 
    124 C124        1.2338  -19.5394  -54.5370 C.3       23 UNK        -0.0398 
    125 S125        0.5103  -20.9061  -53.5678 S.3       23 UNK        -0.2404 
    126 C126        0.3489  -20.1551  -51.9191 C.3       23 UNK        -0.0205 
    127 H127        5.1311  -12.3057  -44.1777 H         1 UNK         0.0600 
    128 H128        6.1030  -12.4286  -45.6473 H         1 UNK         0.0600 
    129 H129        6.2092  -13.6859  -44.4115 H         1 UNK         0.0600 
    130 H130        4.8693  -13.0306  -47.3945 H         1 UNK         0.3000 
    131 H131        3.1078  -15.3225  -47.3166 H         1 UNK         0.0600 
    132 H132        3.6299  -13.5216  -49.7285 H         1 UNK         0.0800 
    133 H133        4.7805  -14.7116  -49.2034 H         1 UNK         0.0800 
    134 H134        4.7652  -16.8863  -50.9466 H         1 UNK         0.0800 
    135 H135        4.5954  -17.1185  -49.2192 H         1 UNK         0.0800 
    136 H136        1.6888  -17.8373  -51.4693 H         1 UNK         0.1150 
    137 H137        1.9890  -22.0590  -50.8876 H         1 UNK         0.1150 
    138 H138        5.0806  -19.4857  -49.4117 H         1 UNK         0.1150 
    139 H139        3.9945  -23.0312  -50.0094 H         1 UNK         0.0800 
    140 H140        5.4285  -22.0444  -49.8771 H         1 UNK         0.0800 
    141 H141        1.9963  -22.5385  -48.3989 H         1 UNK         0.0800 
    142 H142        2.1975  -21.1634  -47.3361 H         1 UNK         0.0800 
    143 H143        2.3337  -24.1086  -46.5186 H         1 UNK         0.0600 
    144 H144        2.9042  -21.6846  -44.9726 H         1 UNK         0.3000 
    145 H145        3.3073  -23.3564  -41.8992 H         1 UNK         0.0600 
    146 H146        5.4147  -24.0656  -43.0256 H         1 UNK         0.0600 
    147 H147        5.6762  -22.6205  -42.0622 H         1 UNK         0.0600 
    148 H148        5.5421  -22.4997  -43.8174 H         1 UNK         0.0600 
    149 H149        4.0363  -20.7500  -42.9573 H         1 UNK         0.3000 
    150 H150        0.9184  -19.2126  -42.2539 H         1 UNK         0.0600 
    151 H151        3.5822  -18.8995  -40.7725 H         1 UNK         0.0600 
    152 H152        2.0351  -19.2571  -40.0142 H         1 UNK         0.0600 
    153 H153        2.2730  -17.7185  -40.8248 H         1 UNK         0.0600 
    154 H154        3.2314  -17.9383  -43.0921 H         1 UNK         0.3000 
    155 H155        2.9935  -16.9891  -45.2330 H         1 UNK         0.0600 
    156 H156        4.4152  -19.4387  -46.4294 H         1 UNK         0.0600 
    157 H157        5.0316  -18.4437  -45.1153 H         1 UNK         0.0600 
    158 H158        4.8499  -17.7550  -46.7196 H         1 UNK         0.0600 
    159 H159        2.4621  -18.6166  -47.6032 H         1 UNK         0.3000 
    160 H160        0.8137  -17.6043  -49.1029 H         1 UNK         0.0600 
    161 H161       -0.9027  -19.3982  -47.2922 H         1 UNK         0.0600 
    162 H162        0.5145  -19.8950  -48.2045 H         1 UNK         0.0600 
    163 H163       -0.9381  -19.4401  -49.0604 H         1 UNK         0.0600 
    164 H164       -1.2099  -16.3391  -47.5057 H         1 UNK         0.3000 
    165 H165       -2.2225  -14.5209  -49.0948 H         1 UNK         0.0600 
    166 H166       -4.1802  -14.4371  -50.6387 H         1 UNK         0.0600 
    167 H167       -2.7040  -14.8652  -51.4895 H         1 UNK         0.0600 
    168 H168       -3.8847  -16.1100  -51.1084 H         1 UNK         0.0600 
    169 H169       -4.5214  -16.3083  -48.7309 H         1 UNK         0.3000 
    170 H170       -5.6928  -15.5502  -46.5978 H         1 UNK         0.0600 
    171 H171       -5.7318  -17.7584  -45.3525 H         1 UNK         0.0600 
    172 H172       -4.0212  -17.9722  -45.7135 H         1 UNK         0.0600 
    173 H173       -5.2161  -17.9325  -47.0131 H         1 UNK         0.0600 
    174 H174       -4.0045  -16.0146  -44.2061 H         1 UNK         0.3000 
    175 H175       -4.4293  -12.7382  -42.9351 H         1 UNK         0.0600 
    176 H176       -6.1399  -14.1947  -41.9217 H         1 UNK         0.0600 
    177 H177       -5.0392  -15.5620  -41.9109 H         1 UNK         0.0600 
    178 H178       -4.7061  -14.1518  -40.9073 H         1 UNK         0.0600 
    179 H179       -2.2838  -13.2162  -43.0060 H         1 UNK         0.3000 
    180 H180       -0.3162  -14.4180  -42.1750 H         1 UNK         0.0600 
    181 H181       -0.1906  -17.1468  -43.5576 H         1 UNK         0.0600 
    182 H182       -0.1684  -16.8665  -41.8200 H         1 UNK         0.0600 
    183 H183        1.1634  -16.2956  -42.8151 H         1 UNK         0.0600 
    184 H184        0.0395  -15.1762  -44.9857 H         1 UNK         0.3000 
    185 H185       -0.6671  -13.1771  -46.6766 H         1 UNK         0.0600 
    186 H186       -0.7079  -10.7817  -45.9373 H         1 UNK         0.0600 
    187 H187        1.0076  -10.8611  -45.5481 H         1 UNK         0.0600 
    188 H188        0.4642  -11.0117  -47.2177 H         1 UNK         0.0600 
    189 H189        1.9197  -13.8265  -45.5816 H         1 UNK         0.3000 
    190 H190        0.5920  -21.4913  -44.9204 H         1 UNK         0.3000 
    191 H191       -1.8851  -21.5867  -46.0819 H         1 UNK         0.0600 
    192 H192       -1.1628  -19.8737  -44.4562 H         1 UNK         0.0600 
    193 H193       -2.6892  -20.5711  -43.9391 H         1 UNK         0.0600 
    194 H194       -1.1925  -21.0557  -43.1481 H         1 UNK         0.0600 
    195 H195       -0.5915  -24.0342  -44.0052 H         1 UNK         0.3000 
    196 H196       -2.9310  -25.4022  -43.1681 H         1 UNK         0.0600 
    197 H197       -1.3325  -27.3132  -42.8780 H         1 UNK         0.0600 
    198 H198       -0.6756  -25.8220  -42.2229 H         1 UNK         0.0600 
    199 H199       -0.1046  -26.4285  -43.7772 H         1 UNK         0.0600 
    200 H200       -1.4996  -25.1568  -46.3662 H         1 UNK         0.3000 
    201 H201       -2.6785  -27.5176  -47.5265 H         1 UNK         0.0600 
    202 H202       -2.0719  -26.4028  -49.6645 H         1 UNK         0.0600 
    203 H203       -0.7330  -26.3095  -48.5305 H         1 UNK         0.0600 
    204 H204       -1.7467  -24.8961  -48.8173 H         1 UNK         0.0600 
    205 H205       -3.9898  -24.4776  -46.5496 H         1 UNK         0.3000 
    206 H206       -5.9255  -23.4968  -46.5640 H         1 UNK         0.0600 
    207 H207       -6.8421  -25.6332  -45.7784 H         1 UNK         0.0600 
    208 H208       -8.0162  -24.8234  -46.8031 H         1 UNK         0.0600 
    209 H209       -7.1057  -26.1908  -47.4265 H         1 UNK         0.0600 
    210 H210       -6.4350  -25.5354  -49.4745 H         1 UNK         0.3000 
    211 H211       -7.9650  -23.6191  -50.8544 H         1 UNK         0.0600 
    212 H212       -6.4122  -26.0301  -51.9322 H         1 UNK         0.0600 
    213 H213       -7.6727  -25.1644  -52.8043 H         1 UNK         0.0600 
    214 H214       -8.0706  -26.0374  -51.3331 H         1 UNK         0.0600 
    215 H215       -4.4763  -24.2807  -51.0571 H         1 UNK         0.3000 
    216 H216       -3.8832  -22.5678  -53.2637 H         1 UNK         0.0600 
    217 H217       -1.5334  -22.8664  -52.4919 H         1 UNK         0.0600 
    218 H218       -2.3820  -24.4025  -52.4848 H         1 UNK         0.0600 
    219 H219       -2.0931  -23.5456  -50.9697 H         1 UNK         0.0600 
    220 H220       -4.3528  -21.9231  -49.8387 H         1 UNK         0.3000 
    221 H221       -3.1799  -19.2145  -49.9727 H         1 UNK         0.0600 
    222 H222       -4.4930  -20.6192  -47.5893 H         1 UNK         0.0600 
    223 H223       -2.8087  -20.8671  -48.0383 H         1 UNK         0.0600 
    224 H224       -3.3584  -19.2674  -47.5822 H         1 UNK         0.0600 
    225 H225       -6.3244  -20.8725  -49.7873 H         1 UNK         0.3000 
    226 H226       -7.9616  -18.5562  -49.4298 H         1 UNK         0.0600 
    227 H227       -9.7899  -20.0861  -50.1369 H         1 UNK         0.0600 
    228 H228       -8.6170  -21.2691  -50.7008 H         1 UNK         0.0600 
    229 H229       -8.7340  -20.8891  -48.9832 H         1 UNK         0.0600 
    230 H230       -6.6248  -20.1716  -52.2893 H         1 UNK         0.3000 
    231 H231       -7.6541  -18.1354  -54.1710 H         1 UNK         0.0600 
    232 H232       -5.8096  -20.5620  -54.5602 H         1 UNK         0.0600 
    233 H233       -6.4323  -19.5226  -55.8454 H         1 UNK         0.0600 
    234 H234       -7.5327  -20.5093  -54.9017 H         1 UNK         0.0600 
    235 H235       -4.5036  -18.9601  -54.9962 H         1 UNK         0.3000 
    236 H236       -2.8717  -17.5140  -53.2568 H         1 UNK         0.0600 
    237 H237       -3.8520  -15.4292  -54.2617 H         1 UNK         0.0600 
    238 H238       -2.2081  -15.6286  -54.8245 H         1 UNK         0.0600 
    239 H239       -3.5495  -16.0448  -55.8854 H         1 UNK         0.0600 
    240 H240       -0.6347  -17.6375  -54.0336 H         1 UNK         0.3000 
    241 H241       -0.1956  -19.7256  -56.1114 H         1 UNK         0.0600 
    242 H242        0.9441  -16.1447  -57.4024 H         1 UNK         0.3800 
    243 H243       -0.2928  -16.3698  -56.1954 H         1 UNK         0.3800 
    244 H244        1.6534  -18.7801  -53.8769 H         1 UNK         0.0800 
    245 H245        2.0788  -19.9599  -55.0848 H         1 UNK         0.0800 
    246 H246       -0.2710  -20.8028  -51.2977 H         1 UNK         0.0800 
    247 H247       -0.1911  -19.2101  -51.9973 H         1 UNK         0.0800 
@<TRIPOS>BOND
     1    1    2 1    
     2    1  127 1    
     3    1  128 1    
     4    1  129 1    
     5    2    3 2    
     6    2    4 am   BACKBONE|DICT|INTERRES
     7    4    5 1    
     8    4  130 1    
     9    5    6 1    
    10    5   65 1    
    11    5  131 1    
    12    6    7 1    
    13    6  132 1    
    14    6  133 1    
    15    7    8 1    
    16    8    9 1    
    17    8  134 1    
    18    8  135 1    
    19    9   10 ar   
    20    9   14 ar   
    21   10   11 ar   
    22   10  136 1    
    23   11   12 ar   
    24   11  126 1    
    25   12   13 ar   
    26   12  137 1    
    27   13   14 ar   
    28   13   15 1    
    29   14  138 1    
    30   15   16 1    
    31   15  139 1    
    32   15  140 1    
    33   16   17 1    
    34   17   18 1    
    35   17  141 1    
    36   17  142 1    
    37   18   19 1    
    38   18   67 1    
    39   18  143 1    
    40   19   20 am   BACKBONE|DICT|INTERRES
    41   19  144 1    
    42   20   21 2    
    43   20   22 1    
    44   22   23 1    
    45   22   24 1    
    46   22  145 1    
    47   23  146 1    
    48   23  147 1    
    49   23  148 1    
    50   24   25 am   BACKBONE|DICT|INTERRES
    51   24  149 1    
    52   25   26 2    
    53   25   27 1    
    54   27   28 1    
    55   27   29 1    
    56   27  150 1    
    57   28  151 1    
    58   28  152 1    
    59   28  153 1    
    60   29   30 am   BACKBONE|DICT|INTERRES
    61   29  154 1    
    62   30   31 2    
    63   30   32 1    
    64   32   33 1    
    65   32   34 1    
    66   32  155 1    
    67   33  156 1    
    68   33  157 1    
    69   33  158 1    
    70   34   35 am   BACKBONE|DICT|INTERRES
    71   34  159 1    
    72   35   36 2    
    73   35   37 1    
    74   37   38 1    
    75   37   39 1    
    76   37  160 1    
    77   38  161 1    
    78   38  162 1    
    79   38  163 1    
    80   39   40 am   BACKBONE|DICT|INTERRES
    81   39  164 1    
    82   40   41 2    
    83   40   42 1    
    84   42   43 1    
    85   42   44 1    
    86   42  165 1    
    87   43  166 1    
    88   43  167 1    
    89   43  168 1    
    90   44   45 am   BACKBONE|DICT|INTERRES
    91   44  169 1    
    92   45   46 2    
    93   45   47 1    
    94   47   48 1    
    95   47   49 1    
    96   47  170 1    
    97   48  171 1    
    98   48  172 1    
    99   48  173 1    
   100   49   50 am   BACKBONE|DICT|INTERRES
   101   49  174 1    
   102   50   51 2    
   103   50   52 1    
   104   52   53 1    
   105   52   54 1    
   106   52  175 1    
   107   53  176 1    
   108   53  177 1    
   109   53  178 1    
   110   54   55 am   BACKBONE|DICT|INTERRES
   111   54  179 1    
   112   55   56 2    
   113   55   57 1    
   114   57   58 1    
   115   57   59 1    
   116   57  180 1    
   117   58  181 1    
   118   58  182 1    
   119   58  183 1    
   120   59   60 am   BACKBONE|DICT|INTERRES
   121   59  184 1    
   122   60   61 2    
   123   60   62 1    
   124   62   63 1    
   125   62   64 1    
   126   62  185 1    
   127   63  186 1    
   128   63  187 1    
   129   63  188 1    
   130   64   65 am   BACKBONE|DICT|INTERRES
   131   64  189 1    
   132   65   66 2    
   133   67   68 2    
   134   67   69 am   BACKBONE|DICT|INTERRES
   135   69   70 1    
   136   69  190 1    
   137   70   71 1    
   138   70   72 1    
   139   70  191 1    
   140   71  192 1    
   141   71  193 1    
   142   71  194 1    
   143   72   73 2    
   144   72   74 am   BACKBONE|DICT|INTERRES
   145   74   75 1    
   146   74  195 1    
   147   75   76 1    
   148   75   77 1    
   149   75  196 1    
   150   76  197 1    
   151   76  198 1    
   152   76  199 1    
   153   77   78 2    
   154   77   79 am   BACKBONE|DICT|INTERRES
   155   79   80 1    
   156   79  200 1    
   157   80   81 1    
   158   80   82 1    
   159   80  201 1    
   160   81  202 1    
   161   81  203 1    
   162   81  204 1    
   163   82   83 2    
   164   82   84 am   BACKBONE|DICT|INTERRES
   165   84   85 1    
   166   84  205 1    
   167   85   86 1    
   168   85   87 1    
   169   85  206 1    
   170   86  207 1    
   171   86  208 1    
   172   86  209 1    
   173   87   88 2    
   174   87   89 am   BACKBONE|DICT|INTERRES
   175   89   90 1    
   176   89  210 1    
   177   90   91 1    
   178   90   92 1    
   179   90  211 1    
   180   91  212 1    
   181   91  213 1    
   182   91  214 1    
   183   92   93 2    
   184   92   94 am   BACKBONE|DICT|INTERRES
   185   94   95 1    
   186   94  215 1    
   187   95   96 1    
   188   95   97 1    
   189   95  216 1    
   190   96  217 1    
   191   96  218 1    
   192   96  219 1    
   193   97   98 2    
   194   97   99 am   BACKBONE|DICT|INTERRES
   195   99  100 1    
   196   99  220 1    
   197  100  101 1    
   198  100  102 1    
   199  100  221 1    
   200  101  222 1    
   201  101  223 1    
   202  101  224 1    
   203  102  103 2    
   204  102  104 am   BACKBONE|DICT|INTERRES
   205  104  105 1    
   206  104  225 1    
   207  105  106 1    
   208  105  107 1    
   209  105  226 1    
   210  106  227 1    
   211  106  228 1    
   212  106  229 1    
   213  107  108 2    
   214  107  109 am   BACKBONE|DICT|INTERRES
   215  109  110 1    
   216  109  230 1    
   217  110  111 1    
   218  110  112 1    
   219  110  231 1    
   220  111  232 1    
   221  111  233 1    
   222  111  234 1    
   223  112  113 2    
   224  112  114 am   BACKBONE|DICT|INTERRES
   225  114  115 1    
   226  114  235 1    
   227  115  116 1    
   228  115  117 1    
   229  115  236 1    
   230  116  237 1    
   231  116  238 1    
   232  116  239 1    
   233  117  118 2    
   234  117  119 am   BACKBONE|DICT|INTERRES
   235  119  120 1    
   236  119  240 1    
   237  120  121 1    
   238  120  124 1    
   239  120  241 1    
   240  121  122 am   BACKBONE|DICT|INTERRES
   241  121  123 2    
   242  122  242 1    
   243  122  243 1    
   244  124  125 1    
   245  124  244 1    
   246  124  245 1    
   247  125  126 1    
   248  126  246 1    
   249  126  247 1    
@<TRIPOS>SUBSTRUCTURE
     1 UNK         1 GROUP             0       ****    0 ROOT    
