@<TRIPOS>MOLECULE
3R540
247   249    1
SMALL
USER_CHARGES


@<TRIPOS>ATOM
      1 CA          3.8919  -11.5790  -45.9926 C.3       0 UNK        -0.1800 
      2 C           2.4374  -12.0118  -46.1004 C.2       0 UNK         0.5000 
      3 O           1.6533  -11.7604  -45.1869 O.2       0 UNK        -0.5000 
      4 N           2.0671  -12.6467  -47.2207 N.am      1 UNK        -0.5000 
      5 CA          0.7315  -13.2003  -47.4989 C.3       1 UNK         0.1400 
      6 C6          0.7214  -14.0513  -48.7915 C.3       23 UNK        -0.0398 
      7 S7          1.9221  -15.4283  -48.7748 S.3       23 UNK        -0.2404 
      8 C8          1.0404  -16.6033  -49.8462 C.3       23 UNK        -0.0205 
      9 C9          1.9488  -17.6974  -50.3834 C.ar      23 UNK        -0.0193 
     10 C10         2.4854  -17.5900  -51.6702 C.ar      23 UNK        -0.1150 
     11 C11         3.2407  -18.6317  -52.2192 C.ar      23 UNK        -0.0193 
     12 C12         3.4924  -19.7684  -51.4456 C.ar      23 UNK        -0.1150 
     13 C13         2.9852  -19.8776  -50.1481 C.ar      23 UNK        -0.0193 
     14 C14         2.2112  -18.8396  -49.6223 C.ar      23 UNK        -0.1150 
     15 C15         3.2760  -21.1227  -49.3252 C.3       23 UNK        -0.0205 
     16 S16         2.1606  -22.4853  -49.7582 S.3       23 UNK        -0.2404 
     17 C17         0.6257  -21.9977  -48.8998 C.3       23 UNK        -0.0398 
     18 CA          0.1130  -23.1463  -48.0038 C.3       11 UNK         0.1400 
     19 N           0.9850  -23.3698  -46.8473 N.am      11 UNK        -0.5000 
     20 C           1.0495  -24.5259  -46.1721 C.2       10 UNK         0.5000 
     21 O           0.3748  -25.5153  -46.4536 O.2       10 UNK        -0.5000 
     22 CA          1.9853  -24.5704  -44.9469 C.3       10 UNK         0.1400 
     23 CB          3.4000  -24.9917  -45.3704 C.3       10 UNK        -0.1800 
     24 N           2.0595  -23.2977  -44.2267 N.am      10 UNK        -0.5000 
     25 C           1.0113  -22.6453  -43.7062 C.2       9 UNK         0.5000 
     26 O          -0.1332  -23.0971  -43.7098 O.2       9 UNK        -0.5000 
     27 CA          1.2569  -21.2363  -43.1357 C.3       9 UNK         0.1400 
     28 CB          1.2464  -21.2716  -41.6006 C.3       9 UNK        -0.1800 
     29 N           2.4873  -20.5779  -43.5865 N.am      9 UNK        -0.5000 
     30 C           2.8186  -20.2891  -44.8523 C.2       8 UNK         0.5000 
     31 O           2.1732  -20.6570  -45.8371 O.2       8 UNK        -0.5000 
     32 CA          4.0442  -19.3718  -45.0177 C.3       8 UNK         0.1400 
     33 CB          4.7266  -19.5122  -46.3868 C.3       8 UNK        -0.1800 
     34 N           3.6005  -17.9935  -44.8556 N.am      8 UNK        -0.5000 
     35 C           3.4043  -17.3800  -43.6817 C.2       7 UNK         0.5000 
     36 O           3.7733  -17.8340  -42.5979 O.2       7 UNK        -0.5000 
     37 CA          2.6014  -16.0683  -43.7351 C.3       7 UNK         0.1400 
     38 CB          3.5269  -14.8675  -43.9766 C.3       7 UNK        -0.1800 
     39 N           1.5621  -16.1039  -44.7693 N.am      7 UNK        -0.5000 
     40 C           0.4621  -16.8677  -44.7024 C.2       6 UNK         0.5000 
     41 O           0.1769  -17.5827  -43.7395 O.2       6 UNK        -0.5000 
     42 CA         -0.4745  -16.8404  -45.9252 C.3       6 UNK         0.1400 
     43 CB         -0.5449  -18.2297  -46.5817 C.3       6 UNK        -0.1800 
     44 N          -1.8266  -16.4031  -45.5781 N.am      6 UNK        -0.5000 
     45 C          -2.1402  -15.2238  -45.0248 C.2       5 UNK         0.5000 
     46 O          -1.3173  -14.3402  -44.7700 O.2       5 UNK        -0.5000 
     47 CA         -3.6242  -15.0043  -44.6974 C.3       5 UNK         0.1400 
     48 CB         -4.0744  -15.8859  -43.5173 C.3       5 UNK        -0.1800 
     49 N          -3.8299  -13.5998  -44.3674 N.am      5 UNK        -0.5000 
     50 C          -4.9730  -12.9186  -44.4661 C.2       4 UNK         0.5000 
     51 O          -6.0265  -13.4265  -44.8535 O.2       4 UNK        -0.5000 
     52 CA         -4.9623  -11.4195  -44.0939 C.3       4 UNK         0.1400 
     53 CB         -5.6350  -11.1873  -42.7269 C.3       4 UNK        -0.1800 
     54 N          -3.6553  -10.7467  -44.1579 N.am      4 UNK        -0.5000 
     55 C          -2.5655  -10.9140  -43.3962 C.2       3 UNK         0.5000 
     56 O          -2.4833  -11.7567  -42.5019 O.2       3 UNK        -0.5000 
     57 CA         -1.3655   -9.9913  -43.7090 C.3       3 UNK         0.1400 
     58 CB         -0.1540  -10.2703  -42.8013 C.3       3 UNK        -0.1800 
     59 N          -0.9357  -10.0777  -45.1078 N.am      3 UNK        -0.5000 
     60 C          -1.5551   -9.5089  -46.1539 C.2       2 UNK         0.5000 
     61 O          -2.5855   -8.8424  -46.0434 O.2       2 UNK        -0.5000 
     62 CA         -0.9470   -9.7161  -47.5570 C.3       2 UNK         0.1400 
     63 CB         -0.1968   -8.4533  -48.0076 C.3       2 UNK        -0.1800 
     64 N          -0.0356  -10.8568  -47.6357 N.am      2 UNK        -0.5000 
     65 C          -0.3990  -12.1440  -47.5519 C.2       1 UNK         0.5000 
     66 O          -1.5736  -12.5113  -47.5119 O.2       1 UNK        -0.5000 
     67 C          -1.3595  -22.9299  -47.5979 C.2       11 UNK         0.5000 
     68 O          -2.2512  -23.2227  -48.3974 O.2       11 UNK        -0.5000 
     69 N          -1.5975  -22.4506  -46.3679 N.am      12 UNK        -0.5000 
     70 CA         -2.9297  -22.3735  -45.7682 C.3       12 UNK         0.1400 
     71 CB         -2.9466  -21.3304  -44.6404 C.3       12 UNK        -0.1800 
     72 C          -3.3839  -23.7535  -45.2631 C.2       12 UNK         0.5000 
     73 O          -4.5337  -24.1320  -45.4839 O.2       12 UNK        -0.5000 
     74 N          -2.4594  -24.4993  -44.6394 N.am      13 UNK        -0.5000 
     75 CA         -2.6643  -25.8657  -44.1515 C.3       13 UNK         0.1400 
     76 CB         -1.4278  -26.3155  -43.3601 C.3       13 UNK        -0.1800 
     77 C          -2.9903  -26.8746  -45.2701 C.2       13 UNK         0.5000 
     78 O          -3.7479  -27.8166  -45.0332 O.2       13 UNK        -0.5000 
     79 N          -2.4647  -26.6360  -46.4800 N.am      14 UNK        -0.5000 
     80 CA         -2.7473  -27.3711  -47.7164 C.3       14 UNK         0.1400 
     81 CB         -1.6299  -27.0661  -48.7312 C.3       14 UNK        -0.1800 
     82 C          -4.1539  -27.0667  -48.2849 C.2       14 UNK         0.5000 
     83 O          -4.2819  -26.6784  -49.4480 O.2       14 UNK        -0.5000 
     84 N          -5.1854  -27.2106  -47.4385 N.am      15 UNK        -0.5000 
     85 CA         -6.6176  -26.9983  -47.6988 C.3       15 UNK         0.1400 
     86 CB         -7.1507  -28.1137  -48.6213 C.3       15 UNK        -0.1800 
     87 C          -6.9658  -25.5886  -48.2309 C.2       15 UNK         0.5000 
     88 O          -7.9858  -25.4207  -48.9012 O.2       15 UNK        -0.5000 
     89 N          -6.0862  -24.6137  -47.9578 N.am      16 UNK        -0.5000 
     90 CA         -6.0434  -23.2523  -48.4977 C.3       16 UNK         0.1400 
     91 CB         -7.2163  -22.4129  -47.9541 C.3       16 UNK        -0.1800 
     92 C          -5.9224  -23.1749  -50.0371 C.2       16 UNK         0.5000 
     93 O          -6.1567  -22.1079  -50.6044 O.2       16 UNK        -0.5000 
     94 N          -5.5460  -24.2808  -50.6967 N.am      17 UNK        -0.5000 
     95 CA         -5.4514  -24.3770  -52.1523 C.3       17 UNK         0.1400 
     96 CB         -5.3894  -25.8534  -52.5717 C.3       17 UNK        -0.1800 
     97 C          -4.2442  -23.5967  -52.6879 C.2       17 UNK         0.5000 
     98 O          -4.3902  -22.7929  -53.6084 O.2       17 UNK        -0.5000 
     99 N          -3.0798  -23.8011  -52.0598 N.am      18 UNK        -0.5000 
    100 CA        -1.8490  -23.0810  -52.3812 C.3       18 UNK         0.1400 
    101 CB        -0.6547  -23.8181  -51.7682 C.3       18 UNK        -0.1800 
    102 C         -1.9026  -21.6048  -51.9441 C.2       18 UNK         0.5000 
    103 O         -1.3344  -20.7498  -52.6241 O.2       18 UNK        -0.5000 
    104 N         -2.6308  -21.3170  -50.8544 N.am      19 UNK        -0.5000 
    105 CA        -2.9267  -19.9596  -50.3863 C.3       19 UNK         0.1400 
    106 CB        -3.5351  -20.0143  -48.9773 C.3       19 UNK        -0.1800 
    107 C         -3.8382  -19.1647  -51.3454 C.2       19 UNK         0.5000 
    108 O         -3.7729  -17.9356  -51.3468 O.2       19 UNK        -0.5000 
    109 N         -4.6492  -19.8661  -52.1487 N.am      20 UNK        -0.5000 
    110 CA        -5.4561  -19.2829  -53.2177 C.3       20 UNK         0.1400 
    111 CB        -6.7292  -20.1208  -53.4157 C.3       20 UNK        -0.1800 
    112 C         -4.6603  -19.1729  -54.5310 C.2       20 UNK         0.5000 
    113 O         -4.7341  -18.1377  -55.1940 O.2       20 UNK        -0.5000 
    114 N         -3.9276  -20.2380  -54.8921 N.am      21 UNK        -0.5000 
    115 CA        -3.1634  -20.3400  -56.1396 C.3       21 UNK         0.1400 
    116 CB        -2.7099  -21.7929  -56.3456 C.3       21 UNK        -0.1800 
    117 C         -1.9577  -19.3839  -56.2071 C.2       21 UNK         0.5000 
    118 O         -1.7113  -18.7941  -57.2602 O.2       21 UNK        -0.5000 
    119 N         -1.2440  -19.2440  -55.0864 N.am      22 UNK        -0.5000 
    120 CA        -0.1455  -18.2907  -54.8841 C.3       22 UNK         0.1400 
    121 C         -0.4391  -17.3887  -53.6577 C.2       22 UNK         0.5000 
    122 N         -0.8669  -17.9538  -52.5376 N.am      22 UNK        -0.7600 
    123 O         -0.3124  -16.1695  -53.7303 O.2       22 UNK        -0.5000 
    124 C124        1.2184  -19.0208  -54.7697 C.3       23 UNK        -0.0398 
    125 S125        2.6432  -17.8798  -54.8825 S.3       23 UNK        -0.2404 
    126 C126        3.8016  -18.5499  -53.6375 C.3       23 UNK        -0.0205 
    127 H127        3.9545  -10.4940  -45.9098 H         1 UNK         0.0600 
    128 H128        4.4728  -11.8895  -46.8614 H         1 UNK         0.0600 
    129 H129        4.3484  -12.0162  -45.1047 H         1 UNK         0.0600 
    130 H130        2.7590  -12.8213  -47.9362 H         1 UNK         0.3000 
    131 H131        0.4880  -13.8550  -46.6621 H         1 UNK         0.0600 
    132 H132        0.9327  -13.4277  -49.6621 H         1 UNK         0.0800 
    133 H133       -0.2753  -14.4681  -48.9509 H         1 UNK         0.0800 
    134 H134        0.5954  -16.0607  -50.6822 H         1 UNK         0.0800 
    135 H135        0.2111  -17.0470  -49.2945 H         1 UNK         0.0800 
    136 H136        2.2837  -16.7064  -52.2592 H         1 UNK         0.1150 
    137 H137        4.0812  -20.5780  -51.8538 H         1 UNK         0.1150 
    138 H138        1.8077  -18.9242  -48.6250 H         1 UNK         0.1150 
    139 H139        4.3066  -21.4390  -49.4917 H         1 UNK         0.0800 
    140 H140        3.1860  -20.9211  -48.2602 H         1 UNK         0.0800 
    141 H141       -0.1022  -21.7324  -49.6651 H         1 UNK         0.0800 
    142 H142        0.7815  -21.0949  -48.3078 H         1 UNK         0.0800 
    143 H143        0.1230  -24.0610  -48.5997 H         1 UNK         0.0600 
    144 H144        1.5502  -22.5843  -46.5436 H         1 UNK         0.3000 
    145 H145        1.5956  -25.3200  -44.2561 H         1 UNK         0.0600 
    146 H146        4.0537  -25.1063  -44.5056 H         1 UNK         0.0600 
    147 H147        3.3820  -25.9496  -45.8920 H         1 UNK         0.0600 
    148 H148        3.8535  -24.2608  -46.0413 H         1 UNK         0.0600 
    149 H149        2.9627  -22.8498  -44.1861 H         1 UNK         0.3000 
    150 H150        0.4226  -20.6137  -43.4660 H         1 UNK         0.0600 
    151 H151        0.3282  -21.7253  -41.2247 H         1 UNK         0.0600 
    152 H152        1.3033  -20.2660  -41.1833 H         1 UNK         0.0600 
    153 H153        2.0839  -21.8485  -41.2065 H         1 UNK         0.0600 
    154 H154        3.0636  -20.1850  -42.8544 H         1 UNK         0.3000 
    155 H155        4.7767  -19.6264  -44.2486 H         1 UNK         0.0600 
    156 H156        4.0976  -19.1320  -47.1915 H         1 UNK         0.0600 
    157 H157        4.9649  -20.5541  -46.6039 H         1 UNK         0.0600 
    158 H158        5.6624  -18.9537  -46.4128 H         1 UNK         0.0600 
    159 H159        3.2370  -17.5476  -45.6844 H         1 UNK         0.3000 
    160 H160        2.1181  -15.9358  -42.7646 H         1 UNK         0.0600 
    161 H161        3.9745  -14.8919  -44.9709 H         1 UNK         0.0600 
    162 H162        4.3397  -14.8467  -43.2494 H         1 UNK         0.0600 
    163 H163        2.9801  -13.9308  -43.8726 H         1 UNK         0.0600 
    164 H164        1.7149  -15.5239  -45.5807 H         1 UNK         0.3000 
    165 H165       -0.0805  -16.1404  -46.6615 H         1 UNK         0.0600 
    166 H166       -1.1386  -18.2119  -47.4957 H         1 UNK         0.0600 
    167 H167        0.4512  -18.5850  -46.8435 H         1 UNK         0.0600 
    168 H168       -0.9806  -18.9705  -45.9114 H         1 UNK         0.0600 
    169 H169       -2.5615  -17.0787  -45.7248 H         1 UNK         0.3000 
    170 H170       -4.2060  -15.2537  -45.5872 H         1 UNK         0.0600 
    171 H171       -3.9356  -16.9450  -43.7370 H         1 UNK         0.0600 
    172 H172       -3.5077  -15.6607  -42.6130 H         1 UNK         0.0600 
    173 H173       -5.1313  -15.7402  -43.2938 H         1 UNK         0.0600 
    174 H174       -2.9971  -13.1183  -44.0443 H         1 UNK         0.3000 
    175 H175       -5.5765  -10.9216  -44.8457 H         1 UNK         0.0600 
    176 H176       -5.0970  -11.6833  -41.9186 H         1 UNK         0.0600 
    177 H177       -5.6935  -10.1249  -42.4905 H         1 UNK         0.0600 
    178 H178       -6.6539  -11.5766  -42.7236 H         1 UNK         0.0600 
    179 H179       -3.5727  -10.0467  -44.8903 H         1 UNK         0.3000 
    180 H180       -1.6919   -8.9683  -43.5113 H         1 UNK         0.0600 
    181 H181        0.6710   -9.5932  -43.0232 H         1 UNK         0.0600 
    182 H182        0.2101  -11.2916  -42.9209 H         1 UNK         0.0600 
    183 H183       -0.4120  -10.1343  -41.7504 H         1 UNK         0.0600 
    184 H184       -0.1097  -10.6419  -45.2787 H         1 UNK         0.3000 
    185 H185       -1.7732   -9.8899  -48.2496 H         1 UNK         0.0600 
    186 H186        0.1781   -8.5587  -49.0258 H         1 UNK         0.0600 
    187 H187       -0.8533   -7.5822  -47.9934 H         1 UNK         0.0600 
    188 H188        0.6513   -8.2357  -47.3571 H         1 UNK         0.0600 
    189 H189        0.9513  -10.6462  -47.6648 H         1 UNK         0.3000 
    190 H190       -0.8143  -22.2809  -45.7528 H         1 UNK         0.3000 
    191 H191       -3.6407  -22.0429  -46.5264 H         1 UNK         0.0600 
    192 H192       -3.9399  -21.2583  -44.1959 H         1 UNK         0.0600 
    193 H193       -2.6903  -20.3407  -45.0160 H         1 UNK         0.0600 
    194 H194       -2.2500  -21.5768  -43.8398 H         1 UNK         0.0600 
    195 H195       -1.5541  -24.0807  -44.4423 H         1 UNK         0.3000 
    196 H196       -3.5164  -25.8451  -43.4691 H         1 UNK         0.0600 
    197 H197       -0.5473  -26.3851  -43.9980 H         1 UNK         0.0600 
    198 H198       -1.2019  -25.6223  -42.5495 H         1 UNK         0.0600 
    199 H199       -1.5870  -27.2981  -42.9144 H         1 UNK         0.0600 
    200 H200       -1.8038  -25.8735  -46.5600 H         1 UNK         0.3000 
    201 H201       -2.7162  -28.4399  -47.4963 H         1 UNK         0.0600 
    202 H202       -1.6023  -26.0072  -48.9910 H         1 UNK         0.0600 
    203 H203       -1.7716  -27.6289  -49.6547 H         1 UNK         0.0600 
    204 H204       -0.6517  -27.3386  -48.3347 H         1 UNK         0.0600 
    205 H205       -4.9511  -27.5037  -46.4937 H         1 UNK         0.3000 
    206 H206       -7.1209  -27.0911  -46.7357 H         1 UNK         0.0600 
    207 H207       -6.9101  -29.1007  -48.2264 H         1 UNK         0.0600 
    208 H208       -8.2358  -28.0617  -48.7175 H         1 UNK         0.0600 
    209 H209       -6.7288  -28.0418  -49.6245 H         1 UNK         0.0600 
    210 H210       -5.3207  -24.8432  -47.3346 H         1 UNK         0.3000 
    211 H211       -5.1220  -22.8164  -48.1148 H         1 UNK         0.0600 
    212 H212       -7.1102  -21.3633  -48.2307 H         1 UNK         0.0600 
    213 H213       -7.2586  -22.4565  -46.8657 H         1 UNK         0.0600 
    214 H214       -8.1745  -22.7582  -48.3427 H         1 UNK         0.0600 
    215 H215       -5.3096  -25.1153  -50.1683 H         1 UNK         0.3000 
    216 H216       -6.3536  -23.9399  -52.5858 H         1 UNK         0.0600 
    217 H217       -4.5055  -26.3528  -52.1733 H         1 UNK         0.0600 
    218 H218       -5.3590  -25.9487  -53.6578 H         1 UNK         0.0600 
    219 H219       -6.2659  -26.3984  -52.2207 H         1 UNK         0.0600 
    220 H220       -3.0469  -24.4601  -51.2947 H         1 UNK         0.3000 
    221 H221       -1.7188  -23.0925  -53.4644 H         1 UNK         0.0600 
    222 H222       -0.5413  -24.8106  -52.2043 H         1 UNK         0.0600 
    223 H223       -0.7720  -23.9415  -50.6940 H         1 UNK         0.0600 
    224 H224        0.2743  -23.2768  -51.9495 H         1 UNK         0.0600 
    225 H225       -3.0299  -22.0801  -50.3249 H         1 UNK         0.3000 
    226 H226       -1.9807  -19.4194  -50.3147 H         1 UNK         0.0600 
    227 H227       -4.4547  -20.5979  -48.9563 H         1 UNK         0.0600 
    228 H228       -2.8368  -20.4490  -48.2641 H         1 UNK         0.0600 
    229 H229       -3.7755  -19.0134  -48.6167 H         1 UNK         0.0600 
    230 H230       -4.6883  -20.8713  -52.0477 H         1 UNK         0.3000 
    231 H231       -5.7667  -18.2765  -52.9288 H         1 UNK         0.0600 
    232 H232       -6.5021  -21.1474  -53.7034 H         1 UNK         0.0600 
    233 H233       -7.3602  -19.6930  -54.1956 H         1 UNK         0.0600 
    234 H234       -7.3208  -20.1564  -52.5007 H         1 UNK         0.0600 
    235 H235       -3.9764  -21.0786  -54.3232 H         1 UNK         0.3000 
    236 H236       -3.8357  -20.0802  -56.9600 H         1 UNK         0.0600 
    237 H237       -3.5598  -22.4757  -56.3533 H         1 UNK         0.0600 
    238 H238       -2.1911  -21.9082  -57.2980 H         1 UNK         0.0600 
    239 H239       -2.0270  -22.1151  -55.5601 H         1 UNK         0.0600 
    240 H240       -1.5171  -19.7726  -54.2640 H         1 UNK         0.3000 
    241 H241       -0.0903  -17.6241  -55.7471 H         1 UNK         0.0600 
    242 H242       -1.1265  -17.3680  -51.7629 H         1 UNK         0.3800 
    243 H243       -0.9599  -18.9631  -52.4724 H         1 UNK         0.3800 
    244 H244        1.3178  -19.7407  -55.5828 H         1 UNK         0.0800 
    245 H245        1.2633  -19.6042  -53.8487 H         1 UNK         0.0800 
    246 H246        4.1271  -19.5352  -53.9751 H         1 UNK         0.0800 
    247 H247        4.6932  -17.9222  -53.6191 H         1 UNK         0.0800 
@<TRIPOS>BOND
     1    1    2 1    
     2    1  127 1    
     3    1  128 1    
     4    1  129 1    
     5    2    3 2    
     6    2    4 am   BACKBONE|DICT|INTERRES
     7    4    5 1    
     8    4  130 1    
     9    5    6 1    
    10    5   65 1    
    11    5  131 1    
    12    6    7 1    
    13    6  132 1    
    14    6  133 1    
    15    7    8 1    
    16    8    9 1    
    17    8  134 1    
    18    8  135 1    
    19    9   10 ar   
    20    9   14 ar   
    21   10   11 ar   
    22   10  136 1    
    23   11   12 ar   
    24   11  126 1    
    25   12   13 ar   
    26   12  137 1    
    27   13   14 ar   
    28   13   15 1    
    29   14  138 1    
    30   15   16 1    
    31   15  139 1    
    32   15  140 1    
    33   16   17 1    
    34   17   18 1    
    35   17  141 1    
    36   17  142 1    
    37   18   19 1    
    38   18   67 1    
    39   18  143 1    
    40   19   20 am   BACKBONE|DICT|INTERRES
    41   19  144 1    
    42   20   21 2    
    43   20   22 1    
    44   22   23 1    
    45   22   24 1    
    46   22  145 1    
    47   23  146 1    
    48   23  147 1    
    49   23  148 1    
    50   24   25 am   BACKBONE|DICT|INTERRES
    51   24  149 1    
    52   25   26 2    
    53   25   27 1    
    54   27   28 1    
    55   27   29 1    
    56   27  150 1    
    57   28  151 1    
    58   28  152 1    
    59   28  153 1    
    60   29   30 am   BACKBONE|DICT|INTERRES
    61   29  154 1    
    62   30   31 2    
    63   30   32 1    
    64   32   33 1    
    65   32   34 1    
    66   32  155 1    
    67   33  156 1    
    68   33  157 1    
    69   33  158 1    
    70   34   35 am   BACKBONE|DICT|INTERRES
    71   34  159 1    
    72   35   36 2    
    73   35   37 1    
    74   37   38 1    
    75   37   39 1    
    76   37  160 1    
    77   38  161 1    
    78   38  162 1    
    79   38  163 1    
    80   39   40 am   BACKBONE|DICT|INTERRES
    81   39  164 1    
    82   40   41 2    
    83   40   42 1    
    84   42   43 1    
    85   42   44 1    
    86   42  165 1    
    87   43  166 1    
    88   43  167 1    
    89   43  168 1    
    90   44   45 am   BACKBONE|DICT|INTERRES
    91   44  169 1    
    92   45   46 2    
    93   45   47 1    
    94   47   48 1    
    95   47   49 1    
    96   47  170 1    
    97   48  171 1    
    98   48  172 1    
    99   48  173 1    
   100   49   50 am   BACKBONE|DICT|INTERRES
   101   49  174 1    
   102   50   51 2    
   103   50   52 1    
   104   52   53 1    
   105   52   54 1    
   106   52  175 1    
   107   53  176 1    
   108   53  177 1    
   109   53  178 1    
   110   54   55 am   BACKBONE|DICT|INTERRES
   111   54  179 1    
   112   55   56 2    
   113   55   57 1    
   114   57   58 1    
   115   57   59 1    
   116   57  180 1    
   117   58  181 1    
   118   58  182 1    
   119   58  183 1    
   120   59   60 am   BACKBONE|DICT|INTERRES
   121   59  184 1    
   122   60   61 2    
   123   60   62 1    
   124   62   63 1    
   125   62   64 1    
   126   62  185 1    
   127   63  186 1    
   128   63  187 1    
   129   63  188 1    
   130   64   65 am   BACKBONE|DICT|INTERRES
   131   64  189 1    
   132   65   66 2    
   133   67   68 2    
   134   67   69 am   BACKBONE|DICT|INTERRES
   135   69   70 1    
   136   69  190 1    
   137   70   71 1    
   138   70   72 1    
   139   70  191 1    
   140   71  192 1    
   141   71  193 1    
   142   71  194 1    
   143   72   73 2    
   144   72   74 am   BACKBONE|DICT|INTERRES
   145   74   75 1    
   146   74  195 1    
   147   75   76 1    
   148   75   77 1    
   149   75  196 1    
   150   76  197 1    
   151   76  198 1    
   152   76  199 1    
   153   77   78 2    
   154   77   79 am   BACKBONE|DICT|INTERRES
   155   79   80 1    
   156   79  200 1    
   157   80   81 1    
   158   80   82 1    
   159   80  201 1    
   160   81  202 1    
   161   81  203 1    
   162   81  204 1    
   163   82   83 2    
   164   82   84 am   BACKBONE|DICT|INTERRES
   165   84   85 1    
   166   84  205 1    
   167   85   86 1    
   168   85   87 1    
   169   85  206 1    
   170   86  207 1    
   171   86  208 1    
   172   86  209 1    
   173   87   88 2    
   174   87   89 am   BACKBONE|DICT|INTERRES
   175   89   90 1    
   176   89  210 1    
   177   90   91 1    
   178   90   92 1    
   179   90  211 1    
   180   91  212 1    
   181   91  213 1    
   182   91  214 1    
   183   92   93 2    
   184   92   94 am   BACKBONE|DICT|INTERRES
   185   94   95 1    
   186   94  215 1    
   187   95   96 1    
   188   95   97 1    
   189   95  216 1    
   190   96  217 1    
   191   96  218 1    
   192   96  219 1    
   193   97   98 2    
   194   97   99 am   BACKBONE|DICT|INTERRES
   195   99  100 1    
   196   99  220 1    
   197  100  101 1    
   198  100  102 1    
   199  100  221 1    
   200  101  222 1    
   201  101  223 1    
   202  101  224 1    
   203  102  103 2    
   204  102  104 am   BACKBONE|DICT|INTERRES
   205  104  105 1    
   206  104  225 1    
   207  105  106 1    
   208  105  107 1    
   209  105  226 1    
   210  106  227 1    
   211  106  228 1    
   212  106  229 1    
   213  107  108 2    
   214  107  109 am   BACKBONE|DICT|INTERRES
   215  109  110 1    
   216  109  230 1    
   217  110  111 1    
   218  110  112 1    
   219  110  231 1    
   220  111  232 1    
   221  111  233 1    
   222  111  234 1    
   223  112  113 2    
   224  112  114 am   BACKBONE|DICT|INTERRES
   225  114  115 1    
   226  114  235 1    
   227  115  116 1    
   228  115  117 1    
   229  115  236 1    
   230  116  237 1    
   231  116  238 1    
   232  116  239 1    
   233  117  118 2    
   234  117  119 am   BACKBONE|DICT|INTERRES
   235  119  120 1    
   236  119  240 1    
   237  120  121 1    
   238  120  124 1    
   239  120  241 1    
   240  121  122 am   BACKBONE|DICT|INTERRES
   241  121  123 2    
   242  122  242 1    
   243  122  243 1    
   244  124  125 1    
   245  124  244 1    
   246  124  245 1    
   247  125  126 1    
   248  126  246 1    
   249  126  247 1    
@<TRIPOS>SUBSTRUCTURE
     1 UNK         1 GROUP             0       ****    0 ROOT    
