@<TRIPOS>MOLECULE
3R540
247   249    1
SMALL
USER_CHARGES


@<TRIPOS>ATOM
      1 CA         -2.1455  -14.4641  -49.3548 C.3       0 UNK        -0.1800 
      2 C          -0.8772  -14.6034  -48.5272 C.2       0 UNK         0.5000 
      3 O          -0.1484  -13.6275  -48.3546 O.2       0 UNK        -0.5000 
      4 N          -0.6158  -15.8126  -48.0153 N.am      1 UNK        -0.5000 
      5 CA          0.5416  -16.1223  -47.1639 C.3       1 UNK         0.1400 
      6 C6          0.9327  -17.6199  -47.2164 C.3       23 UNK        -0.0398 
      7 S7          1.3171  -18.1931  -48.9108 S.3       23 UNK        -0.2404 
      8 C8          0.0217  -19.4311  -49.2446 C.3       23 UNK        -0.0205 
      9 C9         -1.3682  -18.8217  -49.2741 C.ar      23 UNK        -0.0193 
     10 C10        -1.8600  -18.2430  -50.4441 C.ar      23 UNK        -0.1150 
     11 C11        -3.1367  -17.6776  -50.4697 C.ar      23 UNK        -0.0193 
     12 C12        -3.9168  -17.6838  -49.3094 C.ar      23 UNK        -0.1150 
     13 C13        -3.4342  -18.2491  -48.1244 C.ar      23 UNK        -0.0193 
     14 C14        -2.1630  -18.8364  -48.1276 C.ar      23 UNK        -0.1150 
     15 C15        -4.3091  -18.1742  -46.8716 C.3       23 UNK        -0.0205 
     16 S16        -3.4919  -18.6621  -45.3093 S.3       23 UNK        -0.2404 
     17 C17        -4.1120  -20.3605  -45.0717 C.3       23 UNK        -0.0398 
     18 CA         -3.2858  -21.4494  -45.7987 C.3       11 UNK         0.1400 
     19 N          -1.8598  -21.4546  -45.4444 N.am      11 UNK        -0.5000 
     20 C          -0.9316  -22.1869  -46.0840 C.2       10 UNK         0.5000 
     21 O          -1.1746  -22.8402  -47.0988 O.2       10 UNK        -0.5000 
     22 CA          0.4876  -22.2562  -45.4864 C.3       10 UNK         0.1400 
     23 CB          1.4772  -21.4203  -46.3063 C.3       10 UNK        -0.1800 
     24 N           0.5429  -21.8476  -44.0848 N.am      10 UNK        -0.5000 
     25 C           0.0796  -22.5918  -43.0689 C.2       9 UNK         0.5000 
     26 O          -0.4066  -23.7122  -43.2221 O.2       9 UNK        -0.5000 
     27 CA          0.1219  -21.9739  -41.6553 C.3       9 UNK         0.1400 
     28 CB          1.3662  -22.4578  -40.8963 C.3       9 UNK        -0.1800 
     29 N           0.1027  -20.5092  -41.6551 N.am      9 UNK        -0.5000 
     30 C          -0.8849  -19.7537  -42.1557 C.2       8 UNK         0.5000 
     31 O          -1.9338  -20.2226  -42.5952 O.2       8 UNK        -0.5000 
     32 CA         -0.6381  -18.2334  -42.2385 C.3       8 UNK         0.1400 
     33 CB         -1.3255  -17.5152  -41.0677 C.3       8 UNK        -0.1800 
     34 N           0.7790  -17.8469  -42.2761 N.am      8 UNK        -0.5000 
     35 C           1.6638  -18.2251  -43.2115 C.2       7 UNK         0.5000 
     36 O           1.3815  -18.9857  -44.1376 O.2       7 UNK        -0.5000 
     37 CA          3.0871  -17.6596  -43.0735 C.3       7 UNK         0.1400 
     38 CB          3.9709  -17.9203  -44.3070 C.3       7 UNK        -0.1800 
     39 N           3.0249  -16.2218  -42.8222 N.am      7 UNK        -0.5000 
     40 C           3.7100  -15.5711  -41.8763 C.2       6 UNK         0.5000 
     41 O           4.4655  -16.1364  -41.0831 O.2       6 UNK        -0.5000 
     42 CA          3.4999  -14.0435  -41.7761 C.3       6 UNK         0.1400 
     43 CB          4.6713  -13.3285  -41.0711 C.3       6 UNK        -0.1800 
     44 N           3.1917  -13.3628  -43.0391 N.am      6 UNK        -0.5000 
     45 C           3.9353  -13.3238  -44.1571 C.2       5 UNK         0.5000 
     46 O           4.9513  -13.9977  -44.3308 O.2       5 UNK        -0.5000 
     47 CA          3.5099  -12.3189  -45.2513 C.3       5 UNK         0.1400 
     48 CB          2.8515  -13.0117  -46.4523 C.3       5 UNK        -0.1800 
     49 N           2.6188  -11.2664  -44.7566 N.am      5 UNK        -0.5000 
     50 C           3.0262  -10.2181  -44.0270 C.2       4 UNK         0.5000 
     51 O           4.2077   -9.9901  -43.7644 O.2       4 UNK        -0.5000 
     52 CA          1.9399   -9.2693  -43.4809 C.3       4 UNK         0.1400 
     53 CB          1.7915   -8.0428  -44.3942 C.3       4 UNK        -0.1800 
     54 N           0.6217   -9.8843  -43.2956 N.am      4 UNK        -0.5000 
     55 C           0.3448  -10.9094  -42.4781 C.2       3 UNK         0.5000 
     56 O           1.1989  -11.5073  -41.8222 O.2       3 UNK        -0.5000 
     57 CA         -1.1248  -11.3626  -42.3674 C.3       3 UNK         0.1400 
     58 CB         -2.1296  -10.4842  -43.1485 C.3       3 UNK        -0.1800 
     59 N          -1.2785  -12.7756  -42.7260 N.am      3 UNK        -0.5000 
     60 C          -1.0106  -13.3391  -43.9127 C.2       2 UNK         0.5000 
     61 O          -0.5761  -12.7142  -44.8834 O.2       2 UNK        -0.5000 
     62 CA         -1.3042  -14.8516  -44.0141 C.3       2 UNK         0.1400 
     63 CB         -2.7942  -15.1488  -43.7713 C.3       2 UNK        -0.1800 
     64 N          -0.9276  -15.4164  -45.3091 N.am      2 UNK        -0.5000 
     65 C           0.3287  -15.6595  -45.7044 C.2       1 UNK         0.5000 
     66 O           1.3034  -15.5190  -44.9660 O.2       1 UNK        -0.5000 
     67 C          -3.9112  -22.8353  -45.5468 C.2       11 UNK         0.5000 
     68 O          -4.6286  -23.3456  -46.4080 O.2       11 UNK        -0.5000 
     69 N          -3.5715  -23.4375  -44.3956 N.am      12 UNK        -0.5000 
     70 CA         -3.9886  -24.7824  -43.9905 C.3       12 UNK         0.1400 
     71 CB         -3.6499  -24.9953  -42.5075 C.3       12 UNK        -0.1800 
     72 C          -3.3720  -25.8955  -44.8597 C.2       12 UNK         0.5000 
     73 O          -3.9664  -26.9660  -44.9820 O.2       12 UNK        -0.5000 
     74 N          -2.2335  -25.6051  -45.5042 N.am      13 UNK        -0.5000 
     75 CA         -1.5857  -26.4375  -46.5206 C.3       13 UNK         0.1400 
     76 CB         -0.0703  -26.1682  -46.4956 C.3       13 UNK        -0.1800 
     77 C          -2.1932  -26.2173  -47.9257 C.2       13 UNK         0.5000 
     78 O          -1.4686  -26.2686  -48.9207 O.2       13 UNK        -0.5000 
     79 N          -3.5088  -25.9598  -47.9826 N.am      14 UNK        -0.5000 
     80 CA         -4.3295  -25.7201  -49.1725 C.3       14 UNK         0.1400 
     81 CB         -4.4794  -27.0212  -49.9889 C.3       14 UNK        -0.1800 
     82 C          -3.8228  -24.5359  -50.0187 C.2       14 UNK         0.5000 
     83 O          -3.7109  -24.6602  -51.2379 O.2       14 UNK        -0.5000 
     84 N          -3.4956  -23.4215  -49.3474 N.am      15 UNK        -0.5000 
     85 CA         -2.9061  -22.2024  -49.9169 C.3       15 UNK         0.1400 
     86 CB         -3.9288  -21.4644  -50.8027 C.3       15 UNK        -0.1800 
     87 C          -1.5734  -22.4898  -50.6397 C.2       15 UNK         0.5000 
     88 O          -1.4256  -22.1864  -51.8257 O.2       15 UNK        -0.5000 
     89 N          -0.6510  -23.1211  -49.8982 N.am      16 UNK        -0.5000 
     90 CA          0.6590  -23.6200  -50.3300 C.3       16 UNK         0.1400 
     91 CB          1.6370  -22.4493  -50.5546 C.3       16 UNK        -0.1800 
     92 C           0.5622  -24.5704  -51.5430 C.2       16 UNK         0.5000 
     93 O           1.2696  -24.3856  -52.5351 O.2       16 UNK        -0.5000 
     94 N          -0.3364  -25.5601  -51.4333 N.am      17 UNK        -0.5000 
     95 CA         -0.7027  -26.5456  -52.4548 C.3       17 UNK         0.1400 
     96 CB          0.4594  -27.5296  -52.7033 C.3       17 UNK        -0.1800 
     97 C          -1.2351  -25.8871  -53.7460 C.2       17 UNK         0.5000 
     98 O          -0.7783  -26.2118  -54.8440 O.2       17 UNK        -0.5000 
     99 N          -2.1965  -24.9696  -53.5707 N.am      18 UNK        -0.5000 
    100 CA        -2.8733  -24.1644  -54.5877 C.3       18 UNK         0.1400 
    101 CB        -3.7814  -25.0513  -55.4645 C.3       18 UNK        -0.1800 
    102 C         -1.8943  -23.2990  -55.4045 C.2       18 UNK         0.5000 
    103 O         -1.8350  -23.4138  -56.6309 O.2       18 UNK        -0.5000 
    104 N         -1.1381  -22.4415  -54.7040 N.am      19 UNK        -0.5000 
    105 CA        -0.1924  -21.4897  -55.2984 C.3       19 UNK         0.1400 
    106 CB         0.6541  -20.8577  -54.1841 C.3       19 UNK        -0.1800 
    107 C         -0.8700  -20.3979  -56.1538 C.2       19 UNK         0.5000 
    108 O         -0.2399  -19.8565  -57.0633 O.2       19 UNK        -0.5000 
    109 N         -2.1434  -20.1191  -55.8632 N.am      20 UNK        -0.5000 
    110 CA        -3.0520  -19.2677  -56.6187 C.3       20 UNK         0.1400 
    111 CB        -2.8045  -17.7871  -56.2697 C.3       20 UNK        -0.1800 
    112 C         -4.4891  -19.7221  -56.3062 C.2       20 UNK         0.5000 
    113 O         -4.6777  -20.6630  -55.5278 O.2       20 UNK        -0.5000 
    114 N         -5.4800  -19.0613  -56.9206 N.am      21 UNK        -0.5000 
    115 CA        -6.9052  -19.3145  -56.6830 C.3       21 UNK         0.1400 
    116 CB        -7.7400  -18.5830  -57.7458 C.3       21 UNK        -0.1800 
    117 C         -7.3489  -18.9094  -55.2633 C.2       21 UNK         0.5000 
    118 O         -8.1026  -19.6475  -54.6281 O.2       21 UNK        -0.5000 
    119 N         -6.8441  -17.7585  -54.7953 N.am      22 UNK        -0.5000 
    120 CA        -6.9744  -17.2354  -53.4205 C.3       22 UNK         0.1400 
    121 C         -8.4267  -16.8842  -52.9702 C.2       22 UNK         0.5000 
    122 N         -9.3744  -16.7051  -53.8822 N.am      22 UNK        -0.7600 
    123 O         -8.6971  -16.7347  -51.7815 O.2       22 UNK        -0.5000 
    124 C124       -6.2094  -18.1015  -52.3780 C.3       23 UNK        -0.0398 
    125 S125       -4.4467  -18.2847  -52.8172 S.3       23 UNK        -0.2404 
    126 C126       -3.6539  -17.0462  -51.7506 C.3       23 UNK        -0.0205 
    127 H127       -1.9666  -14.7940  -50.3779 H         1 UNK         0.0600 
    128 H128       -2.4732  -13.4249  -49.3825 H         1 UNK         0.0600 
    129 H129       -2.9555  -15.0570  -48.9316 H         1 UNK         0.0600 
    130 H130       -1.2216  -16.5915  -48.2371 H         1 UNK         0.3000 
    131 H131        1.3964  -15.5574  -47.5419 H         1 UNK         0.0600 
    132 H132        0.1593  -18.2397  -46.7656 H         1 UNK         0.0800 
    133 H133        1.8262  -17.7923  -46.6165 H         1 UNK         0.0800 
    134 H134        0.0697  -20.2326  -48.5084 H         1 UNK         0.0800 
    135 H135        0.2280  -19.8943  -50.2099 H         1 UNK         0.0800 
    136 H136       -1.2497  -18.2353  -51.3366 H         1 UNK         0.1150 
    137 H137       -4.8987  -17.2322  -49.3249 H         1 UNK         0.1150 
    138 H138       -1.7694  -19.2984  -47.2364 H         1 UNK         0.1150 
    139 H139       -4.6444  -17.1430  -46.7513 H         1 UNK         0.0800 
    140 H140       -5.2098  -18.7679  -47.0302 H         1 UNK         0.0800 
    141 H141       -5.1558  -20.3982  -45.3882 H         1 UNK         0.0800 
    142 H142       -4.1284  -20.5507  -43.9976 H         1 UNK         0.0800 
    143 H143       -3.3598  -21.2530  -46.8691 H         1 UNK         0.0600 
    144 H144       -1.6074  -20.9480  -44.6042 H         1 UNK         0.3000 
    145 H145        0.8131  -23.2963  -45.5440 H         1 UNK         0.0600 
    146 H146        1.1799  -20.3743  -46.3506 H         1 UNK         0.0600 
    147 H147        2.4805  -21.4645  -45.8826 H         1 UNK         0.0600 
    148 H148        1.5414  -21.7908  -47.3287 H         1 UNK         0.0600 
    149 H149        0.8984  -20.9137  -43.9039 H         1 UNK         0.3000 
    150 H150       -0.7649  -22.3203  -41.1206 H         1 UNK         0.0600 
    151 H151        1.3992  -23.5475  -40.8549 H         1 UNK         0.0600 
    152 H152        1.3679  -22.0952  -39.8682 H         1 UNK         0.0600 
    153 H153        2.2861  -22.1193  -41.3748 H         1 UNK         0.0600 
    154 H154        0.9311  -20.0447  -41.3143 H         1 UNK         0.3000 
    155 H155       -1.0937  -17.8889  -43.1691 H         1 UNK         0.0600 
    156 H156       -2.3932  -17.7384  -41.0475 H         1 UNK         0.0600 
    157 H157       -1.2244  -16.4332  -41.1457 H         1 UNK         0.0600 
    158 H158       -0.9075  -17.8221  -40.1081 H         1 UNK         0.0600 
    159 H159        1.0964  -17.2248  -41.5471 H         1 UNK         0.3000 
    160 H160        3.5329  -18.1799  -42.2238 H         1 UNK         0.0600 
    161 H161        4.9951  -17.5932  -44.1273 H         1 UNK         0.0600 
    162 H162        3.6038  -17.3845  -45.1819 H         1 UNK         0.0600 
    163 H163        4.0078  -18.9819  -44.5547 H         1 UNK         0.0600 
    164 H164        2.4241  -15.7025  -43.4600 H         1 UNK         0.3000 
    165 H165        2.6170  -13.9119  -41.1492 H         1 UNK         0.0600 
    166 H166        5.6070  -13.4559  -41.6164 H         1 UNK         0.0600 
    167 H167        4.4799  -12.2591  -40.9791 H         1 UNK         0.0600 
    168 H168        4.8224  -13.7157  -40.0628 H         1 UNK         0.0600 
    169 H169        2.3898  -12.7450  -42.9907 H         1 UNK         0.3000 
    170 H170        4.4293  -11.8531  -45.6125 H         1 UNK         0.0600 
    171 H171        1.8173  -13.2768  -46.2414 H         1 UNK         0.0600 
    172 H172        2.8456  -12.3572  -47.3239 H         1 UNK         0.0600 
    173 H173        3.3818  -13.9228  -46.7323 H         1 UNK         0.0600 
    174 H174        1.6283  -11.3923  -44.9203 H         1 UNK         0.3000 
    175 H175        2.2789   -8.9249  -42.5017 H         1 UNK         0.0600 
    176 H176        1.4212   -8.3203  -45.3820 H         1 UNK         0.0600 
    177 H177        1.1020   -7.3136  -43.9685 H         1 UNK         0.0600 
    178 H178        2.7492   -7.5391  -44.5324 H         1 UNK         0.0600 
    179 H179       -0.1397   -9.4737  -43.8163 H         1 UNK         0.3000 
    180 H180       -1.3809  -11.2855  -41.3097 H         1 UNK         0.0600 
    181 H181       -1.9442  -10.4934  -44.2230 H         1 UNK         0.0600 
    182 H182       -2.0921   -9.4475  -42.8115 H         1 UNK         0.0600 
    183 H183       -3.1507  -10.8316  -42.9905 H         1 UNK         0.0600 
    184 H184       -1.6030  -13.3702  -41.9769 H         1 UNK         0.3000 
    185 H185       -0.7176  -15.3478  -43.2397 H         1 UNK         0.0600 
    186 H186       -2.9862  -16.2206  -43.7813 H         1 UNK         0.0600 
    187 H187       -3.1276  -14.7814  -42.8004 H         1 UNK         0.0600 
    188 H188       -3.4254  -14.6876  -44.5319 H         1 UNK         0.0600 
    189 H189       -1.6638  -15.5100  -45.9919 H         1 UNK         0.3000 
    190 H190       -2.9438  -22.9572  -43.7662 H         1 UNK         0.3000 
    191 H191       -5.0730  -24.8435  -44.1031 H         1 UNK         0.0600 
    192 H192       -2.5753  -24.9598  -42.3282 H         1 UNK         0.0600 
    193 H193       -4.1208  -24.2374  -41.8813 H         1 UNK         0.0600 
    194 H194       -4.0057  -25.9672  -42.1632 H         1 UNK         0.0600 
    195 H195       -1.8271  -24.6936  -45.3521 H         1 UNK         0.3000 
    196 H196       -1.7394  -27.4882  -46.2670 H         1 UNK         0.0600 
    197 H197        0.3334  -26.2573  -45.4869 H         1 UNK         0.0600 
    198 H198        0.1682  -25.1727  -46.8685 H         1 UNK         0.0600 
    199 H199        0.4623  -26.8845  -47.1223 H         1 UNK         0.0600 
    200 H200       -4.0055  -25.9201  -47.1034 H         1 UNK         0.3000 
    201 H201       -5.3200  -25.4368  -48.8136 H         1 UNK         0.0600 
    202 H202       -5.1722  -26.8844  -50.8201 H         1 UNK         0.0600 
    203 H203       -4.8704  -27.8302  -49.3720 H         1 UNK         0.0600 
    204 H204       -3.5276  -27.3494  -50.4073 H         1 UNK         0.0600 
    205 H205       -3.6127  -23.4315  -48.3412 H         1 UNK         0.3000 
    206 H206       -2.6644  -21.5468  -49.0813 H         1 UNK         0.0600 
    207 H207       -4.8262  -21.2065  -50.2408 H         1 UNK         0.0600 
    208 H208       -4.2283  -22.0559  -51.6680 H         1 UNK         0.0600 
    209 H209       -3.5051  -20.5347  -51.1793 H         1 UNK         0.0600 
    210 H210       -0.8853  -23.2971  -48.9243 H         1 UNK         0.3000 
    211 H211        1.0465  -24.2190  -49.5045 H         1 UNK         0.0600 
    212 H212        1.7583  -21.8552  -49.6507 H         1 UNK         0.0600 
    213 H213        2.6267  -22.8118  -50.8343 H         1 UNK         0.0600 
    214 H214        1.2950  -21.7846  -51.3465 H         1 UNK         0.0600 
    215 H215       -0.8425  -25.6465  -50.5536 H         1 UNK         0.3000 
    216 H216       -1.5332  -27.1180  -52.0393 H         1 UNK         0.0600 
    217 H217        0.1544  -28.3301  -53.3782 H         1 UNK         0.0600 
    218 H218        1.3223  -27.0357  -53.1509 H         1 UNK         0.0600 
    219 H219        0.7849  -27.9962  -51.7735 H         1 UNK         0.0600 
    220 H220       -2.5246  -24.7989  -52.6214 H         1 UNK         0.3000 
    221 H221       -3.5185  -23.4704  -54.0463 H         1 UNK         0.0600 
    222 H222       -3.2071  -25.7689  -56.0511 H         1 UNK         0.0600 
    223 H223       -4.4924  -25.6087  -54.8547 H         1 UNK         0.0600 
    224 H224       -4.3588  -24.4443  -56.1629 H         1 UNK         0.0600 
    225 H225       -1.2318  -22.4137  -53.6898 H         1 UNK         0.3000 
    226 H226        0.4760  -22.0490  -55.9560 H         1 UNK         0.0600 
    227 H227        1.2387  -21.6176  -53.6665 H         1 UNK         0.0600 
    228 H228        1.3569  -20.1281  -54.5883 H         1 UNK         0.0600 
    229 H229        0.0337  -20.3464  -53.4467 H         1 UNK         0.0600 
    230 H230       -2.6033  -20.6481  -55.1319 H         1 UNK         0.3000 
    231 H231       -2.8820  -19.4237  -57.6858 H         1 UNK         0.0600 
    232 H232       -3.4775  -17.1279  -56.8182 H         1 UNK         0.0600 
    233 H233       -1.7880  -17.4880  -56.5253 H         1 UNK         0.0600 
    234 H234       -2.9462  -17.5942  -55.2072 H         1 UNK         0.0600 
    235 H235       -5.2525  -18.3160  -57.5625 H         1 UNK         0.3000 
    236 H236       -7.0824  -20.3867  -56.7928 H         1 UNK         0.0600 
    237 H237       -7.4876  -18.9261  -58.7493 H         1 UNK         0.0600 
    238 H238       -8.8051  -18.7673  -57.5994 H         1 UNK         0.0600 
    239 H239       -7.5853  -17.5040  -57.7109 H         1 UNK         0.0600 
    240 H240       -6.2379  -17.2284  -55.4031 H         1 UNK         0.3000 
    241 H241       -6.4746  -16.2665  -53.4428 H         1 UNK         0.0600 
    242 H242       -9.1692  -16.8178  -54.8620 H         1 UNK         0.3800 
    243 H243      -10.3089  -16.4673  -53.5884 H         1 UNK         0.3800 
    244 H244       -6.2818  -17.6718  -51.3782 H         1 UNK         0.0800 
    245 H245       -6.6520  -19.0960  -52.3103 H         1 UNK         0.0800 
    246 H246       -2.8228  -16.5989  -52.2979 H         1 UNK         0.0800 
    247 H247       -4.3428  -16.2293  -51.5312 H         1 UNK         0.0800 
@<TRIPOS>BOND
     1    1    2 1    
     2    1  127 1    
     3    1  128 1    
     4    1  129 1    
     5    2    3 2    
     6    2    4 am   BACKBONE|DICT|INTERRES
     7    4    5 1    
     8    4  130 1    
     9    5    6 1    
    10    5   65 1    
    11    5  131 1    
    12    6    7 1    
    13    6  132 1    
    14    6  133 1    
    15    7    8 1    
    16    8    9 1    
    17    8  134 1    
    18    8  135 1    
    19    9   10 ar   
    20    9   14 ar   
    21   10   11 ar   
    22   10  136 1    
    23   11   12 ar   
    24   11  126 1    
    25   12   13 ar   
    26   12  137 1    
    27   13   14 ar   
    28   13   15 1    
    29   14  138 1    
    30   15   16 1    
    31   15  139 1    
    32   15  140 1    
    33   16   17 1    
    34   17   18 1    
    35   17  141 1    
    36   17  142 1    
    37   18   19 1    
    38   18   67 1    
    39   18  143 1    
    40   19   20 am   BACKBONE|DICT|INTERRES
    41   19  144 1    
    42   20   21 2    
    43   20   22 1    
    44   22   23 1    
    45   22   24 1    
    46   22  145 1    
    47   23  146 1    
    48   23  147 1    
    49   23  148 1    
    50   24   25 am   BACKBONE|DICT|INTERRES
    51   24  149 1    
    52   25   26 2    
    53   25   27 1    
    54   27   28 1    
    55   27   29 1    
    56   27  150 1    
    57   28  151 1    
    58   28  152 1    
    59   28  153 1    
    60   29   30 am   BACKBONE|DICT|INTERRES
    61   29  154 1    
    62   30   31 2    
    63   30   32 1    
    64   32   33 1    
    65   32   34 1    
    66   32  155 1    
    67   33  156 1    
    68   33  157 1    
    69   33  158 1    
    70   34   35 am   BACKBONE|DICT|INTERRES
    71   34  159 1    
    72   35   36 2    
    73   35   37 1    
    74   37   38 1    
    75   37   39 1    
    76   37  160 1    
    77   38  161 1    
    78   38  162 1    
    79   38  163 1    
    80   39   40 am   BACKBONE|DICT|INTERRES
    81   39  164 1    
    82   40   41 2    
    83   40   42 1    
    84   42   43 1    
    85   42   44 1    
    86   42  165 1    
    87   43  166 1    
    88   43  167 1    
    89   43  168 1    
    90   44   45 am   BACKBONE|DICT|INTERRES
    91   44  169 1    
    92   45   46 2    
    93   45   47 1    
    94   47   48 1    
    95   47   49 1    
    96   47  170 1    
    97   48  171 1    
    98   48  172 1    
    99   48  173 1    
   100   49   50 am   BACKBONE|DICT|INTERRES
   101   49  174 1    
   102   50   51 2    
   103   50   52 1    
   104   52   53 1    
   105   52   54 1    
   106   52  175 1    
   107   53  176 1    
   108   53  177 1    
   109   53  178 1    
   110   54   55 am   BACKBONE|DICT|INTERRES
   111   54  179 1    
   112   55   56 2    
   113   55   57 1    
   114   57   58 1    
   115   57   59 1    
   116   57  180 1    
   117   58  181 1    
   118   58  182 1    
   119   58  183 1    
   120   59   60 am   BACKBONE|DICT|INTERRES
   121   59  184 1    
   122   60   61 2    
   123   60   62 1    
   124   62   63 1    
   125   62   64 1    
   126   62  185 1    
   127   63  186 1    
   128   63  187 1    
   129   63  188 1    
   130   64   65 am   BACKBONE|DICT|INTERRES
   131   64  189 1    
   132   65   66 2    
   133   67   68 2    
   134   67   69 am   BACKBONE|DICT|INTERRES
   135   69   70 1    
   136   69  190 1    
   137   70   71 1    
   138   70   72 1    
   139   70  191 1    
   140   71  192 1    
   141   71  193 1    
   142   71  194 1    
   143   72   73 2    
   144   72   74 am   BACKBONE|DICT|INTERRES
   145   74   75 1    
   146   74  195 1    
   147   75   76 1    
   148   75   77 1    
   149   75  196 1    
   150   76  197 1    
   151   76  198 1    
   152   76  199 1    
   153   77   78 2    
   154   77   79 am   BACKBONE|DICT|INTERRES
   155   79   80 1    
   156   79  200 1    
   157   80   81 1    
   158   80   82 1    
   159   80  201 1    
   160   81  202 1    
   161   81  203 1    
   162   81  204 1    
   163   82   83 2    
   164   82   84 am   BACKBONE|DICT|INTERRES
   165   84   85 1    
   166   84  205 1    
   167   85   86 1    
   168   85   87 1    
   169   85  206 1    
   170   86  207 1    
   171   86  208 1    
   172   86  209 1    
   173   87   88 2    
   174   87   89 am   BACKBONE|DICT|INTERRES
   175   89   90 1    
   176   89  210 1    
   177   90   91 1    
   178   90   92 1    
   179   90  211 1    
   180   91  212 1    
   181   91  213 1    
   182   91  214 1    
   183   92   93 2    
   184   92   94 am   BACKBONE|DICT|INTERRES
   185   94   95 1    
   186   94  215 1    
   187   95   96 1    
   188   95   97 1    
   189   95  216 1    
   190   96  217 1    
   191   96  218 1    
   192   96  219 1    
   193   97   98 2    
   194   97   99 am   BACKBONE|DICT|INTERRES
   195   99  100 1    
   196   99  220 1    
   197  100  101 1    
   198  100  102 1    
   199  100  221 1    
   200  101  222 1    
   201  101  223 1    
   202  101  224 1    
   203  102  103 2    
   204  102  104 am   BACKBONE|DICT|INTERRES
   205  104  105 1    
   206  104  225 1    
   207  105  106 1    
   208  105  107 1    
   209  105  226 1    
   210  106  227 1    
   211  106  228 1    
   212  106  229 1    
   213  107  108 2    
   214  107  109 am   BACKBONE|DICT|INTERRES
   215  109  110 1    
   216  109  230 1    
   217  110  111 1    
   218  110  112 1    
   219  110  231 1    
   220  111  232 1    
   221  111  233 1    
   222  111  234 1    
   223  112  113 2    
   224  112  114 am   BACKBONE|DICT|INTERRES
   225  114  115 1    
   226  114  235 1    
   227  115  116 1    
   228  115  117 1    
   229  115  236 1    
   230  116  237 1    
   231  116  238 1    
   232  116  239 1    
   233  117  118 2    
   234  117  119 am   BACKBONE|DICT|INTERRES
   235  119  120 1    
   236  119  240 1    
   237  120  121 1    
   238  120  124 1    
   239  120  241 1    
   240  121  122 am   BACKBONE|DICT|INTERRES
   241  121  123 2    
   242  122  242 1    
   243  122  243 1    
   244  124  125 1    
   245  124  244 1    
   246  124  245 1    
   247  125  126 1    
   248  126  246 1    
   249  126  247 1    
@<TRIPOS>SUBSTRUCTURE
     1 UNK         1 GROUP             0       ****    0 ROOT    
