@<TRIPOS>MOLECULE
3R540
247   249    1
SMALL
USER_CHARGES


@<TRIPOS>ATOM
      1 CA          3.6588  -12.3054  -50.0948 C.3       0 UNK        -0.1800 
      2 C           3.3328  -12.7224  -48.6686 C.2       0 UNK         0.5000 
      3 O           3.9393  -13.6584  -48.1471 O.2       0 UNK        -0.5000 
      4 N           2.3838  -12.0303  -48.0269 N.am      1 UNK        -0.5000 
      5 CA          1.8652  -12.3266  -46.6852 C.3       1 UNK         0.1400 
      6 C6          0.4151  -11.8082  -46.4820 C.3       23 UNK        -0.0398 
      7 S7         -0.7388  -12.2097  -47.8368 S.3       23 UNK        -0.2404 
      8 C8         -0.9417  -14.0078  -47.6574 C.3       23 UNK        -0.0205 
      9 C9         -0.5347  -14.7194  -48.9366 C.ar      23 UNK        -0.0193 
     10 C10        -1.4285  -14.7822  -50.0095 C.ar      23 UNK        -0.1150 
     11 C11        -1.0596  -15.3889  -51.2130 C.ar      23 UNK        -0.0193 
     12 C12         0.2179  -15.9476  -51.3293 C.ar      23 UNK        -0.1150 
     13 C13         1.1151  -15.9097  -50.2579 C.ar      23 UNK        -0.0193 
     14 C14         0.7345  -15.2910  -49.0633 C.ar      23 UNK        -0.1150 
     15 C15         2.5033  -16.5172  -50.4080 C.3       23 UNK        -0.0205 
     16 S16         2.7799  -17.9344  -49.2988 S.3       23 UNK        -0.2404 
     17 C17         1.3505  -19.0081  -49.6707 C.3       23 UNK        -0.0398 
     18 CA          1.6197  -20.4864  -49.2993 C.3       11 UNK         0.1400 
     19 N           1.7867  -20.6957  -47.8598 N.am      11 UNK        -0.5000 
     20 C           2.2935  -21.8053  -47.3050 C.2       10 UNK         0.5000 
     21 O           2.7018  -22.7704  -47.9524 O.2       10 UNK        -0.5000 
     22 CA          2.3486  -21.8560  -45.7664 C.3       10 UNK         0.1400 
     23 CB          3.6155  -21.1634  -45.2417 C.3       10 UNK        -0.1800 
     24 N           1.1722  -21.2680  -45.1267 N.am      10 UNK        -0.5000 
     25 C          -0.0730  -21.7503  -45.2373 C.2       9 UNK         0.5000 
     26 O          -0.3774  -22.7512  -45.8866 O.2       9 UNK        -0.5000 
     27 CA         -1.1806  -20.9511  -44.5364 C.3       9 UNK         0.1400 
     28 CB         -1.1503  -21.1709  -43.0170 C.3       9 UNK        -0.1800 
     29 N          -1.1293  -19.5220  -44.8365 N.am      9 UNK        -0.5000 
     30 C          -1.2071  -18.9776  -46.0608 C.2       8 UNK         0.5000 
     31 O          -1.3802  -19.6220  -47.0976 O.2       8 UNK        -0.5000 
     32 CA         -1.0002  -17.4536  -46.1377 C.3       8 UNK         0.1400 
     33 CB         -2.2725  -16.7204  -45.6833 C.3       8 UNK        -0.1800 
     34 N           0.1493  -16.9997  -45.3465 N.am      8 UNK        -0.5000 
     35 C           1.3988  -17.4689  -45.4911 C.2       7 UNK         0.5000 
     36 O           1.7178  -18.3204  -46.3147 O.2       7 UNK        -0.5000 
     37 CA          2.4586  -16.9681  -44.5021 C.3       7 UNK         0.1400 
     38 CB          2.9710  -15.5738  -44.8852 C.3       7 UNK        -0.1800 
     39 N           1.9511  -16.9793  -43.1318 N.am      7 UNK        -0.5000 
     40 C           1.7132  -18.1039  -42.4403 C.2       6 UNK         0.5000 
     41 O           1.9916  -19.2317  -42.8495 O.2       6 UNK        -0.5000 
     42 CA          0.9902  -17.9434  -41.0919 C.3       6 UNK         0.1400 
     43 CB          1.9928  -17.7074  -39.9534 C.3       6 UNK        -0.1800 
     44 N           0.0027  -16.8616  -41.1248 N.am      6 UNK        -0.5000 
     45 C          -1.1509  -16.9380  -41.8059 C.2       5 UNK         0.5000 
     46 O          -1.4959  -17.9333  -42.4413 O.2       5 UNK        -0.5000 
     47 CA         -2.0616  -15.6964  -41.8148 C.3       5 UNK         0.1400 
     48 CB         -3.0821  -15.7724  -40.6699 C.3       5 UNK        -0.1800 
     49 N          -1.3366  -14.4295  -41.7283 N.am      5 UNK        -0.5000 
     50 C          -0.4682  -13.9690  -42.6378 C.2       4 UNK         0.5000 
     51 O          -0.1703  -14.5796  -43.6674 O.2       4 UNK        -0.5000 
     52 CA          0.2101  -12.6144  -42.3404 C.3       4 UNK         0.1400 
     53 CB         -0.3110  -11.9055  -41.0697 C.3       4 UNK        -0.1800 
     54 N           1.6691  -12.7366  -42.2858 N.am      4 UNK        -0.5000 
     55 C           2.3832  -13.5542  -41.4951 C.2       3 UNK         0.5000 
     56 O           1.8725  -14.3484  -40.7039 O.2       3 UNK        -0.5000 
     57 CA          3.9174  -13.4894  -41.6312 C.3       3 UNK         0.1400 
     58 CB          4.5955  -14.8313  -41.2991 C.3       3 UNK        -0.1800 
     59 N           4.2973  -13.0832  -42.9842 N.am      3 UNK        -0.5000 
     60 C           5.0349  -12.0156  -43.3063 C.2       2 UNK         0.5000 
     61 O           5.5536  -11.2617  -42.4823 O.2       2 UNK        -0.5000 
     62 CA          5.2051  -11.7287  -44.8122 C.3       2 UNK         0.1400 
     63 CB          6.5167  -12.3399  -45.3275 C.3       2 UNK        -0.1800 
     64 N           4.1022  -12.1983  -45.6610 N.am      2 UNK        -0.5000 
     65 C           2.8197  -11.8188  -45.5766 C.2       1 UNK         0.5000 
     66 O           2.3923  -11.0953  -44.6753 O.2       1 UNK        -0.5000 
     67 C           0.5416  -21.4117  -49.8972 C.2       11 UNK         0.5000 
     68 O           0.7892  -21.9884  -50.9578 O.2       11 UNK        -0.5000 
     69 N          -0.6120  -21.5587  -49.2250 N.am      12 UNK        -0.5000 
     70 CA         -1.7012  -22.4192  -49.6975 C.3       12 UNK         0.1400 
     71 CB         -2.3763  -21.8050  -50.9384 C.3       12 UNK        -0.1800 
     72 C          -2.7795  -22.7249  -48.6483 C.2       12 UNK         0.5000 
     73 O          -3.3252  -23.8287  -48.6733 O.2       12 UNK        -0.5000 
     74 N          -3.1140  -21.7599  -47.7774 N.am      13 UNK        -0.5000 
     75 CA         -4.3532  -21.7707  -46.9876 C.3       13 UNK         0.1400 
     76 CB         -4.5945  -20.3957  -46.3435 C.3       13 UNK        -0.1800 
     77 C          -4.4933  -22.9180  -45.9669 C.2       13 UNK         0.5000 
     78 O          -5.6164  -23.2074  -45.5528 O.2       13 UNK        -0.5000 
     79 N          -3.3891  -23.6009  -45.6272 N.am      14 UNK        -0.5000 
     80 CA         -3.3909  -24.8366  -44.8368 C.3       14 UNK         0.1400 
     81 CB         -1.9475  -25.2041  -44.4628 C.3       14 UNK        -0.1800 
     82 C          -4.0776  -26.0202  -45.5528 C.2       14 UNK         0.5000 
     83 O          -4.5464  -26.9393  -44.8807 O.2       14 UNK        -0.5000 
     84 N          -4.1459  -25.9656  -46.8895 N.am      15 UNK        -0.5000 
     85 CA         -4.8537  -26.9096  -47.7526 C.3       15 UNK         0.1400 
     86 CB         -3.8285  -27.6393  -48.6380 C.3       15 UNK        -0.1800 
     87 C          -5.9345  -26.1806  -48.5773 C.2       15 UNK         0.5000 
     88 O          -6.2675  -26.6267  -49.6777 O.2       15 UNK        -0.5000 
     89 N          -6.4608  -25.0720  -48.0304 N.am      16 UNK        -0.5000 
     90 CA         -7.4585  -24.1653  -48.6043 C.3       16 UNK         0.1400 
     91 CB         -8.8334  -24.8587  -48.7201 C.3       16 UNK        -0.1800 
     92 C          -6.9748  -23.5349  -49.9244 C.2       16 UNK         0.5000 
     93 O          -6.3182  -22.4939  -49.8960 O.2       16 UNK        -0.5000 
     94 N          -7.3036  -24.1681  -51.0554 N.am      17 UNK        -0.5000 
     95 CA         -6.8210  -23.7797  -52.3773 C.3       17 UNK         0.1400 
     96 CB         -7.7592  -24.3576  -53.4473 C.3       17 UNK        -0.1800 
     97 C          -5.3760  -24.2434  -52.6310 C.2       17 UNK         0.5000 
     98 O          -4.6429  -23.5556  -53.3393 O.2       17 UNK        -0.5000 
     99 N          -4.9992  -25.4075  -52.0772 N.am      18 UNK        -0.5000 
    100 CA        -3.7822  -26.1688  -52.3783 C.3       18 UNK         0.1400 
    101 CB        -2.5223  -25.4458  -51.8532 C.3       18 UNK        -0.1800 
    102 C         -3.7161  -26.5122  -53.8816 C.2       18 UNK         0.5000 
    103 O         -4.3418  -27.4838  -54.3082 O.2       18 UNK        -0.5000 
    104 N         -3.0079  -25.6827  -54.6543 N.am      19 UNK        -0.5000 
    105 CA        -2.9670  -25.6977  -56.1139 C.3       19 UNK         0.1400 
    106 CB        -1.8498  -26.6446  -56.5935 C.3       19 UNK        -0.1800 
    107 C         -2.8191  -24.2606  -56.6548 C.2       19 UNK         0.5000 
    108 O         -2.1732  -24.0589  -57.6849 O.2       19 UNK        -0.5000 
    109 N         -3.3893  -23.2795  -55.9421 N.am      20 UNK        -0.5000 
    110 CA        -3.2904  -21.8520  -56.2353 C.3       20 UNK         0.1400 
    111 CB        -2.1809  -21.2511  -55.3502 C.3       20 UNK        -0.1800 
    112 C         -4.6366  -21.1528  -55.9800 C.2       20 UNK         0.5000 
    113 O         -5.5840  -21.7690  -55.4880 O.2       20 UNK        -0.5000 
    114 N         -4.6912  -19.8532  -56.2955 N.am      21 UNK        -0.5000 
    115 CA        -5.8158  -18.9736  -55.9611 C.3       21 UNK         0.1400 
    116 CB        -5.7632  -17.7359  -56.8706 C.3       21 UNK        -0.1800 
    117 C         -5.8197  -18.5496  -54.4763 C.2       21 UNK         0.5000 
    118 O         -6.8572  -18.1186  -53.9722 O.2       21 UNK        -0.5000 
    119 N         -4.6601  -18.6600  -53.8149 N.am      22 UNK        -0.5000 
    120 CA        -4.4253  -18.2557  -52.4187 C.3       22 UNK         0.1400 
    121 C         -5.0518  -19.1985  -51.3500 C.2       22 UNK         0.5000 
    122 N         -5.4728  -20.4075  -51.6982 N.am      22 UNK        -0.7600 
    123 O         -5.1444  -18.8258  -50.1843 O.2       22 UNK        -0.5000 
    124 C124       -2.9134  -18.0527  -52.1323 C.3       23 UNK        -0.0398 
    125 S125       -2.0936  -16.9402  -53.3248 S.3       23 UNK        -0.2404 
    126 C126       -2.0295  -15.3752  -52.3919 C.3       23 UNK        -0.0205 
    127 H127        4.7147  -12.0484  -50.1792 H         1 UNK         0.0600 
    128 H128        3.0711  -11.4425  -50.4088 H         1 UNK         0.0600 
    129 H129        3.4496  -13.1268  -50.7802 H         1 UNK         0.0600 
    130 H130        1.9294  -11.2634  -48.5020 H         1 UNK         0.3000 
    131 H131        1.8281  -13.4115  -46.5807 H         1 UNK         0.0600 
    132 H132        0.4108  -10.7215  -46.3793 H         1 UNK         0.0800 
    133 H133       -0.0013  -12.2024  -45.5543 H         1 UNK         0.0800 
    134 H134       -0.3679  -14.3835  -46.8093 H         1 UNK         0.0800 
    135 H135       -1.9892  -14.2186  -47.4392 H         1 UNK         0.0800 
    136 H136       -2.4050  -14.3283  -49.9134 H         1 UNK         0.1150 
    137 H137        0.5178  -16.4058  -52.2610 H         1 UNK         0.1150 
    138 H138        1.4325  -15.2502  -48.2389 H         1 UNK         0.1150 
    139 H139        2.6793  -16.8360  -51.4365 H         1 UNK         0.0800 
    140 H140        3.2508  -15.7527  -50.1921 H         1 UNK         0.0800 
    141 H141        1.1286  -18.9163  -50.7358 H         1 UNK         0.0800 
    142 H142        0.4769  -18.6283  -49.1375 H         1 UNK         0.0800 
    143 H143        2.5631  -20.7692  -49.7720 H         1 UNK         0.0600 
    144 H144        1.5590  -19.9061  -47.2587 H         1 UNK         0.3000 
    145 H145        2.3920  -22.9070  -45.4731 H         1 UNK         0.0600 
    146 H146        4.5119  -21.6075  -45.6762 H         1 UNK         0.0600 
    147 H147        3.6243  -20.1008  -45.4857 H         1 UNK         0.0600 
    148 H148        3.6969  -21.2576  -44.1587 H         1 UNK         0.0600 
    149 H149        1.3279  -20.4334  -44.5735 H         1 UNK         0.3000 
    150 H150       -2.1308  -21.3311  -44.9012 H         1 UNK         0.0600 
    151 H151       -1.1928  -22.2326  -42.7726 H         1 UNK         0.0600 
    152 H152       -2.0034  -20.6937  -42.5346 H         1 UNK         0.0600 
    153 H153       -0.2437  -20.7665  -42.5673 H         1 UNK         0.0600 
    154 H154       -1.0392  -18.9010  -44.0369 H         1 UNK         0.3000 
    155 H155       -0.8008  -17.1914  -47.1784 H         1 UNK         0.0600 
    156 H156       -2.6381  -17.0948  -44.7276 H         1 UNK         0.0600 
    157 H157       -2.1076  -15.6500  -45.5710 H         1 UNK         0.0600 
    158 H158       -3.0740  -16.8567  -46.4102 H         1 UNK         0.0600 
    159 H159       -0.0240  -16.2793  -44.6523 H         1 UNK         0.3000 
    160 H160        3.3059  -17.6552  -44.5607 H         1 UNK         0.0600 
    161 H161        2.2488  -14.7950  -44.6454 H         1 UNK         0.0600 
    162 H162        3.1827  -15.5135  -45.9542 H         1 UNK         0.0600 
    163 H163        3.9035  -15.3579  -44.3676 H         1 UNK         0.0600 
    164 H164        1.6319  -16.1024  -42.7459 H         1 UNK         0.3000 
    165 H165        0.4648  -18.8783  -40.8844 H         1 UNK         0.0600 
    166 H166        1.4857  -17.6175  -38.9927 H         1 UNK         0.0600 
    167 H167        2.6933  -18.5397  -39.8752 H         1 UNK         0.0600 
    168 H168        2.5793  -16.8030  -40.1092 H         1 UNK         0.0600 
    169 H169        0.2550  -15.9942  -40.6673 H         1 UNK         0.3000 
    170 H170       -2.6100  -15.6976  -42.7583 H         1 UNK         0.0600 
    171 H171       -3.6591  -16.6969  -40.7220 H         1 UNK         0.0600 
    172 H172       -2.5955  -15.7436  -39.6942 H         1 UNK         0.0600 
    173 H173       -3.7913  -14.9458  -40.7172 H         1 UNK         0.0600 
    174 H174       -1.4999  -13.8741  -40.9012 H         1 UNK         0.3000 
    175 H175       -0.0155  -11.9685  -43.1890 H         1 UNK         0.0600 
    176 H176       -0.1128  -12.4800  -40.1640 H         1 UNK         0.0600 
    177 H177        0.1649  -10.9323  -40.9488 H         1 UNK         0.0600 
    178 H178       -1.3855  -11.7267  -41.1275 H         1 UNK         0.0600 
    179 H179        2.1696  -12.1304  -42.9271 H         1 UNK         0.3000 
    180 H180        4.2565  -12.7502  -40.9031 H         1 UNK         0.0600 
    181 H181        4.2335  -15.6386  -41.9355 H         1 UNK         0.0600 
    182 H182        4.4091  -15.1185  -40.2637 H         1 UNK         0.0600 
    183 H183        5.6764  -14.7663  -41.4239 H         1 UNK         0.0600 
    184 H184        3.9143  -13.6319  -43.7394 H         1 UNK         0.3000 
    185 H185        5.2649  -10.6448  -44.9281 H         1 UNK         0.0600 
    186 H186        7.3686  -11.9933  -44.7409 H         1 UNK         0.0600 
    187 H187        6.5002  -13.4292  -45.2724 H         1 UNK         0.0600 
    188 H188        6.7022  -12.0594  -46.3646 H         1 UNK         0.0600 
    189 H189        4.3527  -12.7940  -46.4454 H         1 UNK         0.3000 
    190 H190       -0.7465  -21.0670  -48.3469 H         1 UNK         0.3000 
    191 H191       -1.2680  -23.3809  -49.9796 H         1 UNK         0.0600 
    192 H192       -2.7081  -20.7902  -50.7282 H         1 UNK         0.0600 
    193 H193       -3.2543  -22.3789  -51.2373 H         1 UNK         0.0600 
    194 H194       -1.7089  -21.7734  -51.7987 H         1 UNK         0.0600 
    195 H195       -2.5861  -20.8921  -47.7614 H         1 UNK         0.3000 
    196 H196       -5.1632  -21.9167  -47.7017 H         1 UNK         0.0600 
    197 H197       -3.8814  -20.1690  -45.5551 H         1 UNK         0.0600 
    198 H198       -5.5883  -20.3500  -45.8966 H         1 UNK         0.0600 
    199 H199       -4.5398  -19.5986  -47.0856 H         1 UNK         0.0600 
    200 H200       -2.5007  -23.3237  -46.0284 H         1 UNK         0.3000 
    201 H201       -3.9440  -24.6463  -43.9148 H         1 UNK         0.0600 
    202 H202       -1.4793  -24.4171  -43.8727 H         1 UNK         0.0600 
    203 H203       -1.3336  -25.3704  -45.3490 H         1 UNK         0.0600 
    204 H204       -1.9170  -26.1164  -43.8657 H         1 UNK         0.0600 
    205 H205       -3.7499  -25.1609  -47.3717 H         1 UNK         0.3000 
    206 H206       -5.3786  -27.6572  -47.1551 H         1 UNK         0.0600 
    207 H207       -4.3115  -28.3725  -49.2849 H         1 UNK         0.0600 
    208 H208       -3.2847  -26.9419  -49.2738 H         1 UNK         0.0600 
    209 H209       -3.0986  -28.1752  -48.0313 H         1 UNK         0.0600 
    210 H210       -6.0978  -24.7848  -47.1306 H         1 UNK         0.3000 
    211 H211       -7.5682  -23.3435  -47.8949 H         1 UNK         0.0600 
    212 H212       -8.8028  -25.7521  -49.3440 H         1 UNK         0.0600 
    213 H213       -9.5760  -24.1835  -49.1472 H         1 UNK         0.0600 
    214 H214       -9.1989  -25.1585  -47.7379 H         1 UNK         0.0600 
    215 H215       -7.8140  -25.0370  -50.9877 H         1 UNK         0.3000 
    216 H216       -6.8484  -22.6924  -52.4646 H         1 UNK         0.0600 
    217 H217       -7.7833  -25.4477  -53.4184 H         1 UNK         0.0600 
    218 H218       -7.4354  -24.0618  -54.4464 H         1 UNK         0.0600 
    219 H219       -8.7784  -23.9941  -53.3159 H         1 UNK         0.0600 
    220 H220       -5.6523  -25.8723  -51.4547 H         1 UNK         0.3000 
    221 H221       -3.8674  -27.1153  -51.8426 H         1 UNK         0.0600 
    222 H222       -2.3792  -24.4635  -52.3023 H         1 UNK         0.0600 
    223 H223       -2.5804  -25.3043  -50.7759 H         1 UNK         0.0600 
    224 H224       -1.6251  -26.0328  -52.0524 H         1 UNK         0.0600 
    225 H225       -2.5703  -24.8839  -54.2154 H         1 UNK         0.3000 
    226 H226       -3.9209  -26.0675  -56.4957 H         1 UNK         0.0600 
    227 H227       -1.9984  -27.6555  -56.2138 H         1 UNK         0.0600 
    228 H228       -1.8286  -26.7102  -57.6819 H         1 UNK         0.0600 
    229 H229       -0.8684  -26.3032  -56.2627 H         1 UNK         0.0600 
    230 H230       -3.9607  -23.5000  -55.1277 H         1 UNK         0.3000 
    231 H231       -3.0389  -21.6980  -57.2866 H         1 UNK         0.0600 
    232 H232       -2.0232  -20.1935  -55.5635 H         1 UNK         0.0600 
    233 H233       -1.2288  -21.7549  -55.5177 H         1 UNK         0.0600 
    234 H234       -2.4228  -21.3428  -54.2902 H         1 UNK         0.0600 
    235 H235       -3.8887  -19.4141  -56.7237 H         1 UNK         0.3000 
    236 H236       -6.7514  -19.5017  -56.1576 H         1 UNK         0.0600 
    237 H237       -5.8136  -18.0169  -57.9227 H         1 UNK         0.0600 
    238 H238       -6.6042  -17.0699  -56.6729 H         1 UNK         0.0600 
    239 H239       -4.8479  -17.1625  -56.7181 H         1 UNK         0.0600 
    240 H240       -3.8560  -19.0062  -54.3140 H         1 UNK         0.3000 
    241 H241       -4.9117  -17.2880  -52.2815 H         1 UNK         0.0600 
    242 H242       -5.3921  -20.7242  -52.6509 H         1 UNK         0.3800 
    243 H243       -5.8350  -21.0338  -50.9838 H         1 UNK         0.3800 
    244 H244       -2.7592  -17.6747  -51.1199 H         1 UNK         0.0800 
    245 H245       -2.3901  -19.0081  -52.1795 H         1 UNK         0.0800 
    246 H246       -3.0389  -15.1270  -52.0599 H         1 UNK         0.0800 
    247 H247       -1.7261  -14.5793  -53.0729 H         1 UNK         0.0800 
@<TRIPOS>BOND
     1    1    2 1    
     2    1  127 1    
     3    1  128 1    
     4    1  129 1    
     5    2    3 2    
     6    2    4 am   BACKBONE|DICT|INTERRES
     7    4    5 1    
     8    4  130 1    
     9    5    6 1    
    10    5   65 1    
    11    5  131 1    
    12    6    7 1    
    13    6  132 1    
    14    6  133 1    
    15    7    8 1    
    16    8    9 1    
    17    8  134 1    
    18    8  135 1    
    19    9   10 ar   
    20    9   14 ar   
    21   10   11 ar   
    22   10  136 1    
    23   11   12 ar   
    24   11  126 1    
    25   12   13 ar   
    26   12  137 1    
    27   13   14 ar   
    28   13   15 1    
    29   14  138 1    
    30   15   16 1    
    31   15  139 1    
    32   15  140 1    
    33   16   17 1    
    34   17   18 1    
    35   17  141 1    
    36   17  142 1    
    37   18   19 1    
    38   18   67 1    
    39   18  143 1    
    40   19   20 am   BACKBONE|DICT|INTERRES
    41   19  144 1    
    42   20   21 2    
    43   20   22 1    
    44   22   23 1    
    45   22   24 1    
    46   22  145 1    
    47   23  146 1    
    48   23  147 1    
    49   23  148 1    
    50   24   25 am   BACKBONE|DICT|INTERRES
    51   24  149 1    
    52   25   26 2    
    53   25   27 1    
    54   27   28 1    
    55   27   29 1    
    56   27  150 1    
    57   28  151 1    
    58   28  152 1    
    59   28  153 1    
    60   29   30 am   BACKBONE|DICT|INTERRES
    61   29  154 1    
    62   30   31 2    
    63   30   32 1    
    64   32   33 1    
    65   32   34 1    
    66   32  155 1    
    67   33  156 1    
    68   33  157 1    
    69   33  158 1    
    70   34   35 am   BACKBONE|DICT|INTERRES
    71   34  159 1    
    72   35   36 2    
    73   35   37 1    
    74   37   38 1    
    75   37   39 1    
    76   37  160 1    
    77   38  161 1    
    78   38  162 1    
    79   38  163 1    
    80   39   40 am   BACKBONE|DICT|INTERRES
    81   39  164 1    
    82   40   41 2    
    83   40   42 1    
    84   42   43 1    
    85   42   44 1    
    86   42  165 1    
    87   43  166 1    
    88   43  167 1    
    89   43  168 1    
    90   44   45 am   BACKBONE|DICT|INTERRES
    91   44  169 1    
    92   45   46 2    
    93   45   47 1    
    94   47   48 1    
    95   47   49 1    
    96   47  170 1    
    97   48  171 1    
    98   48  172 1    
    99   48  173 1    
   100   49   50 am   BACKBONE|DICT|INTERRES
   101   49  174 1    
   102   50   51 2    
   103   50   52 1    
   104   52   53 1    
   105   52   54 1    
   106   52  175 1    
   107   53  176 1    
   108   53  177 1    
   109   53  178 1    
   110   54   55 am   BACKBONE|DICT|INTERRES
   111   54  179 1    
   112   55   56 2    
   113   55   57 1    
   114   57   58 1    
   115   57   59 1    
   116   57  180 1    
   117   58  181 1    
   118   58  182 1    
   119   58  183 1    
   120   59   60 am   BACKBONE|DICT|INTERRES
   121   59  184 1    
   122   60   61 2    
   123   60   62 1    
   124   62   63 1    
   125   62   64 1    
   126   62  185 1    
   127   63  186 1    
   128   63  187 1    
   129   63  188 1    
   130   64   65 am   BACKBONE|DICT|INTERRES
   131   64  189 1    
   132   65   66 2    
   133   67   68 2    
   134   67   69 am   BACKBONE|DICT|INTERRES
   135   69   70 1    
   136   69  190 1    
   137   70   71 1    
   138   70   72 1    
   139   70  191 1    
   140   71  192 1    
   141   71  193 1    
   142   71  194 1    
   143   72   73 2    
   144   72   74 am   BACKBONE|DICT|INTERRES
   145   74   75 1    
   146   74  195 1    
   147   75   76 1    
   148   75   77 1    
   149   75  196 1    
   150   76  197 1    
   151   76  198 1    
   152   76  199 1    
   153   77   78 2    
   154   77   79 am   BACKBONE|DICT|INTERRES
   155   79   80 1    
   156   79  200 1    
   157   80   81 1    
   158   80   82 1    
   159   80  201 1    
   160   81  202 1    
   161   81  203 1    
   162   81  204 1    
   163   82   83 2    
   164   82   84 am   BACKBONE|DICT|INTERRES
   165   84   85 1    
   166   84  205 1    
   167   85   86 1    
   168   85   87 1    
   169   85  206 1    
   170   86  207 1    
   171   86  208 1    
   172   86  209 1    
   173   87   88 2    
   174   87   89 am   BACKBONE|DICT|INTERRES
   175   89   90 1    
   176   89  210 1    
   177   90   91 1    
   178   90   92 1    
   179   90  211 1    
   180   91  212 1    
   181   91  213 1    
   182   91  214 1    
   183   92   93 2    
   184   92   94 am   BACKBONE|DICT|INTERRES
   185   94   95 1    
   186   94  215 1    
   187   95   96 1    
   188   95   97 1    
   189   95  216 1    
   190   96  217 1    
   191   96  218 1    
   192   96  219 1    
   193   97   98 2    
   194   97   99 am   BACKBONE|DICT|INTERRES
   195   99  100 1    
   196   99  220 1    
   197  100  101 1    
   198  100  102 1    
   199  100  221 1    
   200  101  222 1    
   201  101  223 1    
   202  101  224 1    
   203  102  103 2    
   204  102  104 am   BACKBONE|DICT|INTERRES
   205  104  105 1    
   206  104  225 1    
   207  105  106 1    
   208  105  107 1    
   209  105  226 1    
   210  106  227 1    
   211  106  228 1    
   212  106  229 1    
   213  107  108 2    
   214  107  109 am   BACKBONE|DICT|INTERRES
   215  109  110 1    
   216  109  230 1    
   217  110  111 1    
   218  110  112 1    
   219  110  231 1    
   220  111  232 1    
   221  111  233 1    
   222  111  234 1    
   223  112  113 2    
   224  112  114 am   BACKBONE|DICT|INTERRES
   225  114  115 1    
   226  114  235 1    
   227  115  116 1    
   228  115  117 1    
   229  115  236 1    
   230  116  237 1    
   231  116  238 1    
   232  116  239 1    
   233  117  118 2    
   234  117  119 am   BACKBONE|DICT|INTERRES
   235  119  120 1    
   236  119  240 1    
   237  120  121 1    
   238  120  124 1    
   239  120  241 1    
   240  121  122 am   BACKBONE|DICT|INTERRES
   241  121  123 2    
   242  122  242 1    
   243  122  243 1    
   244  124  125 1    
   245  124  244 1    
   246  124  245 1    
   247  125  126 1    
   248  126  246 1    
   249  126  247 1    
@<TRIPOS>SUBSTRUCTURE
     1 UNK         1 GROUP             0       ****    0 ROOT    
