@<TRIPOS>MOLECULE
3R540
247   249    1
SMALL
USER_CHARGES


@<TRIPOS>ATOM
      1 CA         -3.1367  -12.4839  -46.9534 C.3       0 UNK        -0.1800 
      2 C          -1.6164  -12.4286  -46.9016 C.2       0 UNK         0.5000 
      3 O          -1.0503  -12.3118  -45.8156 O.2       0 UNK        -0.5000 
      4 N          -0.9628  -12.5205  -48.0682 N.am      1 UNK        -0.5000 
      5 CA          0.4946  -12.5025  -48.2559 C.3       1 UNK         0.1400 
      6 C6          1.2033  -13.7596  -47.6735 C.3       23 UNK        -0.0398 
      7 S7          0.6582  -15.2853  -48.5081 S.3       23 UNK        -0.2404 
      8 C8          2.0809  -15.6112  -49.5895 C.3       23 UNK        -0.0205 
      9 C9          1.7522  -16.6901  -50.6064 C.ar      23 UNK        -0.0193 
     10 C10         1.2371  -16.3377  -51.8583 C.ar      23 UNK        -0.1150 
     11 C11         0.9235  -17.3234  -52.7979 C.ar      23 UNK        -0.0193 
     12 C12         1.1364  -18.6661  -52.4783 C.ar      23 UNK        -0.1150 
     13 C13         1.6534  -19.0307  -51.2330 C.ar      23 UNK        -0.0193 
     14 C14         1.9581  -18.0382  -50.2970 C.ar      23 UNK        -0.1150 
     15 C15         1.8791  -20.4994  -50.9150 C.3       23 UNK        -0.0205 
     16 S16         0.3054  -21.3543  -50.6043 S.3       23 UNK        -0.2404 
     17 C17        -0.0652  -20.8589  -48.8877 C.3       23 UNK        -0.0398 
     18 CA         -0.2175  -22.0994  -47.9765 C.3       11 UNK         0.1400 
     19 N           0.0142  -21.7955  -46.5623 N.am      11 UNK        -0.5000 
     20 C           0.1342  -22.7271  -45.6045 C.2       10 UNK         0.5000 
     21 O           0.1037  -23.9379  -45.8207 O.2       10 UNK        -0.5000 
     22 CA          0.2641  -22.2302  -44.1553 C.3       10 UNK         0.1400 
     23 CB          1.7090  -21.8059  -43.8541 C.3       10 UNK        -0.1800 
     24 N          -0.6521  -21.1306  -43.8565 N.am      10 UNK        -0.5000 
     25 C          -1.9893  -21.2269  -43.8861 C.2       9 UNK         0.5000 
     26 O          -2.5942  -22.2751  -44.1106 O.2       9 UNK        -0.5000 
     27 CA         -2.7845  -19.9233  -43.6879 C.3       9 UNK         0.1400 
     28 CB         -2.8845  -19.5633  -42.1989 C.3       9 UNK        -0.1800 
     29 N          -2.2186  -18.7958  -44.4303 N.am      9 UNK        -0.5000 
     30 C          -2.0812  -18.7524  -45.7635 C.2       8 UNK         0.5000 
     31 O          -2.4349  -19.6551  -46.5205 O.2       8 UNK        -0.5000 
     32 CA         -1.3758  -17.5172  -46.3418 C.3       8 UNK         0.1400 
     33 CB         -2.3306  -16.3145  -46.4097 C.3       8 UNK        -0.1800 
     34 N          -0.1878  -17.1723  -45.5633 N.am      8 UNK        -0.5000 
     35 C           0.9353  -17.9038  -45.5433 C.2       7 UNK         0.5000 
     36 O           1.0973  -18.9291  -46.2064 O.2       7 UNK        -0.5000 
     37 CA          2.0440  -17.4352  -44.5825 C.3       7 UNK         0.1400 
     38 CB          2.8750  -16.3090  -45.2151 C.3       7 UNK        -0.1800 
     39 N           1.5168  -16.9837  -43.2933 N.am      7 UNK        -0.5000 
     40 C           0.9059  -17.7826  -42.4051 C.2       6 UNK         0.5000 
     41 O           0.7687  -18.9943  -42.5605 O.2       6 UNK        -0.5000 
     42 CA          0.3007  -17.1148  -41.1555 C.3       6 UNK         0.1400 
     43 CB          1.3369  -17.0543  -40.0236 C.3       6 UNK        -0.1800 
     44 N          -0.2118  -15.7682  -41.4063 N.am      6 UNK        -0.5000 
     45 C          -1.1425  -15.4380  -42.3135 C.2       5 UNK         0.5000 
     46 O          -1.7355  -16.2654  -43.0059 O.2       5 UNK        -0.5000 
     47 CA         -1.4379  -13.9361  -42.5041 C.3       5 UNK         0.1400 
     48 CB         -2.8458  -13.5936  -41.9944 C.3       5 UNK        -0.1800 
     49 N          -0.4636  -13.0555  -41.8481 N.am      5 UNK        -0.5000 
     50 C           0.8100  -12.8966  -42.2321 C.2       4 UNK         0.5000 
     51 O           1.3155  -13.4731  -43.1983 O.2       4 UNK        -0.5000 
     52 CA          1.6770  -12.0094  -41.3310 C.3       4 UNK         0.1400 
     53 CB          2.3551  -12.8533  -40.2354 C.3       4 UNK        -0.1800 
     54 N           2.6838  -11.3332  -42.1392 N.am      4 UNK        -0.5000 
     55 C           3.3206  -10.2070  -41.8033 C.2       3 UNK         0.5000 
     56 O           3.1486   -9.6251  -40.7312 O.2       3 UNK        -0.5000 
     57 CA          4.2915   -9.5996  -42.8359 C.3       3 UNK         0.1400 
     58 CB          5.6537  -10.3208  -42.8227 C.3       3 UNK        -0.1800 
     59 N           3.7366   -9.4920  -44.1932 N.am      3 UNK        -0.5000 
     60 C           3.4417  -10.4719  -45.0563 C.2       2 UNK         0.5000 
     61 O           3.6313  -11.6719  -44.8369 O.2       2 UNK        -0.5000 
     62 CA          2.8212  -10.0346  -46.3892 C.3       2 UNK         0.1400 
     63 CB          3.8945   -9.5211  -47.3651 C.3       2 UNK        -0.1800 
     64 N           2.1408  -11.1869  -46.9631 N.am      2 UNK        -0.5000 
     65 C           1.0945  -11.1525  -47.7934 C.2       1 UNK         0.5000 
     66 O           0.6030  -10.1032  -48.2164 O.2       1 UNK        -0.5000 
     67 C          -1.5716  -22.8050  -48.1977 C.2       11 UNK         0.5000 
     68 O          -1.6148  -23.8302  -48.8765 O.2       11 UNK        -0.5000 
     69 N          -2.6369  -22.2775  -47.5780 N.am      12 UNK        -0.5000 
     70 CA         -3.9836  -22.8488  -47.5970 C.3       12 UNK         0.1400 
     71 CB         -4.9438  -21.9122  -46.8483 C.3       12 UNK        -0.1800 
     72 C          -4.0344  -24.2729  -47.0156 C.2       12 UNK         0.5000 
     73 O          -4.6446  -25.1545  -47.6212 O.2       12 UNK        -0.5000 
     74 N          -3.3504  -24.4830  -45.8818 N.am      13 UNK        -0.5000 
     75 CA         -3.1970  -25.7841  -45.2322 C.3       13 UNK         0.1400 
     76 CB         -2.5457  -25.5983  -43.8536 C.3       13 UNK        -0.1800 
     77 C          -2.4004  -26.7905  -46.0830 C.2       13 UNK         0.5000 
     78 O          -2.8074  -27.9483  -46.1803 O.2       13 UNK        -0.5000 
     79 N          -1.3001  -26.3333  -46.6985 N.am      14 UNK        -0.5000 
     80 CA         -0.4492  -27.1320  -47.5837 C.3       14 UNK         0.1400 
     81 CB          0.8486  -26.3667  -47.8842 C.3       14 UNK        -0.1800 
     82 C          -1.1573  -27.5367  -48.8893 C.2       14 UNK         0.5000 
     83 O          -1.0316  -28.6846  -49.3177 O.2       14 UNK        -0.5000 
     84 N          -1.9037  -26.5969  -49.4848 N.am      15 UNK        -0.5000 
     85 CA         -2.7251  -26.8185  -50.6759 C.3       15 UNK         0.1400 
     86 CB         -3.1290  -25.4568  -51.2654 C.3       15 UNK        -0.1800 
     87 C          -3.9819  -27.6642  -50.3942 C.2       15 UNK         0.5000 
     88 O          -4.5019  -28.2914  -51.3177 O.2       15 UNK        -0.5000 
     89 N          -4.4528  -27.6379  -49.1376 N.am      16 UNK        -0.5000 
     90 CA         -5.7207  -28.1824  -48.6411 C.3       16 UNK         0.1400 
     91 CB         -5.7324  -29.7230  -48.7172 C.3       16 UNK        -0.1800 
     92 C          -6.9280  -27.5199  -49.3384 C.2       16 UNK         0.5000 
     93 O          -7.8871  -28.1983  -49.7123 O.2       16 UNK        -0.5000 
     94 N          -6.8305  -26.1997  -49.5308 N.am      17 UNK        -0.5000 
     95 CA         -7.7497  -25.3713  -50.3035 C.3       17 UNK         0.1400 
     96 CB         -7.5674  -25.6452  -51.8149 C.3       17 UNK        -0.1800 
     97 C          -7.5287  -23.8983  -49.9140 C.2       17 UNK         0.5000 
     98 O          -7.2364  -23.6151  -48.7514 O.2       17 UNK        -0.5000 
     99 N          -7.6736  -22.9817  -50.8779 N.am      18 UNK        -0.5000 
    100 CA        -7.3718  -21.5594  -50.7261 C.3       18 UNK         0.1400 
    101 CB        -8.0417  -20.7909  -51.8772 C.3       18 UNK        -0.1800 
    102 C         -5.8537  -21.2964  -50.7218 C.2       18 UNK         0.5000 
    103 O         -5.0806  -22.1057  -51.2389 O.2       18 UNK        -0.5000 
    104 N         -5.4621  -20.1361  -50.1802 N.am      19 UNK        -0.5000 
    105 CA        -4.0763  -19.6563  -50.1462 C.3       19 UNK         0.1400 
    106 CB        -3.9866  -18.4802  -49.1628 C.3       19 UNK        -0.1800 
    107 C         -3.5400  -19.2205  -51.5247 C.2       19 UNK         0.5000 
    108 O         -2.3265  -19.1268  -51.7012 O.2       19 UNK        -0.5000 
    109 N         -4.4433  -18.9537  -52.4782 N.am      20 UNK        -0.5000 
    110 CA        -4.1682  -18.4716  -53.8337 C.3       20 UNK         0.1400 
    111 CB        -5.4532  -17.8335  -54.3918 C.3       20 UNK        -0.1800 
    112 C         -3.5872  -19.5522  -54.7754 C.2       20 UNK         0.5000 
    113 O         -4.0206  -19.6730  -55.9234 O.2       20 UNK        -0.5000 
    114 N         -2.5855  -20.3006  -54.2949 N.am      21 UNK        -0.5000 
    115 CA        -1.8725  -21.3522  -55.0297 C.3       21 UNK         0.1400 
    116 CB        -0.9682  -22.1175  -54.0525 C.3       21 UNK        -0.1800 
    117 C         -1.0607  -20.8266  -56.2333 C.2       21 UNK         0.5000 
    118 O         -0.7130  -21.6063  -57.1208 O.2       21 UNK        -0.5000 
    119 N         -0.8013  -19.5135  -56.2507 N.am      22 UNK        -0.5000 
    120 CA        -0.2165  -18.7618  -57.3712 C.3       22 UNK         0.1400 
    121 C         -1.1506  -18.6389  -58.6134 C.2       22 UNK         0.5000 
    122 N         -2.4455  -18.9231  -58.5129 N.am      22 UNK        -0.7600 
    123 O         -0.6884  -18.2788  -59.6924 O.2       22 UNK        -0.5000 
    124 C124        0.2671  -17.3543  -56.9279 C.3       23 UNK        -0.0398 
    125 S125        1.4316  -17.4000  -55.5222 S.3       23 UNK        -0.2404 
    126 C126        0.3244  -16.9535  -54.1453 C.3       23 UNK        -0.0205 
    127 H127       -3.5032  -12.6403  -47.9682 H         1 UNK         0.0600 
    128 H128       -3.5588  -11.5520  -46.5775 H         1 UNK         0.0600 
    129 H129       -3.5026  -13.3006  -46.3309 H         1 UNK         0.0600 
    130 H130       -1.4983  -12.5907  -48.9215 H         1 UNK         0.3000 
    131 H131        0.6532  -12.5178  -49.3354 H         1 UNK         0.0600 
    132 H132        2.2873  -13.6890  -47.7751 H         1 UNK         0.0800 
    133 H133        1.0001  -13.8582  -46.6063 H         1 UNK         0.0800 
    134 H134        2.9372  -15.9113  -48.9835 H         1 UNK         0.0800 
    135 H135        2.3693  -14.6933  -50.1041 H         1 UNK         0.0800 
    136 H136        1.0693  -15.2962  -52.0941 H         1 UNK         0.1150 
    137 H137        0.8918  -19.4310  -53.2010 H         1 UNK         0.1150 
    138 H138        2.3494  -18.3122  -49.3271 H         1 UNK         0.1150 
    139 H139        2.5491  -20.6225  -50.0627 H         1 UNK         0.0800 
    140 H140        2.3741  -20.9754  -51.7626 H         1 UNK         0.0800 
    141 H141       -0.9575  -20.2303  -48.8748 H         1 UNK         0.0800 
    142 H142        0.7455  -20.2279  -48.5233 H         1 UNK         0.0800 
    143 H143        0.5625  -22.8123  -48.2542 H         1 UNK         0.0600 
    144 H144        0.0736  -20.8162  -46.3078 H         1 UNK         0.3000 
    145 H145        0.0111  -23.0627  -43.4956 H         1 UNK         0.0600 
    146 H146        1.8327  -21.5523  -42.8013 H         1 UNK         0.0600 
    147 H147        2.4085  -22.6122  -44.0780 H         1 UNK         0.0600 
    148 H148        2.0059  -20.9383  -44.4443 H         1 UNK         0.0600 
    149 H149       -0.2257  -20.2436  -43.6024 H         1 UNK         0.3000 
    150 H150       -3.7951  -20.0891  -44.0660 H         1 UNK         0.0600 
    151 H151       -3.3816  -20.3572  -41.6401 H         1 UNK         0.0600 
    152 H152       -3.4593  -18.6490  -42.0498 H         1 UNK         0.0600 
    153 H153       -1.9007  -19.4179  -41.7542 H         1 UNK         0.0600 
    154 H154       -1.9254  -17.9880  -43.8880 H         1 UNK         0.3000 
    155 H155       -1.0591  -17.7562  -47.3595 H         1 UNK         0.0600 
    156 H156       -2.6906  -16.0183  -45.4249 H         1 UNK         0.0600 
    157 H157       -1.8430  -15.4509  -46.8594 H         1 UNK         0.0600 
    158 H158       -3.2050  -16.5448  -47.0187 H         1 UNK         0.0600 
    159 H159       -0.2652  -16.3795  -44.9437 H         1 UNK         0.3000 
    160 H160        2.7044  -18.2859  -44.4012 H         1 UNK         0.0600 
    161 H161        2.2905  -15.3968  -45.3330 H         1 UNK         0.0600 
    162 H162        3.2414  -16.5964  -46.2016 H         1 UNK         0.0600 
    163 H163        3.7434  -16.0692  -44.6014 H         1 UNK         0.0600 
    164 H164        1.5721  -15.9926  -43.0998 H         1 UNK         0.3000 
    165 H165       -0.5367  -17.7290  -40.8210 H         1 UNK         0.0600 
    166 H166        0.8975  -16.6625  -39.1061 H         1 UNK         0.0600 
    167 H167        1.7260  -18.0480  -39.7973 H         1 UNK         0.0600 
    168 H168        2.1853  -16.4213  -40.2872 H         1 UNK         0.0600 
    169 H169        0.2111  -15.0211  -40.8777 H         1 UNK         0.3000 
    170 H170       -1.4068  -13.7400  -43.5772 H         1 UNK         0.0600 
    171 H171       -3.6005  -14.2077  -42.4879 H         1 UNK         0.0600 
    172 H172       -2.9372  -13.7605  -40.9204 H         1 UNK         0.0600 
    173 H173       -3.0955  -12.5519  -42.1969 H         1 UNK         0.0600 
    174 H174       -0.7944  -12.5574  -41.0339 H         1 UNK         0.3000 
    175 H175        1.0348  -11.2586  -40.8653 H         1 UNK         0.0600 
    176 H176        3.0177  -13.6067  -40.6636 H         1 UNK         0.0600 
    177 H177        2.9473  -12.2318  -39.5637 H         1 UNK         0.0600 
    178 H178        1.6163  -13.3728  -39.6243 H         1 UNK         0.0600 
    179 H179        2.8638  -11.7476  -43.0519 H         1 UNK         0.3000 
    180 H180        4.4739   -8.5714  -42.5192 H         1 UNK         0.0600 
    181 H181        5.5645  -11.3754  -43.0838 H         1 UNK         0.0600 
    182 H182        6.1064  -10.2719  -41.8316 H         1 UNK         0.0600 
    183 H183        6.3511   -9.8592  -43.5217 H         1 UNK         0.0600 
    184 H184        3.5184   -8.5463  -44.4757 H         1 UNK         0.3000 
    185 H185        2.0945   -9.2444  -46.1882 H         1 UNK         0.0600 
    186 H186        4.4228   -8.6612  -46.9518 H         1 UNK         0.0600 
    187 H187        4.6371  -10.2895  -47.5842 H         1 UNK         0.0600 
    188 H188        3.4517   -9.2049  -48.3097 H         1 UNK         0.0600 
    189 H189        2.4629  -12.0672  -46.5801 H         1 UNK         0.3000 
    190 H190       -2.5194  -21.4119  -47.0549 H         1 UNK         0.3000 
    191 H191       -4.3037  -22.9089  -48.6386 H         1 UNK         0.0600 
    192 H192       -4.6346  -21.7588  -45.8149 H         1 UNK         0.0600 
    193 H193       -5.9550  -22.3185  -46.8282 H         1 UNK         0.0600 
    194 H194       -4.9957  -20.9362  -47.3287 H         1 UNK         0.0600 
    195 H195       -2.9107  -23.6907  -45.4218 H         1 UNK         0.3000 
    196 H196       -4.1962  -26.1977  -45.0804 H         1 UNK         0.0600 
    197 H197       -2.4348  -26.5546  -43.3410 H         1 UNK         0.0600 
    198 H198       -3.1520  -24.9552  -43.2155 H         1 UNK         0.0600 
    199 H199       -1.5549  -25.1502  -43.9329 H         1 UNK         0.0600 
    200 H200       -1.0026  -25.3767  -46.5282 H         1 UNK         0.3000 
    201 H201       -0.1841  -28.0490  -47.0535 H         1 UNK         0.0600 
    202 H202        1.4033  -26.1584  -46.9692 H         1 UNK         0.0600 
    203 H203        0.6502  -25.4153  -48.3785 H         1 UNK         0.0600 
    204 H204        1.5031  -26.9464  -48.5362 H         1 UNK         0.0600 
    205 H205       -1.8993  -25.6513  -49.1064 H         1 UNK         0.3000 
    206 H206       -2.1239  -27.3493  -51.4169 H         1 UNK         0.0600 
    207 H207       -2.2528  -24.8631  -51.5272 H         1 UNK         0.0600 
    208 H208       -3.7212  -25.5808  -52.1728 H         1 UNK         0.0600 
    209 H209       -3.7267  -24.8749  -50.5618 H         1 UNK         0.0600 
    210 H210       -3.9684  -27.0381  -48.4811 H         1 UNK         0.3000 
    211 H211       -5.7813  -27.9025  -47.5884 H         1 UNK         0.0600 
    212 H212       -5.7346  -30.0808  -49.7470 H         1 UNK         0.0600 
    213 H213       -6.6185  -30.1297  -48.2287 H         1 UNK         0.0600 
    214 H214       -4.8620  -30.1468  -48.2160 H         1 UNK         0.0600 
    215 H215       -6.0605  -25.7010  -49.0934 H         1 UNK         0.3000 
    216 H216       -8.7720  -25.6256  -50.0176 H         1 UNK         0.0600 
    217 H217       -8.3049  -25.1080  -52.4119 H         1 UNK         0.0600 
    218 H218       -7.6927  -26.7027  -52.0473 H         1 UNK         0.0600 
    219 H219       -6.5745  -25.3501  -52.1576 H         1 UNK         0.0600 
    220 H220       -7.8761  -23.2977  -51.8147 H         1 UNK         0.3000 
    221 H221       -7.7901  -21.2107  -49.7793 H         1 UNK         0.0600 
    222 H222       -7.6428  -21.0899  -52.8476 H         1 UNK         0.0600 
    223 H223       -9.1184  -20.9618  -51.8908 H         1 UNK         0.0600 
    224 H224       -7.8888  -19.7158  -51.7766 H         1 UNK         0.0600 
    225 H225       -6.1567  -19.5215  -49.7800 H         1 UNK         0.3000 
    226 H226       -3.4388  -20.4643  -49.7812 H         1 UNK         0.0600 
    227 H227       -4.3473  -18.7589  -48.1734 H         1 UNK         0.0600 
    228 H228       -2.9536  -18.1483  -49.0510 H         1 UNK         0.0600 
    229 H229       -4.5713  -17.6243  -49.5019 H         1 UNK         0.0600 
    230 H230       -5.4156  -19.0863  -52.2463 H         1 UNK         0.3000 
    231 H231       -3.4148  -17.6843  -53.7637 H         1 UNK         0.0600 
    232 H232       -5.2788  -17.3883  -55.3723 H         1 UNK         0.0600 
    233 H233       -5.8151  -17.0384  -53.7395 H         1 UNK         0.0600 
    234 H234       -6.2517  -18.5686  -54.5006 H         1 UNK         0.0600 
    235 H235       -2.2775  -20.1124  -53.3444 H         1 UNK         0.3000 
    236 H236       -2.6181  -22.0475  -55.4204 H         1 UNK         0.0600 
    237 H237       -1.5414  -22.5294  -53.2212 H         1 UNK         0.0600 
    238 H238       -0.4717  -22.9517  -54.5497 H         1 UNK         0.0600 
    239 H239       -0.1920  -21.4748  -53.6379 H         1 UNK         0.0600 
    240 H240       -1.1187  -18.9666  -55.4672 H         1 UNK         0.3000 
    241 H241        0.6594  -19.3204  -57.7062 H         1 UNK         0.0600 
    242 H242       -2.8547  -19.2202  -57.6351 H         1 UNK         0.3800 
    243 H243       -3.0315  -18.8402  -59.3286 H         1 UNK         0.3800 
    244 H244        0.7784  -16.8572  -57.7542 H         1 UNK         0.0800 
    245 H245       -0.5821  -16.7165  -56.6761 H         1 UNK         0.0800 
    246 H246       -0.6312  -17.4682  -54.2471 H         1 UNK         0.0800 
    247 H247        0.1068  -15.8855  -54.1957 H         1 UNK         0.0800 
@<TRIPOS>BOND
     1    1    2 1    
     2    1  127 1    
     3    1  128 1    
     4    1  129 1    
     5    2    3 2    
     6    2    4 am   BACKBONE|DICT|INTERRES
     7    4    5 1    
     8    4  130 1    
     9    5    6 1    
    10    5   65 1    
    11    5  131 1    
    12    6    7 1    
    13    6  132 1    
    14    6  133 1    
    15    7    8 1    
    16    8    9 1    
    17    8  134 1    
    18    8  135 1    
    19    9   10 ar   
    20    9   14 ar   
    21   10   11 ar   
    22   10  136 1    
    23   11   12 ar   
    24   11  126 1    
    25   12   13 ar   
    26   12  137 1    
    27   13   14 ar   
    28   13   15 1    
    29   14  138 1    
    30   15   16 1    
    31   15  139 1    
    32   15  140 1    
    33   16   17 1    
    34   17   18 1    
    35   17  141 1    
    36   17  142 1    
    37   18   19 1    
    38   18   67 1    
    39   18  143 1    
    40   19   20 am   BACKBONE|DICT|INTERRES
    41   19  144 1    
    42   20   21 2    
    43   20   22 1    
    44   22   23 1    
    45   22   24 1    
    46   22  145 1    
    47   23  146 1    
    48   23  147 1    
    49   23  148 1    
    50   24   25 am   BACKBONE|DICT|INTERRES
    51   24  149 1    
    52   25   26 2    
    53   25   27 1    
    54   27   28 1    
    55   27   29 1    
    56   27  150 1    
    57   28  151 1    
    58   28  152 1    
    59   28  153 1    
    60   29   30 am   BACKBONE|DICT|INTERRES
    61   29  154 1    
    62   30   31 2    
    63   30   32 1    
    64   32   33 1    
    65   32   34 1    
    66   32  155 1    
    67   33  156 1    
    68   33  157 1    
    69   33  158 1    
    70   34   35 am   BACKBONE|DICT|INTERRES
    71   34  159 1    
    72   35   36 2    
    73   35   37 1    
    74   37   38 1    
    75   37   39 1    
    76   37  160 1    
    77   38  161 1    
    78   38  162 1    
    79   38  163 1    
    80   39   40 am   BACKBONE|DICT|INTERRES
    81   39  164 1    
    82   40   41 2    
    83   40   42 1    
    84   42   43 1    
    85   42   44 1    
    86   42  165 1    
    87   43  166 1    
    88   43  167 1    
    89   43  168 1    
    90   44   45 am   BACKBONE|DICT|INTERRES
    91   44  169 1    
    92   45   46 2    
    93   45   47 1    
    94   47   48 1    
    95   47   49 1    
    96   47  170 1    
    97   48  171 1    
    98   48  172 1    
    99   48  173 1    
   100   49   50 am   BACKBONE|DICT|INTERRES
   101   49  174 1    
   102   50   51 2    
   103   50   52 1    
   104   52   53 1    
   105   52   54 1    
   106   52  175 1    
   107   53  176 1    
   108   53  177 1    
   109   53  178 1    
   110   54   55 am   BACKBONE|DICT|INTERRES
   111   54  179 1    
   112   55   56 2    
   113   55   57 1    
   114   57   58 1    
   115   57   59 1    
   116   57  180 1    
   117   58  181 1    
   118   58  182 1    
   119   58  183 1    
   120   59   60 am   BACKBONE|DICT|INTERRES
   121   59  184 1    
   122   60   61 2    
   123   60   62 1    
   124   62   63 1    
   125   62   64 1    
   126   62  185 1    
   127   63  186 1    
   128   63  187 1    
   129   63  188 1    
   130   64   65 am   BACKBONE|DICT|INTERRES
   131   64  189 1    
   132   65   66 2    
   133   67   68 2    
   134   67   69 am   BACKBONE|DICT|INTERRES
   135   69   70 1    
   136   69  190 1    
   137   70   71 1    
   138   70   72 1    
   139   70  191 1    
   140   71  192 1    
   141   71  193 1    
   142   71  194 1    
   143   72   73 2    
   144   72   74 am   BACKBONE|DICT|INTERRES
   145   74   75 1    
   146   74  195 1    
   147   75   76 1    
   148   75   77 1    
   149   75  196 1    
   150   76  197 1    
   151   76  198 1    
   152   76  199 1    
   153   77   78 2    
   154   77   79 am   BACKBONE|DICT|INTERRES
   155   79   80 1    
   156   79  200 1    
   157   80   81 1    
   158   80   82 1    
   159   80  201 1    
   160   81  202 1    
   161   81  203 1    
   162   81  204 1    
   163   82   83 2    
   164   82   84 am   BACKBONE|DICT|INTERRES
   165   84   85 1    
   166   84  205 1    
   167   85   86 1    
   168   85   87 1    
   169   85  206 1    
   170   86  207 1    
   171   86  208 1    
   172   86  209 1    
   173   87   88 2    
   174   87   89 am   BACKBONE|DICT|INTERRES
   175   89   90 1    
   176   89  210 1    
   177   90   91 1    
   178   90   92 1    
   179   90  211 1    
   180   91  212 1    
   181   91  213 1    
   182   91  214 1    
   183   92   93 2    
   184   92   94 am   BACKBONE|DICT|INTERRES
   185   94   95 1    
   186   94  215 1    
   187   95   96 1    
   188   95   97 1    
   189   95  216 1    
   190   96  217 1    
   191   96  218 1    
   192   96  219 1    
   193   97   98 2    
   194   97   99 am   BACKBONE|DICT|INTERRES
   195   99  100 1    
   196   99  220 1    
   197  100  101 1    
   198  100  102 1    
   199  100  221 1    
   200  101  222 1    
   201  101  223 1    
   202  101  224 1    
   203  102  103 2    
   204  102  104 am   BACKBONE|DICT|INTERRES
   205  104  105 1    
   206  104  225 1    
   207  105  106 1    
   208  105  107 1    
   209  105  226 1    
   210  106  227 1    
   211  106  228 1    
   212  106  229 1    
   213  107  108 2    
   214  107  109 am   BACKBONE|DICT|INTERRES
   215  109  110 1    
   216  109  230 1    
   217  110  111 1    
   218  110  112 1    
   219  110  231 1    
   220  111  232 1    
   221  111  233 1    
   222  111  234 1    
   223  112  113 2    
   224  112  114 am   BACKBONE|DICT|INTERRES
   225  114  115 1    
   226  114  235 1    
   227  115  116 1    
   228  115  117 1    
   229  115  236 1    
   230  116  237 1    
   231  116  238 1    
   232  116  239 1    
   233  117  118 2    
   234  117  119 am   BACKBONE|DICT|INTERRES
   235  119  120 1    
   236  119  240 1    
   237  120  121 1    
   238  120  124 1    
   239  120  241 1    
   240  121  122 am   BACKBONE|DICT|INTERRES
   241  121  123 2    
   242  122  242 1    
   243  122  243 1    
   244  124  125 1    
   245  124  244 1    
   246  124  245 1    
   247  125  126 1    
   248  126  246 1    
   249  126  247 1    
@<TRIPOS>SUBSTRUCTURE
     1 UNK         1 GROUP             0       ****    0 ROOT    
