@<TRIPOS>MOLECULE
3R540
247   249    1
SMALL
USER_CHARGES


@<TRIPOS>ATOM
      1 CA          4.7538  -15.8866  -50.8343 C.3       0 UNK        -0.1800 
      2 C           4.7202  -14.5679  -51.6066 C.2       0 UNK         0.5000 
      3 O           5.4293  -14.4378  -52.6025 O.2       0 UNK        -0.5000 
      4 N           3.9183  -13.5710  -51.2079 N.am      1 UNK        -0.5000 
      5 CA          3.0676  -13.5321  -50.0134 C.3       1 UNK         0.1400 
      6 C6          2.0020  -12.4059  -50.0795 C.3       23 UNK        -0.0398 
      7 S7          1.0665  -12.3700  -51.6496 S.3       23 UNK        -0.2404 
      8 C8         -0.4228  -13.3444  -51.2522 C.3       23 UNK        -0.0205 
      9 C9         -0.1411  -14.8247  -51.0160 C.ar      23 UNK        -0.0193 
     10 C10         0.6534  -15.5592  -51.9053 C.ar      23 UNK        -0.1150 
     11 C11         0.8991  -16.9189  -51.6903 C.ar      23 UNK        -0.0193 
     12 C12         0.3353  -17.5445  -50.5746 C.ar      23 UNK        -0.1150 
     13 C13        -0.4958  -16.8354  -49.7053 C.ar      23 UNK        -0.0193 
     14 C14        -0.7189  -15.4734  -49.9207 C.ar      23 UNK        -0.1150 
     15 C15        -1.1702  -17.5579  -48.5544 C.3       23 UNK        -0.0205 
     16 S16        -2.6446  -18.4529  -49.1302 S.3       23 UNK        -0.2404 
     17 C17        -3.0713  -19.4443  -47.6612 C.3       23 UNK        -0.0398 
     18 CA         -2.2581  -20.7627  -47.6094 C.3       11 UNK         0.1400 
     19 N          -1.0104  -20.6364  -46.8556 N.am      11 UNK        -0.5000 
     20 C           0.0056  -21.5043  -46.9438 C.2       10 UNK         0.5000 
     21 O          -0.0159  -22.5069  -47.6568 O.2       10 UNK        -0.5000 
     22 CA          1.2361  -21.2306  -46.0651 C.3       10 UNK         0.1400 
     23 CB          2.1001  -20.1185  -46.6789 C.3       10 UNK        -0.1800 
     24 N           0.8878  -20.8931  -44.6839 N.am      10 UNK        -0.5000 
     25 C           0.2473  -21.7169  -43.8411 C.2       9 UNK         0.5000 
     26 O          -0.1266  -22.8499  -44.1459 O.2       9 UNK        -0.5000 
     27 CA         -0.0554  -21.1779  -42.4311 C.3       9 UNK         0.1400 
     28 CB          1.2095  -21.1836  -41.5597 C.3       9 UNK        -0.1800 
     29 N          -0.6308  -19.8340  -42.4502 N.am      9 UNK        -0.5000 
     30 C          -1.8172  -19.5212  -42.9905 C.2       8 UNK         0.5000 
     31 O          -2.5802  -20.3439  -43.4972 O.2       8 UNK        -0.5000 
     32 CA         -2.1811  -18.0243  -43.0348 C.3       8 UNK         0.1400 
     33 CB         -2.6699  -17.5313  -41.6651 C.3       8 UNK        -0.1800 
     34 N          -1.0730  -17.1874  -43.5034 N.am      8 UNK        -0.5000 
     35 C          -0.4775  -17.3412  -44.6946 C.2       7 UNK         0.5000 
     36 O          -0.8098  -18.1877  -45.5195 O.2       7 UNK        -0.5000 
     37 CA          0.7202  -16.4369  -45.0080 C.3       7 UNK         0.1400 
     38 CB          0.2407  -15.0588  -45.4823 C.3       7 UNK        -0.1800 
     39 N           1.6379  -16.3226  -43.8730 N.am      7 UNK        -0.5000 
     40 C           2.3363  -17.3564  -43.3768 C.2       6 UNK         0.5000 
     41 O           2.3450  -18.4798  -43.8788 O.2       6 UNK        -0.5000 
     42 CA          3.0959  -17.1189  -42.0619 C.3       6 UNK         0.1400 
     43 CB          4.4471  -16.4320  -42.3082 C.3       6 UNK        -0.1800 
     44 N           2.2985  -16.3451  -41.1109 N.am      6 UNK        -0.5000 
     45 C           1.1916  -16.8128  -40.5145 C.2       5 UNK         0.5000 
     46 O           0.7641  -17.9560  -40.6747 O.2       5 UNK        -0.5000 
     47 CA          0.4114  -15.8420  -39.6091 C.3       5 UNK         0.1400 
     48 CB          0.8577  -15.9962  -38.1477 C.3       5 UNK        -0.1800 
     49 N           0.5409  -14.4396  -40.0045 N.am      5 UNK        -0.5000 
     50 C           0.0883  -13.9126  -41.1504 C.2       4 UNK         0.5000 
     51 O          -0.5071  -14.5686  -42.0090 O.2       4 UNK        -0.5000 
     52 CA          0.3458  -12.4030  -41.3764 C.3       4 UNK         0.1400 
     53 CB          1.2692  -11.7600  -40.3162 C.3       4 UNK        -0.1800 
     54 N           0.8533  -12.0794  -42.7153 N.am      4 UNK        -0.5000 
     55 C           1.8955  -12.6370  -43.3482 C.2       3 UNK         0.5000 
     56 O           2.5157  -13.6108  -42.9171 O.2       3 UNK        -0.5000 
     57 CA          2.2845  -11.9744  -44.6873 C.3       3 UNK         0.1400 
     58 CB          3.0521  -10.6577  -44.4563 C.3       3 UNK        -0.1800 
     59 N           3.0112  -12.8604  -45.6056 N.am      3 UNK        -0.5000 
     60 C           4.2480  -13.3706  -45.5019 C.2       2 UNK         0.5000 
     61 O           5.0468  -13.0950  -44.6063 O.2       2 UNK        -0.5000 
     62 CA          4.6751  -14.3630  -46.6050 C.3       2 UNK         0.1400 
     63 CB          4.6765  -15.8043  -46.0740 C.3       2 UNK        -0.1800 
     64 N           3.8408  -14.3123  -47.8123 N.am      2 UNK        -0.5000 
     65 C           3.9508  -13.3714  -48.7591 C.2       1 UNK         0.5000 
     66 O           4.7243  -12.4146  -48.6832 O.2       1 UNK        -0.5000 
     67 C          -3.1149  -21.9454  -47.1241 C.2       11 UNK         0.5000 
     68 O          -3.7989  -22.5521  -47.9484 O.2       11 UNK        -0.5000 
     69 N          -3.0526  -22.2832  -45.8287 N.am      12 UNK        -0.5000 
     70 CA         -3.6647  -23.4924  -45.2798 C.3       12 UNK         0.1400 
     71 CB         -3.6455  -23.4478  -43.7446 C.3       12 UNK        -0.1800 
     72 C          -2.9869  -24.7677  -45.8102 C.2       12 UNK         0.5000 
     73 O          -3.6788  -25.6662  -46.2900 O.2       12 UNK        -0.5000 
     74 N          -1.6513  -24.8087  -45.7246 N.am      13 UNK        -0.5000 
     75 CA         -0.8330  -25.9611  -46.0898 C.3       13 UNK         0.1400 
     76 CB          0.5744  -25.7922  -45.4944 C.3       13 UNK        -0.1800 
     77 C          -0.7569  -26.2119  -47.6059 C.2       13 UNK         0.5000 
     78 O          -1.0556  -27.3210  -48.0506 O.2       13 UNK        -0.5000 
     79 N          -0.3187  -25.2005  -48.3657 N.am      14 UNK        -0.5000 
     80 CA          0.0398  -25.3421  -49.7765 C.3       14 UNK         0.1400 
     81 CB          1.2375  -24.4313  -50.0922 C.3       14 UNK        -0.1800 
     82 C          -1.1296  -25.0297  -50.7188 C.2       14 UNK         0.5000 
     83 O          -1.3110  -25.7435  -51.7058 O.2       14 UNK        -0.5000 
     84 N          -1.8935  -23.9708  -50.4151 N.am      15 UNK        -0.5000 
     85 CA         -2.9669  -23.4728  -51.2824 C.3       15 UNK         0.1400 
     86 CB         -2.9807  -21.9354  -51.2677 C.3       15 UNK        -0.1800 
     87 C          -4.3533  -24.0523  -50.9422 C.2       15 UNK         0.5000 
     88 O          -5.3313  -23.6441  -51.5696 O.2       15 UNK        -0.5000 
     89 N          -4.4175  -24.9778  -49.9725 N.am      16 UNK        -0.5000 
     90 CA         -5.6069  -25.7040  -49.5131 C.3       16 UNK         0.1400 
     91 CB         -6.1276  -26.6427  -50.6222 C.3       16 UNK        -0.1800 
     92 C          -6.6963  -24.7639  -48.9583 C.2       16 UNK         0.5000 
     93 O          -7.8355  -24.7834  -49.4247 O.2       16 UNK        -0.5000 
     94 N          -6.2996  -23.9298  -47.9882 N.am      17 UNK        -0.5000 
     95 CA         -7.0817  -22.8560  -47.3624 C.3       17 UNK         0.1400 
     96 CB         -8.3236  -23.4057  -46.6299 C.3       17 UNK        -0.1800 
     97 C          -7.3974  -21.7276  -48.3625 C.2       17 UNK         0.5000 
     98 O          -8.5178  -21.2176  -48.3985 O.2       17 UNK        -0.5000 
     99 N          -6.3816  -21.3817  -49.1680 N.am      18 UNK        -0.5000 
    100 CA        -6.3773  -20.3720  -50.2339 C.3       18 UNK         0.1400 
    101 CB        -6.6649  -18.9650  -49.6695 C.3       18 UNK        -0.1800 
    102 C         -7.2813  -20.7007  -51.4425 C.2       18 UNK         0.5000 
    103 O         -7.4419  -19.8459  -52.3141 O.2       18 UNK        -0.5000 
    104 N         -7.8248  -21.9243  -51.5154 N.am      19 UNK        -0.5000 
    105 CA        -8.7009  -22.3953  -52.5913 C.3       19 UNK         0.1400 
    106 CB        -9.2701  -23.7710  -52.2176 C.3       19 UNK        -0.1800 
    107 C         -8.0054  -22.4571  -53.9637 C.2       19 UNK         0.5000 
    108 O         -8.6426  -22.1778  -54.9799 O.2       19 UNK        -0.5000 
    109 N         -6.7079  -22.7905  -53.9663 N.am      20 UNK        -0.5000 
    110 CA        -5.8587  -22.8037  -55.1592 C.3       20 UNK         0.1400 
    111 CB        -4.7216  -23.8137  -54.9445 C.3       20 UNK        -0.1800 
    112 C         -5.2835  -21.4144  -55.5051 C.2       20 UNK         0.5000 
    113 O         -4.6236  -21.2827  -56.5369 O.2       20 UNK        -0.5000 
    114 N         -5.4944  -20.4169  -54.6293 N.am      21 UNK        -0.5000 
    115 CA        -5.0530  -19.0180  -54.7379 C.3       21 UNK         0.1400 
    116 CB        -5.8472  -18.2985  -55.8470 C.3       21 UNK        -0.1800 
    117 C         -3.5242  -18.8451  -54.8976 C.2       21 UNK         0.5000 
    118 O         -3.0728  -17.8573  -55.4792 O.2       21 UNK        -0.5000 
    119 N         -2.7589  -19.8208  -54.3893 N.am      22 UNK        -0.5000 
    120 CA        -1.3038  -19.9639  -54.5613 C.3       22 UNK         0.1400 
    121 C         -0.8584  -20.3270  -56.0151 C.2       22 UNK         0.5000 
    122 N         -1.7487  -20.7764  -56.8934 N.am      22 UNK        -0.7600 
    123 O          0.3172  -20.2292  -56.3554 O.2       22 UNK        -0.5000 
    124 C124       -0.5087  -18.7752  -53.9448 C.3       23 UNK        -0.0398 
    125 S125        1.0524  -19.3053  -53.1617 S.3       23 UNK        -0.2404 
    126 C126        1.7713  -17.7021  -52.6667 C.3       23 UNK        -0.0205 
    127 H127        3.7538  -16.2370  -50.5827 H         1 UNK         0.0600 
    128 H128        5.3324  -15.7796  -49.9170 H         1 UNK         0.0600 
    129 H129        5.2262  -16.6638  -51.4353 H         1 UNK         0.0600 
    130 H130        3.9205  -12.7156  -51.7441 H         1 UNK         0.3000 
    131 H131        2.5274  -14.4767  -49.9442 H         1 UNK         0.0600 
    132 H132        1.3015  -12.4948  -49.2473 H         1 UNK         0.0800 
    133 H133        2.4734  -11.4271  -49.9716 H         1 UNK         0.0800 
    134 H134       -1.1245  -13.2587  -52.0827 H         1 UNK         0.0800 
    135 H135       -0.9158  -12.8974  -50.3876 H         1 UNK         0.0800 
    136 H136        1.0848  -15.0670  -52.7656 H         1 UNK         0.1150 
    137 H137        0.5106  -18.5971  -50.4020 H         1 UNK         0.1150 
    138 H138       -1.3611  -14.9249  -49.2459 H         1 UNK         0.1150 
    139 H139       -0.4609  -18.2576  -48.1132 H         1 UNK         0.0800 
    140 H140       -1.4565  -16.8556  -47.7712 H         1 UNK         0.0800 
    141 H141       -4.1414  -19.6427  -47.7366 H         1 UNK         0.0800 
    142 H142       -2.9524  -18.8548  -46.7522 H         1 UNK         0.0800 
    143 H143       -1.9677  -21.0230  -48.6281 H         1 UNK         0.0600 
    144 H144       -0.9170  -19.8178  -46.2554 H         1 UNK         0.3000 
    145 H145        1.8316  -22.1455  -46.0405 H         1 UNK         0.0600 
    146 H146        3.0266  -19.9859  -46.1201 H         1 UNK         0.0600 
    147 H147        2.3727  -20.3570  -47.7078 H         1 UNK         0.0600 
    148 H148        1.5774  -19.1623  -46.6911 H         1 UNK         0.0600 
    149 H149        1.1896  -19.9815  -44.3518 H         1 UNK         0.3000 
    150 H150       -0.7862  -21.8463  -41.9713 H         1 UNK         0.0600 
    151 H151        1.6539  -22.1789  -41.5211 H         1 UNK         0.0600 
    152 H152        0.9821  -20.8882  -40.5352 H         1 UNK         0.0600 
    153 H153        1.9667  -20.4986  -41.9428 H         1 UNK         0.0600 
    154 H154       -0.0769  -19.0965  -42.0241 H         1 UNK         0.3000 
    155 H155       -2.9998  -17.9044  -43.7474 H         1 UNK         0.0600 
    156 H156       -1.9204  -17.6839  -40.8898 H         1 UNK         0.0600 
    157 H157       -3.5675  -18.0696  -41.3587 H         1 UNK         0.0600 
    158 H158       -2.9180  -16.4699  -41.6902 H         1 UNK         0.0600 
    159 H159       -0.7611  -16.4396  -42.8930 H         1 UNK         0.3000 
    160 H160        1.2643  -16.8981  -45.8345 H         1 UNK         0.0600 
    161 H161       -0.1531  -14.4578  -44.6631 H         1 UNK         0.0600 
    162 H162       -0.5509  -15.1513  -46.2268 H         1 UNK         0.0600 
    163 H163        1.0488  -14.5115  -45.9573 H         1 UNK         0.0600 
    164 H164        1.6965  -15.4253  -43.4026 H         1 UNK         0.3000 
    165 H165        3.2968  -18.0952  -41.6152 H         1 UNK         0.0600 
    166 H166        4.9928  -16.2893  -41.3756 H         1 UNK         0.0600 
    167 H167        5.0747  -17.0394  -42.9611 H         1 UNK         0.0600 
    168 H168        4.3319  -15.4571  -42.7812 H         1 UNK         0.0600 
    169 H169        2.5569  -15.3775  -40.9773 H         1 UNK         0.3000 
    170 H170       -0.6451  -16.1078  -39.6707 H         1 UNK         0.0600 
    171 H171        0.7476  -17.0287  -37.8130 H         1 UNK         0.0600 
    172 H172        1.9039  -15.7178  -38.0144 H         1 UNK         0.0600 
    173 H173        0.2565  -15.3753  -37.4833 H         1 UNK         0.0600 
    174 H174        1.0235  -13.8332  -39.3574 H         1 UNK         0.3000 
    175 H175       -0.6304  -11.9230  -41.2968 H         1 UNK         0.0600 
    176 H176        2.2620  -12.2122  -40.3141 H         1 UNK         0.0600 
    177 H177        1.3964  -10.6943  -40.5077 H         1 UNK         0.0600 
    178 H178        0.8527  -11.8496  -39.3122 H         1 UNK         0.0600 
    179 H179        0.3752  -11.3172  -43.1744 H         1 UNK         0.3000 
    180 H180        1.3545  -11.7291  -45.2026 H         1 UNK         0.0600 
    181 H181        3.9604  -10.8116  -43.8732 H         1 UNK         0.0600 
    182 H182        2.4396   -9.9379  -43.9123 H         1 UNK         0.0600 
    183 H183        3.3341  -10.1937  -45.4015 H         1 UNK         0.0600 
    184 H184        2.4736  -13.1732  -46.3990 H         1 UNK         0.3000 
    185 H185        5.7013  -14.1109  -46.8815 H         1 UNK         0.0600 
    186 H186        5.3014  -15.8930  -45.1849 H         1 UNK         0.0600 
    187 H187        3.6739  -16.1356  -45.8084 H         1 UNK         0.0600 
    188 H188        5.0723  -16.4978  -46.8162 H         1 UNK         0.0600 
    189 H189        3.1979  -15.0798  -47.9443 H         1 UNK         0.3000 
    190 H190       -2.5085  -21.7153  -45.1894 H         1 UNK         0.3000 
    191 H191       -4.7092  -23.5224  -45.5890 H         1 UNK         0.0600 
    192 H192       -2.6325  -23.3665  -43.3510 H         1 UNK         0.0600 
    193 H193       -4.0908  -24.3493  -43.3220 H         1 UNK         0.0600 
    194 H194       -4.2169  -22.5983  -43.3705 H         1 UNK         0.0600 
    195 H195       -1.1621  -24.0241  -45.3020 H         1 UNK         0.3000 
    196 H196       -1.2801  -26.8467  -45.6330 H         1 UNK         0.0600 
    197 H197        1.2130  -26.6391  -45.7488 H         1 UNK         0.0600 
    198 H198        0.5354  -25.7294  -44.4068 H         1 UNK         0.0600 
    199 H199        1.0628  -24.8883  -45.8612 H         1 UNK         0.0600 
    200 H200       -0.1432  -24.2901  -47.9436 H         1 UNK         0.3000 
    201 H201        0.3557  -26.3700  -49.9688 H         1 UNK         0.0600 
    202 H202        2.0848  -24.6554  -49.4441 H         1 UNK         0.0600 
    203 H203        0.9914  -23.3762  -49.9686 H         1 UNK         0.0600 
    204 H204        1.5700  -24.5693  -51.1218 H         1 UNK         0.0600 
    205 H205       -1.6998  -23.4508  -49.5706 H         1 UNK         0.3000 
    206 H206       -2.7519  -23.7722  -52.3089 H         1 UNK         0.0600 
    207 H207       -3.3363  -21.5437  -50.3183 H         1 UNK         0.0600 
    208 H208       -1.9889  -21.5229  -51.4549 H         1 UNK         0.0600 
    209 H209       -3.6442  -21.5479  -52.0408 H         1 UNK         0.0600 
    210 H210       -3.5554  -25.2060  -49.4988 H         1 UNK         0.3000 
    211 H211       -5.2853  -26.3285  -48.6782 H         1 UNK         0.0600 
    212 H212       -6.4902  -26.0890  -51.4888 H         1 UNK         0.0600 
    213 H213       -6.9530  -27.2555  -50.2582 H         1 UNK         0.0600 
    214 H214       -5.3453  -27.3211  -50.9625 H         1 UNK         0.0600 
    215 H215       -5.3108  -23.9246  -47.7631 H         1 UNK         0.3000 
    216 H216       -6.4387  -22.4032  -46.6078 H         1 UNK         0.0600 
    217 H217       -8.8092  -22.6214  -46.0483 H         1 UNK         0.0600 
    218 H218       -8.0516  -24.2019  -45.9370 H         1 UNK         0.0600 
    219 H219       -9.0668  -23.8015  -47.3224 H         1 UNK         0.0600 
    220 H220       -5.5123  -21.8881  -49.0433 H         1 UNK         0.3000 
    221 H221       -5.3605  -20.3557  -50.6243 H         1 UNK         0.0600 
    222 H222       -7.7016  -18.8598  -49.3493 H         1 UNK         0.0600 
    223 H223       -6.0267  -18.7371  -48.8170 H         1 UNK         0.0600 
    224 H224       -6.4792  -18.1974  -50.4217 H         1 UNK         0.0600 
    225 H225       -7.6026  -22.5939  -50.7911 H         1 UNK         0.3000 
    226 H226       -9.5324  -21.6923  -52.6729 H         1 UNK         0.0600 
    227 H227       -9.8154  -23.7300  -51.2744 H         1 UNK         0.0600 
    228 H228       -9.9633  -24.1287  -52.9799 H         1 UNK         0.0600 
    229 H229       -8.4801  -24.5162  -52.1154 H         1 UNK         0.0600 
    230 H230       -6.2653  -23.0378  -53.0829 H         1 UNK         0.3000 
    231 H231       -6.4486  -23.1372  -56.0154 H         1 UNK         0.0600 
    232 H232       -5.1073  -24.7936  -54.6624 H         1 UNK         0.0600 
    233 H233       -4.0391  -23.4826  -54.1640 H         1 UNK         0.0600 
    234 H234       -4.1364  -23.9439  -55.8557 H         1 UNK         0.0600 
    235 H235       -6.0823  -20.6144  -53.8290 H         1 UNK         0.3000 
    236 H236       -5.3098  -18.5447  -53.7892 H         1 UNK         0.0600 
    237 H237       -5.5988  -18.6845  -56.8362 H         1 UNK         0.0600 
    238 H238       -6.9210  -18.4167  -55.7006 H         1 UNK         0.0600 
    239 H239       -5.6386  -17.2281  -55.8503 H         1 UNK         0.0600 
    240 H240       -3.2257  -20.5963  -53.9459 H         1 UNK         0.3000 
    241 H241       -1.0663  -20.8553  -53.9796 H         1 UNK         0.0600 
    242 H242       -2.7317  -20.8744  -56.6575 H         1 UNK         0.3800 
    243 H243       -1.4406  -21.0136  -57.8228 H         1 UNK         0.3800 
    244 H244       -1.1030  -18.2934  -53.1670 H         1 UNK         0.0800 
    245 H245       -0.3087  -18.0018  -54.6884 H         1 UNK         0.0800 
    246 H246        1.9668  -17.1158  -53.5659 H         1 UNK         0.0800 
    247 H247        2.7400  -17.8848  -52.2009 H         1 UNK         0.0800 
@<TRIPOS>BOND
     1    1    2 1    
     2    1  127 1    
     3    1  128 1    
     4    1  129 1    
     5    2    3 2    
     6    2    4 am   BACKBONE|DICT|INTERRES
     7    4    5 1    
     8    4  130 1    
     9    5    6 1    
    10    5   65 1    
    11    5  131 1    
    12    6    7 1    
    13    6  132 1    
    14    6  133 1    
    15    7    8 1    
    16    8    9 1    
    17    8  134 1    
    18    8  135 1    
    19    9   10 ar   
    20    9   14 ar   
    21   10   11 ar   
    22   10  136 1    
    23   11   12 ar   
    24   11  126 1    
    25   12   13 ar   
    26   12  137 1    
    27   13   14 ar   
    28   13   15 1    
    29   14  138 1    
    30   15   16 1    
    31   15  139 1    
    32   15  140 1    
    33   16   17 1    
    34   17   18 1    
    35   17  141 1    
    36   17  142 1    
    37   18   19 1    
    38   18   67 1    
    39   18  143 1    
    40   19   20 am   BACKBONE|DICT|INTERRES
    41   19  144 1    
    42   20   21 2    
    43   20   22 1    
    44   22   23 1    
    45   22   24 1    
    46   22  145 1    
    47   23  146 1    
    48   23  147 1    
    49   23  148 1    
    50   24   25 am   BACKBONE|DICT|INTERRES
    51   24  149 1    
    52   25   26 2    
    53   25   27 1    
    54   27   28 1    
    55   27   29 1    
    56   27  150 1    
    57   28  151 1    
    58   28  152 1    
    59   28  153 1    
    60   29   30 am   BACKBONE|DICT|INTERRES
    61   29  154 1    
    62   30   31 2    
    63   30   32 1    
    64   32   33 1    
    65   32   34 1    
    66   32  155 1    
    67   33  156 1    
    68   33  157 1    
    69   33  158 1    
    70   34   35 am   BACKBONE|DICT|INTERRES
    71   34  159 1    
    72   35   36 2    
    73   35   37 1    
    74   37   38 1    
    75   37   39 1    
    76   37  160 1    
    77   38  161 1    
    78   38  162 1    
    79   38  163 1    
    80   39   40 am   BACKBONE|DICT|INTERRES
    81   39  164 1    
    82   40   41 2    
    83   40   42 1    
    84   42   43 1    
    85   42   44 1    
    86   42  165 1    
    87   43  166 1    
    88   43  167 1    
    89   43  168 1    
    90   44   45 am   BACKBONE|DICT|INTERRES
    91   44  169 1    
    92   45   46 2    
    93   45   47 1    
    94   47   48 1    
    95   47   49 1    
    96   47  170 1    
    97   48  171 1    
    98   48  172 1    
    99   48  173 1    
   100   49   50 am   BACKBONE|DICT|INTERRES
   101   49  174 1    
   102   50   51 2    
   103   50   52 1    
   104   52   53 1    
   105   52   54 1    
   106   52  175 1    
   107   53  176 1    
   108   53  177 1    
   109   53  178 1    
   110   54   55 am   BACKBONE|DICT|INTERRES
   111   54  179 1    
   112   55   56 2    
   113   55   57 1    
   114   57   58 1    
   115   57   59 1    
   116   57  180 1    
   117   58  181 1    
   118   58  182 1    
   119   58  183 1    
   120   59   60 am   BACKBONE|DICT|INTERRES
   121   59  184 1    
   122   60   61 2    
   123   60   62 1    
   124   62   63 1    
   125   62   64 1    
   126   62  185 1    
   127   63  186 1    
   128   63  187 1    
   129   63  188 1    
   130   64   65 am   BACKBONE|DICT|INTERRES
   131   64  189 1    
   132   65   66 2    
   133   67   68 2    
   134   67   69 am   BACKBONE|DICT|INTERRES
   135   69   70 1    
   136   69  190 1    
   137   70   71 1    
   138   70   72 1    
   139   70  191 1    
   140   71  192 1    
   141   71  193 1    
   142   71  194 1    
   143   72   73 2    
   144   72   74 am   BACKBONE|DICT|INTERRES
   145   74   75 1    
   146   74  195 1    
   147   75   76 1    
   148   75   77 1    
   149   75  196 1    
   150   76  197 1    
   151   76  198 1    
   152   76  199 1    
   153   77   78 2    
   154   77   79 am   BACKBONE|DICT|INTERRES
   155   79   80 1    
   156   79  200 1    
   157   80   81 1    
   158   80   82 1    
   159   80  201 1    
   160   81  202 1    
   161   81  203 1    
   162   81  204 1    
   163   82   83 2    
   164   82   84 am   BACKBONE|DICT|INTERRES
   165   84   85 1    
   166   84  205 1    
   167   85   86 1    
   168   85   87 1    
   169   85  206 1    
   170   86  207 1    
   171   86  208 1    
   172   86  209 1    
   173   87   88 2    
   174   87   89 am   BACKBONE|DICT|INTERRES
   175   89   90 1    
   176   89  210 1    
   177   90   91 1    
   178   90   92 1    
   179   90  211 1    
   180   91  212 1    
   181   91  213 1    
   182   91  214 1    
   183   92   93 2    
   184   92   94 am   BACKBONE|DICT|INTERRES
   185   94   95 1    
   186   94  215 1    
   187   95   96 1    
   188   95   97 1    
   189   95  216 1    
   190   96  217 1    
   191   96  218 1    
   192   96  219 1    
   193   97   98 2    
   194   97   99 am   BACKBONE|DICT|INTERRES
   195   99  100 1    
   196   99  220 1    
   197  100  101 1    
   198  100  102 1    
   199  100  221 1    
   200  101  222 1    
   201  101  223 1    
   202  101  224 1    
   203  102  103 2    
   204  102  104 am   BACKBONE|DICT|INTERRES
   205  104  105 1    
   206  104  225 1    
   207  105  106 1    
   208  105  107 1    
   209  105  226 1    
   210  106  227 1    
   211  106  228 1    
   212  106  229 1    
   213  107  108 2    
   214  107  109 am   BACKBONE|DICT|INTERRES
   215  109  110 1    
   216  109  230 1    
   217  110  111 1    
   218  110  112 1    
   219  110  231 1    
   220  111  232 1    
   221  111  233 1    
   222  111  234 1    
   223  112  113 2    
   224  112  114 am   BACKBONE|DICT|INTERRES
   225  114  115 1    
   226  114  235 1    
   227  115  116 1    
   228  115  117 1    
   229  115  236 1    
   230  116  237 1    
   231  116  238 1    
   232  116  239 1    
   233  117  118 2    
   234  117  119 am   BACKBONE|DICT|INTERRES
   235  119  120 1    
   236  119  240 1    
   237  120  121 1    
   238  120  124 1    
   239  120  241 1    
   240  121  122 am   BACKBONE|DICT|INTERRES
   241  121  123 2    
   242  122  242 1    
   243  122  243 1    
   244  124  125 1    
   245  124  244 1    
   246  124  245 1    
   247  125  126 1    
   248  126  246 1    
   249  126  247 1    
@<TRIPOS>SUBSTRUCTURE
     1 UNK         1 GROUP             0       ****    0 ROOT    
