@<TRIPOS>MOLECULE
3R540
247   249    1
SMALL
USER_CHARGES


@<TRIPOS>ATOM
      1 CA          3.0243  -15.7555  -48.0819 C.3       0 UNK        -0.1800 
      2 C           1.7337  -14.9508  -48.0475 C.2       0 UNK         0.5000 
      3 O           1.7391  -13.7935  -47.6276 O.2       0 UNK        -0.5000 
      4 N           0.6212  -15.5585  -48.4710 N.am      1 UNK        -0.5000 
      5 CA         -0.7016  -14.9289  -48.5063 C.3       1 UNK         0.1400 
      6 C6         -1.8396  -15.9649  -48.6726 C.3       23 UNK        -0.0398 
      7 S7         -1.7336  -17.3358  -47.4750 S.3       23 UNK        -0.2404 
      8 C8         -1.5988  -18.7589  -48.5963 C.3       23 UNK        -0.0205 
      9 C9         -0.2731  -18.8207  -49.3353 C.ar      23 UNK        -0.0193 
     10 C10        -0.1882  -18.4311  -50.6745 C.ar      23 UNK        -0.1150 
     11 C11         1.0226  -18.5265  -51.3650 C.ar      23 UNK        -0.0193 
     12 C12         2.1490  -19.0334  -50.7113 C.ar      23 UNK        -0.1150 
     13 C13         2.0753  -19.4337  -49.3730 C.ar      23 UNK        -0.0193 
     14 C14         0.8620  -19.3118  -48.6880 C.ar      23 UNK        -0.1150 
     15 C15         3.3119  -19.9829  -48.6749 C.3       23 UNK        -0.0205 
     16 S16         3.1948  -21.7774  -48.3726 S.3       23 UNK        -0.2404 
     17 C17         2.5882  -21.8011  -46.6531 C.3       23 UNK        -0.0398 
     18 CA          1.6848  -23.0071  -46.3058 C.3       11 UNK         0.1400 
     19 N           1.5208  -23.1302  -44.8580 N.am      11 UNK        -0.5000 
     20 C           1.0835  -24.2225  -44.2197 C.2       10 UNK         0.5000 
     21 O           0.8335  -25.2891  -44.7809 O.2       10 UNK        -0.5000 
     22 CA          0.8547  -24.0756  -42.7028 C.3       10 UNK         0.1400 
     23 CB          2.1459  -24.3806  -41.9293 C.3       10 UNK        -0.1800 
     24 N           0.3762  -22.7378  -42.3385 N.am      10 UNK        -0.5000 
     25 C          -0.8458  -22.2736  -42.6369 C.2       9 UNK         0.5000 
     26 O          -1.7075  -22.9520  -43.1962 O.2       9 UNK        -0.5000 
     27 CA         -1.1361  -20.7960  -42.3014 C.3       9 UNK         0.1400 
     28 CB         -1.6397  -20.6538  -40.8580 C.3       9 UNK        -0.1800 
     29 N           0.0123  -19.9062  -42.4984 N.am      9 UNK        -0.5000 
     30 C           0.6318  -19.6920  -43.6669 C.2       8 UNK         0.5000 
     31 O           0.3108  -20.2730  -44.7016 O.2       8 UNK        -0.5000 
     32 CA          1.8096  -18.6941  -43.7038 C.3       8 UNK         0.1400 
     33 CB          1.8457  -17.9038  -45.0252 C.3       8 UNK        -0.1800 
     34 N           1.8099  -17.7406  -42.5966 N.am      8 UNK        -0.5000 
     35 C           2.2421  -17.9668  -41.3504 C.2       7 UNK         0.5000 
     36 O           2.6675  -19.0541  -40.9609 O.2       7 UNK        -0.5000 
     37 CA          2.1394  -16.7853  -40.3723 C.3       7 UNK         0.1400 
     38 CB          3.3422  -15.8426  -40.5331 C.3       7 UNK        -0.1800 
     39 N           0.9032  -16.0323  -40.5858 N.am      7 UNK        -0.5000 
     40 C          -0.2807  -16.3501  -40.0449 C.2       6 UNK         0.5000 
     41 O          -0.4443  -17.2830  -39.2581 O.2       6 UNK        -0.5000 
     42 CA         -1.4886  -15.4856  -40.4569 C.3       6 UNK         0.1400 
     43 CB         -1.6165  -14.2640  -39.5343 C.3       6 UNK        -0.1800 
     44 N          -1.4195  -15.0319  -41.8472 N.am      6 UNK        -0.5000 
     45 C          -1.5665  -15.8330  -42.9115 C.2       5 UNK         0.5000 
     46 O          -1.8268  -17.0331  -42.8304 O.2       5 UNK        -0.5000 
     47 CA         -1.3760  -15.1937  -44.3021 C.3       5 UNK         0.1400 
     48 CB         -2.7329  -14.7500  -44.8670 C.3       5 UNK        -0.1800 
     49 N          -0.4352  -14.0657  -44.3557 N.am      5 UNK        -0.5000 
     50 C           0.8474  -14.1038  -43.9617 C.2       4 UNK         0.5000 
     51 O           1.3518  -15.0807  -43.4089 O.2       4 UNK        -0.5000 
     52 CA          1.7050  -12.8512  -44.2097 C.3       4 UNK         0.1400 
     53 CB          3.1963  -13.1935  -44.3818 C.3       4 UNK        -0.1800 
     54 N           1.2471  -12.1258  -45.3930 N.am      4 UNK        -0.5000 
     55 C           0.9175  -10.8306  -45.4243 C.2       3 UNK         0.5000 
     56 O           0.9338  -10.0921  -44.4385 O.2       3 UNK        -0.5000 
     57 CA          0.4895  -10.2573  -46.7884 C.3       3 UNK         0.1400 
     58 CB          1.7242   -9.8462  -47.6055 C.3       3 UNK        -0.1800 
     59 N          -0.3463  -11.1450  -47.6032 N.am      3 UNK        -0.5000 
     60 C          -1.5323  -11.6562  -47.2436 C.2       2 UNK         0.5000 
     61 O          -2.0040  -11.5641  -46.1109 O.2       2 UNK        -0.5000 
     62 CA         -2.3427  -12.3883  -48.3323 C.3       2 UNK         0.1400 
     63 CB         -3.4911  -11.4931  -48.8216 C.3       2 UNK        -0.1800 
     64 N          -1.5384  -12.7798  -49.4943 N.am      2 UNK        -0.5000 
     65 C          -0.7735  -13.8718  -49.6366 C.2       1 UNK         0.5000 
     66 O          -0.1544  -14.0745  -50.6813 O.2       1 UNK        -0.5000 
     67 C           0.3080  -22.9684  -47.0043 C.2       11 UNK         0.5000 
     68 O           0.1276  -23.6480  -48.0112 O.2       11 UNK        -0.5000 
     69 N          -0.6631  -22.2522  -46.4170 N.am      12 UNK        -0.5000 
     70 CA         -2.0626  -22.2100  -46.8489 C.3       12 UNK         0.1400 
     71 CB         -2.8440  -21.1997  -45.9914 C.3       12 UNK        -0.1800 
     72 C          -2.7441  -23.5881  -46.8109 C.2       12 UNK         0.5000 
     73 O          -3.4495  -23.9409  -47.7557 O.2       12 UNK        -0.5000 
     74 N          -2.4853  -24.3592  -45.7457 N.am      13 UNK        -0.5000 
     75 CA         -2.9626  -25.7338  -45.5868 C.3       13 UNK         0.1400 
     76 CB         -2.6269  -26.2320  -44.1732 C.3       13 UNK        -0.1800 
     77 C          -2.4062  -26.6946  -46.6568 C.2       13 UNK         0.5000 
     78 O          -3.1307  -27.5846  -47.1036 O.2       13 UNK        -0.5000 
     79 N          -1.1470  -26.4841  -47.0650 N.am      14 UNK        -0.5000 
     80 CA         -0.5008  -27.2157  -48.1544 C.3       14 UNK         0.1400 
     81 CB          1.0240  -27.0631  -48.0397 C.3       14 UNK        -0.1800 
     82 C          -0.9999  -26.7625  -49.5405 C.2       14 UNK         0.5000 
     83 O          -1.2159  -27.6067  -50.4107 O.2       14 UNK        -0.5000 
     84 N          -1.1738  -25.4449  -49.7192 N.am      15 UNK        -0.5000 
     85 CA         -1.6507  -24.8073  -50.9478 C.3       15 UNK         0.1400 
     86 CB         -1.4879  -23.2830  -50.8279 C.3       15 UNK        -0.1800 
     87 C          -3.1057  -25.1712  -51.2926 C.2       15 UNK         0.5000 
     88 O          -3.4137  -25.3622  -52.4701 O.2       15 UNK        -0.5000 
     89 N          -3.9621  -25.2720  -50.2646 N.am      16 UNK        -0.5000 
     90 CA         -5.3729  -25.6630  -50.3150 C.3       16 UNK         0.1400 
     91 CB         -5.5011  -27.1669  -50.6413 C.3       16 UNK        -0.1800 
     92 C          -6.1842  -24.7485  -51.2540 C.2       16 UNK         0.5000 
     93 O          -6.4857  -23.6169  -50.8778 O.2       16 UNK        -0.5000 
     94 N          -6.4867  -25.2204  -52.4708 N.am      17 UNK        -0.5000 
     95 CA         -7.1558  -24.4515  -53.5236 C.3       17 UNK         0.1400 
     96 CB         -7.4743  -25.3862  -54.7001 C.3       17 UNK        -0.1800 
     97 C          -6.3454  -23.2305  -54.0078 C.2       17 UNK         0.5000 
     98 O          -6.9410  -22.2437  -54.4408 O.2       17 UNK        -0.5000 
     99 N          -5.0106  -23.3012  -53.9023 N.am      18 UNK        -0.5000 
    100 CA        -4.0909  -22.2176  -54.2514 C.3       18 UNK         0.1400 
    101 CB        -2.7528  -22.8178  -54.7140 C.3       18 UNK        -0.1800 
    102 C         -3.8868  -21.1981  -53.1120 C.2       18 UNK         0.5000 
    103 O         -3.1455  -20.2352  -53.3043 O.2       18 UNK        -0.5000 
    104 N         -4.5425  -21.3829  -51.9535 N.am      19 UNK        -0.5000 
    105 CA        -4.4355  -20.4820  -50.7987 C.3       19 UNK         0.1400 
    106 CB        -5.0834  -21.1249  -49.5658 C.3       19 UNK        -0.1800 
    107 C         -5.0031  -19.0657  -51.0394 C.2       19 UNK         0.5000 
    108 O         -4.7075  -18.1571  -50.2627 O.2       19 UNK        -0.5000 
    109 N         -5.7587  -18.8733  -52.1297 N.am      20 UNK        -0.5000 
    110 CA        -6.2093  -17.5805  -52.6506 C.3       20 UNK         0.1400 
    111 CB        -7.3743  -17.8264  -53.6257 C.3       20 UNK        -0.1800 
    112 C         -5.0500  -16.7837  -53.2963 C.2       20 UNK         0.5000 
    113 O         -5.0961  -16.4658  -54.4872 O.2       20 UNK        -0.5000 
    114 N         -4.0086  -16.5149  -52.4947 N.am      21 UNK        -0.5000 
    115 CA        -2.7853  -15.7668  -52.8103 C.3       21 UNK         0.1400 
    116 CB        -3.1051  -14.2629  -52.9263 C.3       21 UNK        -0.1800 
    117 C         -1.9987  -16.3061  -54.0263 C.2       21 UNK         0.5000 
    118 O         -1.2945  -15.5386  -54.6844 O.2       21 UNK        -0.5000 
    119 N         -2.1280  -17.6120  -54.3047 N.am      22 UNK        -0.5000 
    120 CA        -1.5521  -18.3126  -55.4663 C.3       22 UNK         0.1400 
    121 C         -2.0829  -17.8121  -56.8462 C.2       22 UNK         0.5000 
    122 N         -3.2405  -17.1616  -56.9100 N.am      22 UNK        -0.7600 
    123 O         -1.4609  -18.0418  -57.8801 O.2       22 UNK        -0.5000 
    124 C124       -0.0026  -18.4333  -55.3946 C.3       23 UNK        -0.0398 
    125 S125        0.5339  -19.3957  -53.9363 S.3       23 UNK        -0.2404 
    126 C126        1.1051  -18.0815  -52.8160 C.3       23 UNK        -0.0205 
    127 H127        3.4567  -15.8127  -47.0832 H         1 UNK         0.0600 
    128 H128        3.7471  -15.2761  -48.7417 H         1 UNK         0.0600 
    129 H129        2.8576  -16.7714  -48.4389 H         1 UNK         0.0600 
    130 H130        0.6642  -16.5067  -48.8169 H         1 UNK         0.3000 
    131 H131       -0.8284  -14.4416  -47.5396 H         1 UNK         0.0600 
    132 H132       -1.8460  -16.3689  -49.6837 H         1 UNK         0.0800 
    133 H133       -2.8141  -15.4929  -48.5429 H         1 UNK         0.0800 
    134 H134       -2.4275  -18.7364  -49.2986 H         1 UNK         0.0800 
    135 H135       -1.7170  -19.6680  -48.0171 H         1 UNK         0.0800 
    136 H136       -1.0661  -18.0679  -51.1891 H         1 UNK         0.1150 
    137 H137        3.0831  -19.1191  -51.2484 H         1 UNK         0.1150 
    138 H138        0.7830  -19.6133  -47.6548 H         1 UNK         0.1150 
    139 H139        4.1978  -19.8001  -49.2849 H         1 UNK         0.0800 
    140 H140        3.4814  -19.4455  -47.7410 H         1 UNK         0.0800 
    141 H141        2.0827  -20.8675  -46.4231 H         1 UNK         0.0800 
    142 H142        3.4732  -21.8167  -46.0155 H         1 UNK         0.0800 
    143 H143        2.1949  -23.9098  -46.6498 H         1 UNK         0.0600 
    144 H144        1.6418  -22.2847  -44.3215 H         1 UNK         0.3000 
    145 H145        0.0983  -24.8061  -42.4076 H         1 UNK         0.0600 
    146 H146        1.9775  -24.3464  -40.8528 H         1 UNK         0.0600 
    147 H147        2.9381  -23.6701  -42.1684 H         1 UNK         0.0600 
    148 H148        2.5164  -25.3786  -42.1677 H         1 UNK         0.0600 
    149 H149        1.0275  -22.1242  -41.8705 H         1 UNK         0.3000 
    150 H150       -1.9287  -20.4575  -42.9717 H         1 UNK         0.0600 
    151 H151       -2.5118  -21.2854  -40.6839 H         1 UNK         0.0600 
    152 H152       -1.9353  -19.6258  -40.6451 H         1 UNK         0.0600 
    153 H153       -0.8754  -20.9392  -40.1342 H         1 UNK         0.0600 
    154 H154        0.3377  -19.3971  -41.6899 H         1 UNK         0.3000 
    155 H155        2.7252  -19.2856  -43.6459 H         1 UNK         0.0600 
    156 H156        2.0007  -18.5614  -45.8788 H         1 UNK         0.0600 
    157 H157        2.6587  -17.1776  -45.0299 H         1 UNK         0.0600 
    158 H158        0.9150  -17.3628  -45.1953 H         1 UNK         0.0600 
    159 H159        1.5047  -16.7985  -42.8316 H         1 UNK         0.3000 
    160 H160        2.1541  -17.1829  -39.3551 H         1 UNK         0.0600 
    161 H161        3.3896  -15.4123  -41.5341 H         1 UNK         0.0600 
    162 H162        4.2790  -16.3735  -40.3596 H         1 UNK         0.0600 
    163 H163        3.2966  -15.0214  -39.8177 H         1 UNK         0.0600 
    164 H164        0.9388  -15.2983  -41.2810 H         1 UNK         0.3000 
    165 H165       -2.3873  -16.0953  -40.3404 H         1 UNK         0.0600 
    166 H166       -2.5104  -13.6852  -39.7678 H         1 UNK         0.0600 
    167 H167       -1.6925  -14.5701  -38.4901 H         1 UNK         0.0600 
    168 H168       -0.7544  -13.6013  -39.6202 H         1 UNK         0.0600 
    169 H169       -1.2169  -14.0557  -42.0034 H         1 UNK         0.3000 
    170 H170       -0.9770  -15.9720  -44.9532 H         1 UNK         0.0600 
    171 H171       -2.6460  -14.4499  -45.9084 H         1 UNK         0.0600 
    172 H172       -3.4587  -15.5637  -44.8301 H         1 UNK         0.0600 
    173 H173       -3.1476  -13.9106  -44.3075 H         1 UNK         0.0600 
    174 H174       -0.7784  -13.2095  -44.7707 H         1 UNK         0.3000 
    175 H175        1.6014  -12.2337  -43.3157 H         1 UNK         0.0600 
    176 H176        3.3571  -13.8683  -45.2234 H         1 UNK         0.0600 
    177 H177        3.7886  -12.2951  -44.5556 H         1 UNK         0.0600 
    178 H178        3.5974  -13.6765  -43.4901 H         1 UNK         0.0600 
    179 H179        1.2508  -12.6565  -46.2632 H         1 UNK         0.3000 
    180 H180       -0.0974   -9.3584  -46.5893 H         1 UNK         0.0600 
    181 H181        1.4383   -9.3282  -48.5211 H         1 UNK         0.0600 
    182 H182        2.3271  -10.7122  -47.8826 H         1 UNK         0.0600 
    183 H183        2.3632   -9.1692  -47.0368 H         1 UNK         0.0600 
    184 H184       -0.0277  -11.3107  -48.5466 H         1 UNK         0.3000 
    185 H185       -2.7974  -13.2686  -47.8804 H         1 UNK         0.0600 
    186 H186       -3.1208  -10.5783  -49.2862 H         1 UNK         0.0600 
    187 H187       -4.1125  -12.0125  -49.5516 H         1 UNK         0.0600 
    188 H188       -4.1405  -11.2012  -47.9949 H         1 UNK         0.0600 
    189 H189       -1.5700  -12.1324  -50.2683 H         1 UNK         0.3000 
    190 H190       -0.4141  -21.6632  -45.6254 H         1 UNK         0.3000 
    191 H191       -2.0727  -21.8709  -47.8850 H         1 UNK         0.0600 
    192 H192       -3.8195  -20.9932  -46.4325 H         1 UNK         0.0600 
    193 H193       -2.3181  -20.2497  -45.8980 H         1 UNK         0.0600 
    194 H194       -3.0202  -21.5726  -44.9833 H         1 UNK         0.0600 
    195 H195       -1.9472  -23.9672  -44.9803 H         1 UNK         0.3000 
    196 H196       -4.0495  -25.7193  -45.6913 H         1 UNK         0.0600 
    197 H197       -3.0668  -25.5866  -43.4126 H         1 UNK         0.0600 
    198 H198       -1.5512  -26.2654  -44.0016 H         1 UNK         0.0600 
    199 H199       -3.0160  -27.2381  -44.0120 H         1 UNK         0.0600 
    200 H200       -0.6123  -25.7434  -46.6304 H         1 UNK         0.3000 
    201 H201       -0.7383  -28.2761  -48.0452 H         1 UNK         0.0600 
    202 H202        1.3844  -27.4246  -47.0763 H         1 UNK         0.0600 
    203 H203        1.3384  -26.0247  -48.1442 H         1 UNK         0.0600 
    204 H204        1.5318  -27.6383  -48.8148 H         1 UNK         0.0600 
    205 H205       -0.8884  -24.8157  -48.9718 H         1 UNK         0.3000 
    206 H206       -1.0183  -25.1534  -51.7677 H         1 UNK         0.0600 
    207 H207       -2.1147  -22.8728  -50.0367 H         1 UNK         0.0600 
    208 H208       -0.4546  -23.0094  -50.6133 H         1 UNK         0.0600 
    209 H209       -1.7638  -22.7810  -51.7536 H         1 UNK         0.0600 
    210 H210       -3.6278  -24.9937  -49.3451 H         1 UNK         0.3000 
    211 H211       -5.7723  -25.5069  -49.3118 H         1 UNK         0.0600 
    212 H212       -5.0510  -27.4260  -51.6001 H         1 UNK         0.0600 
    213 H213       -6.5469  -27.4757  -50.6685 H         1 UNK         0.0600 
    214 H214       -5.0080  -27.7688  -49.8774 H         1 UNK         0.0600 
    215 H215       -6.1656  -26.1451  -52.7185 H         1 UNK         0.3000 
    216 H216       -8.0983  -24.0785  -53.1173 H         1 UNK         0.0600 
    217 H217       -7.9978  -24.8513  -55.4937 H         1 UNK         0.0600 
    218 H218       -8.1160  -26.2102  -54.3874 H         1 UNK         0.0600 
    219 H219       -6.5675  -25.8108  -55.1328 H         1 UNK         0.0600 
    220 H220       -4.5913  -24.1381  -53.5062 H         1 UNK         0.3000 
    221 H221       -4.5037  -21.6600  -55.0947 H         1 UNK         0.0600 
    222 H222       -2.2794  -23.4116  -53.9337 H         1 UNK         0.0600 
    223 H223       -2.8928  -23.4625  -55.5817 H         1 UNK         0.0600 
    224 H224       -2.0482  -22.0367  -55.0033 H         1 UNK         0.0600 
    225 H225       -5.1588  -22.1801  -51.8489 H         1 UNK         0.3000 
    226 H226       -3.3708  -20.3689  -50.5895 H         1 UNK         0.0600 
    227 H227       -4.6609  -22.1093  -49.3650 H         1 UNK         0.0600 
    228 H228       -4.9210  -20.5147  -48.6766 H         1 UNK         0.0600 
    229 H229       -6.1604  -21.2384  -49.6922 H         1 UNK         0.0600 
    230 H230       -5.9370  -19.6742  -52.7176 H         1 UNK         0.3000 
    231 H231       -6.5896  -16.9826  -51.8198 H         1 UNK         0.0600 
    232 H232       -7.7642  -16.8854  -54.0159 H         1 UNK         0.0600 
    233 H233       -8.2003  -18.3383  -53.1316 H         1 UNK         0.0600 
    234 H234       -7.0653  -18.4341  -54.4774 H         1 UNK         0.0600 
    235 H235       -4.0732  -16.8803  -51.5484 H         1 UNK         0.3000 
    236 H236       -2.1204  -15.8924  -51.9566 H         1 UNK         0.0600 
    237 H237       -3.7314  -14.0508  -53.7934 H         1 UNK         0.0600 
    238 H238       -3.6245  -13.9010  -52.0388 H         1 UNK         0.0600 
    239 H239       -2.1930  -13.6731  -53.0255 H         1 UNK         0.0600 
    240 H240       -2.7057  -18.1949  -53.7106 H         1 UNK         0.3000 
    241 H241       -1.9410  -19.3289  -55.4104 H         1 UNK         0.0600 
    242 H242       -3.5844  -16.8497  -57.8042 H         1 UNK         0.3800 
    243 H243       -3.7737  -16.9630  -56.0708 H         1 UNK         0.3800 
    244 H244        0.4709  -17.4509  -55.4000 H         1 UNK         0.0800 
    245 H245        0.3806  -18.9557  -56.2722 H         1 UNK         0.0800 
    246 H246        0.5056  -17.1813  -52.9476 H         1 UNK         0.0800 
    247 H247        2.1280  -17.8062  -53.0772 H         1 UNK         0.0800 
@<TRIPOS>BOND
     1    1    2 1    
     2    1  127 1    
     3    1  128 1    
     4    1  129 1    
     5    2    3 2    
     6    2    4 am   BACKBONE|DICT|INTERRES
     7    4    5 1    
     8    4  130 1    
     9    5    6 1    
    10    5   65 1    
    11    5  131 1    
    12    6    7 1    
    13    6  132 1    
    14    6  133 1    
    15    7    8 1    
    16    8    9 1    
    17    8  134 1    
    18    8  135 1    
    19    9   10 ar   
    20    9   14 ar   
    21   10   11 ar   
    22   10  136 1    
    23   11   12 ar   
    24   11  126 1    
    25   12   13 ar   
    26   12  137 1    
    27   13   14 ar   
    28   13   15 1    
    29   14  138 1    
    30   15   16 1    
    31   15  139 1    
    32   15  140 1    
    33   16   17 1    
    34   17   18 1    
    35   17  141 1    
    36   17  142 1    
    37   18   19 1    
    38   18   67 1    
    39   18  143 1    
    40   19   20 am   BACKBONE|DICT|INTERRES
    41   19  144 1    
    42   20   21 2    
    43   20   22 1    
    44   22   23 1    
    45   22   24 1    
    46   22  145 1    
    47   23  146 1    
    48   23  147 1    
    49   23  148 1    
    50   24   25 am   BACKBONE|DICT|INTERRES
    51   24  149 1    
    52   25   26 2    
    53   25   27 1    
    54   27   28 1    
    55   27   29 1    
    56   27  150 1    
    57   28  151 1    
    58   28  152 1    
    59   28  153 1    
    60   29   30 am   BACKBONE|DICT|INTERRES
    61   29  154 1    
    62   30   31 2    
    63   30   32 1    
    64   32   33 1    
    65   32   34 1    
    66   32  155 1    
    67   33  156 1    
    68   33  157 1    
    69   33  158 1    
    70   34   35 am   BACKBONE|DICT|INTERRES
    71   34  159 1    
    72   35   36 2    
    73   35   37 1    
    74   37   38 1    
    75   37   39 1    
    76   37  160 1    
    77   38  161 1    
    78   38  162 1    
    79   38  163 1    
    80   39   40 am   BACKBONE|DICT|INTERRES
    81   39  164 1    
    82   40   41 2    
    83   40   42 1    
    84   42   43 1    
    85   42   44 1    
    86   42  165 1    
    87   43  166 1    
    88   43  167 1    
    89   43  168 1    
    90   44   45 am   BACKBONE|DICT|INTERRES
    91   44  169 1    
    92   45   46 2    
    93   45   47 1    
    94   47   48 1    
    95   47   49 1    
    96   47  170 1    
    97   48  171 1    
    98   48  172 1    
    99   48  173 1    
   100   49   50 am   BACKBONE|DICT|INTERRES
   101   49  174 1    
   102   50   51 2    
   103   50   52 1    
   104   52   53 1    
   105   52   54 1    
   106   52  175 1    
   107   53  176 1    
   108   53  177 1    
   109   53  178 1    
   110   54   55 am   BACKBONE|DICT|INTERRES
   111   54  179 1    
   112   55   56 2    
   113   55   57 1    
   114   57   58 1    
   115   57   59 1    
   116   57  180 1    
   117   58  181 1    
   118   58  182 1    
   119   58  183 1    
   120   59   60 am   BACKBONE|DICT|INTERRES
   121   59  184 1    
   122   60   61 2    
   123   60   62 1    
   124   62   63 1    
   125   62   64 1    
   126   62  185 1    
   127   63  186 1    
   128   63  187 1    
   129   63  188 1    
   130   64   65 am   BACKBONE|DICT|INTERRES
   131   64  189 1    
   132   65   66 2    
   133   67   68 2    
   134   67   69 am   BACKBONE|DICT|INTERRES
   135   69   70 1    
   136   69  190 1    
   137   70   71 1    
   138   70   72 1    
   139   70  191 1    
   140   71  192 1    
   141   71  193 1    
   142   71  194 1    
   143   72   73 2    
   144   72   74 am   BACKBONE|DICT|INTERRES
   145   74   75 1    
   146   74  195 1    
   147   75   76 1    
   148   75   77 1    
   149   75  196 1    
   150   76  197 1    
   151   76  198 1    
   152   76  199 1    
   153   77   78 2    
   154   77   79 am   BACKBONE|DICT|INTERRES
   155   79   80 1    
   156   79  200 1    
   157   80   81 1    
   158   80   82 1    
   159   80  201 1    
   160   81  202 1    
   161   81  203 1    
   162   81  204 1    
   163   82   83 2    
   164   82   84 am   BACKBONE|DICT|INTERRES
   165   84   85 1    
   166   84  205 1    
   167   85   86 1    
   168   85   87 1    
   169   85  206 1    
   170   86  207 1    
   171   86  208 1    
   172   86  209 1    
   173   87   88 2    
   174   87   89 am   BACKBONE|DICT|INTERRES
   175   89   90 1    
   176   89  210 1    
   177   90   91 1    
   178   90   92 1    
   179   90  211 1    
   180   91  212 1    
   181   91  213 1    
   182   91  214 1    
   183   92   93 2    
   184   92   94 am   BACKBONE|DICT|INTERRES
   185   94   95 1    
   186   94  215 1    
   187   95   96 1    
   188   95   97 1    
   189   95  216 1    
   190   96  217 1    
   191   96  218 1    
   192   96  219 1    
   193   97   98 2    
   194   97   99 am   BACKBONE|DICT|INTERRES
   195   99  100 1    
   196   99  220 1    
   197  100  101 1    
   198  100  102 1    
   199  100  221 1    
   200  101  222 1    
   201  101  223 1    
   202  101  224 1    
   203  102  103 2    
   204  102  104 am   BACKBONE|DICT|INTERRES
   205  104  105 1    
   206  104  225 1    
   207  105  106 1    
   208  105  107 1    
   209  105  226 1    
   210  106  227 1    
   211  106  228 1    
   212  106  229 1    
   213  107  108 2    
   214  107  109 am   BACKBONE|DICT|INTERRES
   215  109  110 1    
   216  109  230 1    
   217  110  111 1    
   218  110  112 1    
   219  110  231 1    
   220  111  232 1    
   221  111  233 1    
   222  111  234 1    
   223  112  113 2    
   224  112  114 am   BACKBONE|DICT|INTERRES
   225  114  115 1    
   226  114  235 1    
   227  115  116 1    
   228  115  117 1    
   229  115  236 1    
   230  116  237 1    
   231  116  238 1    
   232  116  239 1    
   233  117  118 2    
   234  117  119 am   BACKBONE|DICT|INTERRES
   235  119  120 1    
   236  119  240 1    
   237  120  121 1    
   238  120  124 1    
   239  120  241 1    
   240  121  122 am   BACKBONE|DICT|INTERRES
   241  121  123 2    
   242  122  242 1    
   243  122  243 1    
   244  124  125 1    
   245  124  244 1    
   246  124  245 1    
   247  125  126 1    
   248  126  246 1    
   249  126  247 1    
@<TRIPOS>SUBSTRUCTURE
     1 UNK         1 GROUP             0       ****    0 ROOT    
