@<TRIPOS>MOLECULE
3R540
247   249    1
SMALL
USER_CHARGES


@<TRIPOS>ATOM
      1 CA          5.2509  -17.4710  -49.2952 C.3       0 UNK        -0.1800 
      2 C           5.0177  -16.7870  -47.9550 C.2       0 UNK         0.5000 
      3 O           5.8544  -16.8956  -47.0601 O.2       0 UNK        -0.5000 
      4 N           3.8830  -16.0904  -47.8226 N.am      1 UNK        -0.5000 
      5 CA          3.4417  -15.3842  -46.6169 C.3       1 UNK         0.1400 
      6 C6          2.0029  -14.8273  -46.7721 C.3       23 UNK        -0.0398 
      7 S7          0.7481  -16.1148  -47.0662 S.3       23 UNK        -0.2404 
      8 C8          0.5676  -16.0666  -48.8784 C.3       23 UNK        -0.0205 
      9 C9          0.3319  -17.4612  -49.4370 C.ar      23 UNK        -0.0193 
     10 C10        -0.8921  -17.8047  -50.0180 C.ar      23 UNK        -0.1150 
     11 C11        -1.1009  -19.0935  -50.5199 C.ar      23 UNK        -0.0193 
     12 C12        -0.0778  -20.0433  -50.4277 C.ar      23 UNK        -0.1150 
     13 C13         1.1461  -19.7155  -49.8375 C.ar      23 UNK        -0.0193 
     14 C14         1.3479  -18.4175  -49.3631 C.ar      23 UNK        -0.1150 
     15 C15         2.2521  -20.7546  -49.7113 C.3       23 UNK        -0.0205 
     16 S16         2.7720  -20.9836  -47.9752 S.3       23 UNK        -0.2404 
     17 C17         2.6268  -22.7904  -47.7429 C.3       23 UNK        -0.0398 
     18 CA          1.3858  -23.2311  -46.9286 C.3       11 UNK         0.1400 
     19 N           1.3605  -22.6510  -45.5832 N.am      11 UNK        -0.5000 
     20 C           0.5803  -23.0783  -44.5804 C.2       10 UNK         0.5000 
     21 O          -0.1774  -24.0450  -44.6758 O.2       10 UNK        -0.5000 
     22 CA          0.6164  -22.2690  -43.2672 C.3       10 UNK         0.1400 
     23 CB          1.5907  -22.9125  -42.2695 C.3       10 UNK        -0.1800 
     24 N           0.9674  -20.8530  -43.4281 N.am      10 UNK        -0.5000 
     25 C           0.3163  -19.9667  -44.1961 C.2       9 UNK         0.5000 
     26 O          -0.6492  -20.2681  -44.8958 O.2       9 UNK        -0.5000 
     27 CA          0.8175  -18.5104  -44.1985 C.3       9 UNK         0.1400 
     28 CB         -0.2588  -17.5632  -43.6462 C.3       9 UNK        -0.1800 
     29 N           2.0683  -18.3137  -43.4581 N.am      9 UNK        -0.5000 
     30 C           3.2841  -18.5923  -43.9524 C.2       8 UNK         0.5000 
     31 O           3.4536  -19.0742  -45.0713 O.2       8 UNK        -0.5000 
     32 CA          4.5132  -18.3476  -43.0481 C.3       8 UNK         0.1400 
     33 CB          5.7214  -17.7903  -43.8279 C.3       8 UNK        -0.1800 
     34 N           4.2495  -17.5410  -41.8524 N.am      8 UNK        -0.5000 
     35 C           3.8952  -16.2508  -41.7955 C.2       7 UNK         0.5000 
     36 O           3.7231  -15.5278  -42.7797 O.2       7 UNK        -0.5000 
     37 CA          3.6824  -15.6874  -40.3777 C.3       7 UNK         0.1400 
     38 CB          4.5795  -14.4670  -40.1209 C.3       7 UNK        -0.1800 
     39 N           2.2939  -15.3210  -40.1039 N.am      7 UNK        -0.5000 
     40 C           1.2160  -16.1005  -40.2607 C.2       6 UNK         0.5000 
     41 O           1.2528  -17.2448  -40.7171 O.2       6 UNK        -0.5000 
     42 CA         -0.1299  -15.5239  -39.7977 C.3       6 UNK         0.1400 
     43 CB         -0.0224  -14.2995  -38.8621 C.3       6 UNK        -0.1800 
     44 N          -0.9466  -15.1936  -40.9607 N.am      6 UNK        -0.5000 
     45 C          -2.2852  -15.2505  -40.9741 C.2       5 UNK         0.5000 
     46 O          -2.9549  -15.6030  -40.0013 O.2       5 UNK        -0.5000 
     47 CA         -3.0022  -14.8377  -42.2724 C.3       5 UNK         0.1400 
     48 CB         -4.3706  -14.1801  -42.0113 C.3       5 UNK        -0.1800 
     49 N          -2.1816  -13.9302  -43.0731 N.am      5 UNK        -0.5000 
     50 C          -2.0053  -14.0305  -44.3943 C.2       4 UNK         0.5000 
     51 O          -2.5410  -14.8941  -45.0895 O.2       4 UNK        -0.5000 
     52 CA         -1.0924  -12.9886  -45.0722 C.3       4 UNK         0.1400 
     53 CB         -1.9433  -11.9260  -45.7855 C.3       4 UNK        -0.1800 
     54 N          -0.1109  -12.3028  -44.2187 N.am      4 UNK        -0.5000 
     55 C           0.8357  -12.8820  -43.4692 C.2       3 UNK         0.5000 
     56 O           0.8706  -14.0848  -43.2059 O.2       3 UNK        -0.5000 
     57 CA          1.9585  -11.9718  -42.9564 C.3       3 UNK         0.1400 
     58 CB          1.8782  -11.7645  -41.4379 C.3       3 UNK        -0.1800 
     59 N           3.2140  -12.6230  -43.3069 N.am      3 UNK        -0.5000 
     60 C           4.2987  -12.0193  -43.8101 C.2       2 UNK         0.5000 
     61 O           4.4346  -10.7971  -43.8740 O.2       2 UNK        -0.5000 
     62 CA          5.3882  -12.9352  -44.4007 C.3       2 UNK         0.1400 
     63 CB          6.4138  -13.3520  -43.3368 C.3       2 UNK        -0.1800 
     64 N           4.7766  -14.1278  -44.9872 N.am      2 UNK        -0.5000 
     65 C           4.3910  -14.2217  -46.2642 C.2       1 UNK         0.5000 
     66 O           4.6964  -13.4046  -47.1365 O.2       1 UNK        -0.5000 
     67 C           0.0762  -23.0157  -47.7189 C.2       11 UNK         0.5000 
     68 O          -0.1604  -23.7529  -48.6739 O.2       11 UNK        -0.5000 
     69 N          -0.7685  -22.0551  -47.3125 N.am      12 UNK        -0.5000 
     70 CA         -2.0534  -21.7626  -47.9514 C.3       12 UNK         0.1400 
     71 CB         -2.6187  -20.4564  -47.3753 C.3       12 UNK        -0.1800 
     72 C          -3.0720  -22.9107  -47.8312 C.2       12 UNK         0.5000 
     73 O          -3.8749  -23.1119  -48.7453 O.2       12 UNK        -0.5000 
     74 N          -2.9924  -23.6674  -46.7280 N.am      13 UNK        -0.5000 
     75 CA         -3.7844  -24.8743  -46.4982 C.3       13 UNK         0.1400 
     76 CB         -3.7244  -25.2429  -45.0083 C.3       13 UNK        -0.1800 
     77 C          -3.3105  -26.0513  -47.3701 C.2       13 UNK         0.5000 
     78 O          -4.1415  -26.8161  -47.8594 O.2       13 UNK        -0.5000 
     79 N          -1.9883  -26.1619  -47.5632 N.am      14 UNK        -0.5000 
     80 CA         -1.3519  -27.1835  -48.3962 C.3       14 UNK         0.1400 
     81 CB          0.1441  -27.2633  -48.0534 C.3       14 UNK        -0.1800 
     82 C          -1.5576  -26.9192  -49.8984 C.2       14 UNK         0.5000 
     83 O          -1.8210  -27.8568  -50.6519 O.2       14 UNK        -0.5000 
     84 N          -1.4530  -25.6447  -50.2988 N.am      15 UNK        -0.5000 
     85 CA         -1.6779  -25.1677  -51.6636 C.3       15 UNK         0.1400 
     86 CB         -1.1707  -23.7205  -51.7766 C.3       15 UNK        -0.1800 
     87 C          -3.1526  -25.2373  -52.0990 C.2       15 UNK         0.5000 
     88 O          -3.4125  -25.3320  -53.2978 O.2       15 UNK        -0.5000 
     89 N          -4.0714  -25.1764  -51.1220 N.am      16 UNK        -0.5000 
     90 CA         -5.5225  -25.0453  -51.2651 C.3       16 UNK         0.1400 
     91 CB         -6.1395  -26.2427  -52.0181 C.3       16 UNK        -0.1800 
     92 C          -5.8652  -23.6863  -51.8981 C.2       16 UNK         0.5000 
     93 O          -6.2399  -23.6174  -53.0690 O.2       16 UNK        -0.5000 
     94 N          -5.6823  -22.6256  -51.1011 N.am      17 UNK        -0.5000 
     95 CA         -5.7627  -21.2042  -51.4571 C.3       17 UNK         0.1400 
     96 CB         -5.7582  -20.3877  -50.1586 C.3       17 UNK        -0.1800 
     97 C          -6.9482  -20.7638  -52.3367 C.2       17 UNK         0.5000 
     98 O          -6.7763  -19.8695  -53.1666 O.2       17 UNK        -0.5000 
     99 N          -8.1168  -21.3892  -52.1472 N.am      18 UNK        -0.5000 
    100 CA        -9.3292  -21.1282  -52.9246 C.3       18 UNK         0.1400 
    101 CB       -10.5375  -21.7137  -52.1782 C.3       18 UNK        -0.1800 
    102 C         -9.2631  -21.6845  -54.3608 C.2       18 UNK         0.5000 
    103 O         -9.8536  -21.0918  -55.2641 O.2       18 UNK        -0.5000 
    104 N         -8.5504  -22.8030  -54.5478 N.am      19 UNK        -0.5000 
    105 CA        -8.3391  -23.4520  -55.8418 C.3       19 UNK         0.1400 
    106 CB        -8.2138  -24.9698  -55.6345 C.3       19 UNK        -0.1800 
    107 C         -7.0897  -22.8946  -56.5423 C.2       19 UNK         0.5000 
    108 O         -7.1092  -22.6958  -57.7574 O.2       19 UNK        -0.5000 
    109 N         -6.0352  -22.6286  -55.7587 N.am      20 UNK        -0.5000 
    110 CA        -4.7803  -22.0233  -56.2106 C.3       20 UNK         0.1400 
    111 CB        -3.7166  -22.2276  -55.1227 C.3       20 UNK        -0.1800 
    112 C         -4.9116  -20.5288  -56.5680 C.2       20 UNK         0.5000 
    113 O         -4.0591  -20.0040  -57.2843 O.2       20 UNK        -0.5000 
    114 N         -5.9674  -19.8796  -56.0561 N.am      21 UNK        -0.5000 
    115 CA        -6.3529  -18.4746  -56.2316 C.3       21 UNK         0.1400 
    116 CB        -6.5508  -18.1232  -57.7208 C.3       21 UNK        -0.1800 
    117 C         -5.4424  -17.4661  -55.4994 C.2       21 UNK         0.5000 
    118 O         -5.6117  -16.2592  -55.6815 O.2       21 UNK        -0.5000 
    119 N         -4.5262  -17.9598  -54.6575 N.am      22 UNK        -0.5000 
    120 CA        -3.7146  -17.1578  -53.7289 C.3       22 UNK         0.1400 
    121 C         -4.4661  -16.7339  -52.4329 C.2       22 UNK         0.5000 
    122 N         -5.6528  -17.2572  -52.1458 N.am      22 UNK        -0.7600 
    123 O         -3.9691  -15.9004  -51.6810 O.2       22 UNK        -0.5000 
    124 C124       -2.3398  -17.8138  -53.4261 C.3       23 UNK        -0.0398 
    125 S125       -2.4184  -19.5717  -52.9328 S.3       23 UNK        -0.2404 
    126 C126       -2.4471  -19.4754  -51.1168 C.3       23 UNK        -0.0205 
    127 H127        5.2533  -18.5534  -49.1655 H         1 UNK         0.0600 
    128 H128        6.2145  -17.1726  -49.7080 H         1 UNK         0.0600 
    129 H129        4.4777  -17.2182  -50.0213 H         1 UNK         0.0600 
    130 H130        3.2591  -16.0214  -48.6108 H         1 UNK         0.3000 
    131 H131        3.4468  -16.1031  -45.7946 H         1 UNK         0.0600 
    132 H132        1.7130  -14.3127  -45.8566 H         1 UNK         0.0800 
    133 H133        1.9499  -14.0798  -47.5660 H         1 UNK         0.0800 
    134 H134       -0.2556  -15.3978  -49.1342 H         1 UNK         0.0800 
    135 H135        1.4591  -15.6488  -49.3461 H         1 UNK         0.0800 
    136 H136       -1.6855  -17.0721  -50.0735 H         1 UNK         0.1150 
    137 H137       -0.2420  -21.0423  -50.8052 H         1 UNK         0.1150 
    138 H138        2.2906  -18.1632  -48.9018 H         1 UNK         0.1150 
    139 H139        1.9276  -21.7025  -50.1422 H         1 UNK         0.0800 
    140 H140        3.1128  -20.4298  -50.2972 H         1 UNK         0.0800 
    141 H141        2.6576  -23.3011  -48.7067 H         1 UNK         0.0800 
    142 H142        3.5261  -23.1202  -47.2213 H         1 UNK         0.0800 
    143 H143        1.4716  -24.3119  -46.7964 H         1 UNK         0.0600 
    144 H144        1.9317  -21.8295  -45.4408 H         1 UNK         0.3000 
    145 H145       -0.3872  -22.3079  -42.8392 H         1 UNK         0.0600 
    146 H146        1.5502  -22.4151  -41.3003 H         1 UNK         0.0600 
    147 H147        1.3448  -23.9624  -42.1041 H         1 UNK         0.0600 
    148 H148        2.6199  -22.8688  -42.6280 H         1 UNK         0.0600 
    149 H149        1.7462  -20.5151  -42.8832 H         1 UNK         0.3000 
    150 H150        0.9910  -18.2497  -45.2424 H         1 UNK         0.0600 
    151 H151        0.0841  -16.5298  -43.6634 H         1 UNK         0.0600 
    152 H152       -0.5328  -17.8143  -42.6215 H         1 UNK         0.0600 
    153 H153       -1.1666  -17.6084  -44.2493 H         1 UNK         0.0600 
    154 H154        1.9843  -17.9266  -42.5233 H         1 UNK         0.3000 
    155 H155        4.7988  -19.3334  -42.6787 H         1 UNK         0.0600 
    156 H156        6.0193  -18.4688  -44.6280 H         1 UNK         0.0600 
    157 H157        6.5862  -17.6598  -43.1777 H         1 UNK         0.0600 
    158 H158        5.5008  -16.8282  -44.2882 H         1 UNK         0.0600 
    159 H159        4.3242  -18.0442  -40.9791 H         1 UNK         0.3000 
    160 H160        3.9568  -16.4561  -39.6525 H         1 UNK         0.0600 
    161 H161        4.3298  -13.6347  -40.7793 H         1 UNK         0.0600 
    162 H162        5.6294  -14.7142  -40.2821 H         1 UNK         0.0600 
    163 H163        4.4863  -14.1177  -39.0925 H         1 UNK         0.0600 
    164 H164        2.1514  -14.3971  -39.7262 H         1 UNK         0.3000 
    165 H165       -0.6091  -16.3292  -39.2367 H         1 UNK         0.0600 
    166 H166        0.3435  -13.4151  -39.3823 H         1 UNK         0.0600 
    167 H167       -0.9963  -14.0475  -38.4421 H         1 UNK         0.0600 
    168 H168        0.6419  -14.4987  -38.0201 H         1 UNK         0.0600 
    169 H169       -0.4405  -14.9493  -41.8071 H         1 UNK         0.3000 
    170 H170       -3.1719  -15.7687  -42.8171 H         1 UNK         0.0600 
    171 H171       -5.0364  -14.8521  -41.4685 H         1 UNK         0.0600 
    172 H172       -4.2697  -13.2674  -41.4230 H         1 UNK         0.0600 
    173 H173       -4.8679  -13.9226  -42.9466 H         1 UNK         0.0600 
    174 H174       -1.7005  -13.1957  -42.5740 H         1 UNK         0.3000 
    175 H175       -0.5301  -13.5267  -45.8360 H         1 UNK         0.0600 
    176 H176       -2.5019  -11.3167  -45.0739 H         1 UNK         0.0600 
    177 H177       -1.3237  -11.2602  -46.3866 H         1 UNK         0.0600 
    178 H178       -2.6658  -12.3878  -46.4600 H         1 UNK         0.0600 
    179 H179       -0.0674  -11.3012  -44.3405 H         1 UNK         0.3000 
    180 H180        1.8843  -11.0022  -43.4535 H         1 UNK         0.0600 
    181 H181        1.9903  -12.7047  -40.9025 H         1 UNK         0.0600 
    182 H182        0.9207  -11.3286  -41.1502 H         1 UNK         0.0600 
    183 H183        2.6625  -11.0906  -41.0931 H         1 UNK         0.0600 
    184 H184        3.1817  -13.6386  -43.2723 H         1 UNK         0.3000 
    185 H185        5.9190  -12.3683  -45.1685 H         1 UNK         0.0600 
    186 H186        7.2306  -13.9187  -43.7839 H         1 UNK         0.0600 
    187 H187        6.8499  -12.4795  -42.8491 H         1 UNK         0.0600 
    188 H188        5.9661  -13.9735  -42.5642 H         1 UNK         0.0600 
    189 H189        4.4593  -14.8260  -44.3178 H         1 UNK         0.3000 
    190 H190       -0.5276  -21.4850  -46.5078 H         1 UNK         0.3000 
    191 H191       -1.8630  -21.6201  -49.0132 H         1 UNK         0.0600 
    192 H192       -3.5274  -20.1505  -47.8890 H         1 UNK         0.0600 
    193 H193       -1.9025  -19.6400  -47.4756 H         1 UNK         0.0600 
    194 H194       -2.8656  -20.5587  -46.3182 H         1 UNK         0.0600 
    195 H195       -2.2923  -23.4403  -46.0352 H         1 UNK         0.3000 
    196 H196       -4.8243  -24.6618  -46.7560 H         1 UNK         0.0600 
    197 H197       -4.3220  -26.1317  -44.8018 H         1 UNK         0.0600 
    198 H198       -4.1155  -24.4370  -44.3871 H         1 UNK         0.0600 
    199 H199       -2.7036  -25.4504  -44.6843 H         1 UNK         0.0600 
    200 H200       -1.3806  -25.4745  -47.1431 H         1 UNK         0.3000 
    201 H201       -1.8044  -28.1492  -48.1608 H         1 UNK         0.0600 
    202 H202        0.2956  -27.4898  -46.9978 H         1 UNK         0.0600 
    203 H203        0.6623  -26.3299  -48.2741 H         1 UNK         0.0600 
    204 H204        0.6323  -28.0513  -48.6281 H         1 UNK         0.0600 
    205 H205       -1.1467  -24.9462  -49.6244 H         1 UNK         0.3000 
    206 H206       -1.0971  -25.7926  -52.3450 H         1 UNK         0.0600 
    207 H207       -0.1108  -23.6517  -51.5308 H         1 UNK         0.0600 
    208 H208       -1.2957  -23.3375  -52.7904 H         1 UNK         0.0600 
    209 H209       -1.7148  -23.0540  -51.1064 H         1 UNK         0.0600 
    210 H210       -3.7242  -25.0677  -50.1788 H         1 UNK         0.3000 
    211 H211       -5.9355  -25.0473  -50.2550 H         1 UNK         0.0600 
    212 H212       -5.8152  -26.2931  -53.0575 H         1 UNK         0.0600 
    213 H213       -7.2278  -26.1733  -52.0249 H         1 UNK         0.0600 
    214 H214       -5.8754  -27.1855  -51.5391 H         1 UNK         0.0600 
    215 H215       -5.3023  -22.8098  -50.1777 H         1 UNK         0.3000 
    216 H216       -4.8552  -20.9734  -52.0137 H         1 UNK         0.0600 
    217 H217       -5.7379  -19.3170  -50.3578 H         1 UNK         0.0600 
    218 H218       -4.8830  -20.6221  -49.5589 H         1 UNK         0.0600 
    219 H219       -6.6406  -20.5934  -49.5515 H         1 UNK         0.0600 
    220 H220       -8.1689  -22.1106  -51.4434 H         1 UNK         0.3000 
    221 H221       -9.4654  -20.0468  -52.9953 H         1 UNK         0.0600 
    222 H222      -11.4641  -21.5152  -52.7187 H         1 UNK         0.0600 
    223 H223      -10.4522  -22.7946  -52.0587 H         1 UNK         0.0600 
    224 H224      -10.6403  -21.2725  -51.1867 H         1 UNK         0.0600 
    225 H225       -8.0177  -23.1791  -53.7705 H         1 UNK         0.3000 
    226 H226       -9.2002  -23.2706  -56.4887 H         1 UNK         0.0600 
    227 H227       -9.1108  -25.3784  -55.1692 H         1 UNK         0.0600 
    228 H228       -8.0784  -25.4831  -56.5873 H         1 UNK         0.0600 
    229 H229       -7.3631  -25.2244  -55.0012 H         1 UNK         0.0600 
    230 H230       -6.0892  -22.8860  -54.7758 H         1 UNK         0.3000 
    231 H231       -4.4515  -22.5447  -57.1119 H         1 UNK         0.0600 
    232 H232       -2.7759  -21.7439  -55.3892 H         1 UNK         0.0600 
    233 H233       -3.5056  -23.2865  -54.9799 H         1 UNK         0.0600 
    234 H234       -4.0390  -21.8208  -54.1646 H         1 UNK         0.0600 
    235 H235       -6.5600  -20.3994  -55.4223 H         1 UNK         0.3000 
    236 H236       -7.3273  -18.3860  -55.7492 H         1 UNK         0.0600 
    237 H237       -5.6052  -18.0957  -58.2623 H         1 UNK         0.0600 
    238 H238       -7.2010  -18.8462  -58.2136 H         1 UNK         0.0600 
    239 H239       -7.0153  -17.1428  -57.8319 H         1 UNK         0.0600 
    240 H240       -4.4637  -18.9611  -54.5479 H         1 UNK         0.3000 
    241 H241       -3.4887  -16.2154  -54.2315 H         1 UNK         0.0600 
    242 H242       -6.0604  -17.9779  -52.7293 H         1 UNK         0.3800 
    243 H243       -6.1358  -16.9511  -51.3169 H         1 UNK         0.3800 
    244 H244       -1.7825  -17.2406  -52.6842 H         1 UNK         0.0800 
    245 H245       -1.7307  -17.7722  -54.3297 H         1 UNK         0.0800 
    246 H246       -2.7415  -20.4530  -50.7382 H         1 UNK         0.0800 
    247 H247       -3.2235  -18.7822  -50.7924 H         1 UNK         0.0800 
@<TRIPOS>BOND
     1    1    2 1    
     2    1  127 1    
     3    1  128 1    
     4    1  129 1    
     5    2    3 2    
     6    2    4 am   BACKBONE|DICT|INTERRES
     7    4    5 1    
     8    4  130 1    
     9    5    6 1    
    10    5   65 1    
    11    5  131 1    
    12    6    7 1    
    13    6  132 1    
    14    6  133 1    
    15    7    8 1    
    16    8    9 1    
    17    8  134 1    
    18    8  135 1    
    19    9   10 ar   
    20    9   14 ar   
    21   10   11 ar   
    22   10  136 1    
    23   11   12 ar   
    24   11  126 1    
    25   12   13 ar   
    26   12  137 1    
    27   13   14 ar   
    28   13   15 1    
    29   14  138 1    
    30   15   16 1    
    31   15  139 1    
    32   15  140 1    
    33   16   17 1    
    34   17   18 1    
    35   17  141 1    
    36   17  142 1    
    37   18   19 1    
    38   18   67 1    
    39   18  143 1    
    40   19   20 am   BACKBONE|DICT|INTERRES
    41   19  144 1    
    42   20   21 2    
    43   20   22 1    
    44   22   23 1    
    45   22   24 1    
    46   22  145 1    
    47   23  146 1    
    48   23  147 1    
    49   23  148 1    
    50   24   25 am   BACKBONE|DICT|INTERRES
    51   24  149 1    
    52   25   26 2    
    53   25   27 1    
    54   27   28 1    
    55   27   29 1    
    56   27  150 1    
    57   28  151 1    
    58   28  152 1    
    59   28  153 1    
    60   29   30 am   BACKBONE|DICT|INTERRES
    61   29  154 1    
    62   30   31 2    
    63   30   32 1    
    64   32   33 1    
    65   32   34 1    
    66   32  155 1    
    67   33  156 1    
    68   33  157 1    
    69   33  158 1    
    70   34   35 am   BACKBONE|DICT|INTERRES
    71   34  159 1    
    72   35   36 2    
    73   35   37 1    
    74   37   38 1    
    75   37   39 1    
    76   37  160 1    
    77   38  161 1    
    78   38  162 1    
    79   38  163 1    
    80   39   40 am   BACKBONE|DICT|INTERRES
    81   39  164 1    
    82   40   41 2    
    83   40   42 1    
    84   42   43 1    
    85   42   44 1    
    86   42  165 1    
    87   43  166 1    
    88   43  167 1    
    89   43  168 1    
    90   44   45 am   BACKBONE|DICT|INTERRES
    91   44  169 1    
    92   45   46 2    
    93   45   47 1    
    94   47   48 1    
    95   47   49 1    
    96   47  170 1    
    97   48  171 1    
    98   48  172 1    
    99   48  173 1    
   100   49   50 am   BACKBONE|DICT|INTERRES
   101   49  174 1    
   102   50   51 2    
   103   50   52 1    
   104   52   53 1    
   105   52   54 1    
   106   52  175 1    
   107   53  176 1    
   108   53  177 1    
   109   53  178 1    
   110   54   55 am   BACKBONE|DICT|INTERRES
   111   54  179 1    
   112   55   56 2    
   113   55   57 1    
   114   57   58 1    
   115   57   59 1    
   116   57  180 1    
   117   58  181 1    
   118   58  182 1    
   119   58  183 1    
   120   59   60 am   BACKBONE|DICT|INTERRES
   121   59  184 1    
   122   60   61 2    
   123   60   62 1    
   124   62   63 1    
   125   62   64 1    
   126   62  185 1    
   127   63  186 1    
   128   63  187 1    
   129   63  188 1    
   130   64   65 am   BACKBONE|DICT|INTERRES
   131   64  189 1    
   132   65   66 2    
   133   67   68 2    
   134   67   69 am   BACKBONE|DICT|INTERRES
   135   69   70 1    
   136   69  190 1    
   137   70   71 1    
   138   70   72 1    
   139   70  191 1    
   140   71  192 1    
   141   71  193 1    
   142   71  194 1    
   143   72   73 2    
   144   72   74 am   BACKBONE|DICT|INTERRES
   145   74   75 1    
   146   74  195 1    
   147   75   76 1    
   148   75   77 1    
   149   75  196 1    
   150   76  197 1    
   151   76  198 1    
   152   76  199 1    
   153   77   78 2    
   154   77   79 am   BACKBONE|DICT|INTERRES
   155   79   80 1    
   156   79  200 1    
   157   80   81 1    
   158   80   82 1    
   159   80  201 1    
   160   81  202 1    
   161   81  203 1    
   162   81  204 1    
   163   82   83 2    
   164   82   84 am   BACKBONE|DICT|INTERRES
   165   84   85 1    
   166   84  205 1    
   167   85   86 1    
   168   85   87 1    
   169   85  206 1    
   170   86  207 1    
   171   86  208 1    
   172   86  209 1    
   173   87   88 2    
   174   87   89 am   BACKBONE|DICT|INTERRES
   175   89   90 1    
   176   89  210 1    
   177   90   91 1    
   178   90   92 1    
   179   90  211 1    
   180   91  212 1    
   181   91  213 1    
   182   91  214 1    
   183   92   93 2    
   184   92   94 am   BACKBONE|DICT|INTERRES
   185   94   95 1    
   186   94  215 1    
   187   95   96 1    
   188   95   97 1    
   189   95  216 1    
   190   96  217 1    
   191   96  218 1    
   192   96  219 1    
   193   97   98 2    
   194   97   99 am   BACKBONE|DICT|INTERRES
   195   99  100 1    
   196   99  220 1    
   197  100  101 1    
   198  100  102 1    
   199  100  221 1    
   200  101  222 1    
   201  101  223 1    
   202  101  224 1    
   203  102  103 2    
   204  102  104 am   BACKBONE|DICT|INTERRES
   205  104  105 1    
   206  104  225 1    
   207  105  106 1    
   208  105  107 1    
   209  105  226 1    
   210  106  227 1    
   211  106  228 1    
   212  106  229 1    
   213  107  108 2    
   214  107  109 am   BACKBONE|DICT|INTERRES
   215  109  110 1    
   216  109  230 1    
   217  110  111 1    
   218  110  112 1    
   219  110  231 1    
   220  111  232 1    
   221  111  233 1    
   222  111  234 1    
   223  112  113 2    
   224  112  114 am   BACKBONE|DICT|INTERRES
   225  114  115 1    
   226  114  235 1    
   227  115  116 1    
   228  115  117 1    
   229  115  236 1    
   230  116  237 1    
   231  116  238 1    
   232  116  239 1    
   233  117  118 2    
   234  117  119 am   BACKBONE|DICT|INTERRES
   235  119  120 1    
   236  119  240 1    
   237  120  121 1    
   238  120  124 1    
   239  120  241 1    
   240  121  122 am   BACKBONE|DICT|INTERRES
   241  121  123 2    
   242  122  242 1    
   243  122  243 1    
   244  124  125 1    
   245  124  244 1    
   246  124  245 1    
   247  125  126 1    
   248  126  246 1    
   249  126  247 1    
@<TRIPOS>SUBSTRUCTURE
     1 UNK         1 GROUP             0       ****    0 ROOT    
