@<TRIPOS>MOLECULE
3R540
247   249    1
SMALL
USER_CHARGES


@<TRIPOS>ATOM
      1 CA          4.9702  -11.2310  -45.3454 C.3       0 UNK        -0.1800 
      2 C           3.7152  -12.0050  -45.7168 C.2       0 UNK         0.5000 
      3 O           2.7520  -12.0166  -44.9512 O.2       0 UNK        -0.5000 
      4 N           3.7044  -12.6468  -46.8922 N.am      1 UNK        -0.5000 
      5 CA          2.5788  -13.4511  -47.3870 C.3       1 UNK         0.1400 
      6 C6          2.9520  -14.2339  -48.6717 C.3       23 UNK        -0.0398 
      7 S7          2.1587  -15.8700  -48.7258 S.3       23 UNK        -0.2404 
      8 C8          0.7713  -15.5618  -49.8591 C.3       23 UNK        -0.0205 
      9 C9         -0.1778  -16.7465  -49.8618 C.ar      23 UNK        -0.0193 
     10 C10        -1.3798  -16.6921  -49.1534 C.ar      23 UNK        -0.1150 
     11 C11        -2.2299  -17.8006  -49.1136 C.ar      23 UNK        -0.0193 
     12 C12        -1.8777  -18.9627  -49.8081 C.ar      23 UNK        -0.1150 
     13 C13        -0.6707  -19.0320  -50.5168 C.ar      23 UNK        -0.0193 
     14 C14         0.1654  -17.9135  -50.5461 C.ar      23 UNK        -0.1150 
     15 C15        -0.2330  -20.2954  -51.2545 C.3       23 UNK        -0.0205 
     16 S16        -0.6223  -21.8582  -50.4007 S.3       23 UNK        -0.2404 
     17 C17         0.0835  -21.5772  -48.7390 C.3       23 UNK        -0.0398 
     18 CA         -0.1506  -22.7543  -47.7649 C.3       11 UNK         0.1400 
     19 N           0.5383  -22.5315  -46.4918 N.am      11 UNK        -0.5000 
     20 C           0.6800  -23.4557  -45.5318 C.2       10 UNK         0.5000 
     21 O           0.2717  -24.6117  -45.6285 O.2       10 UNK        -0.5000 
     22 CA          1.3457  -23.0021  -44.2230 C.3       10 UNK         0.1400 
     23 CB          2.8717  -22.9411  -44.3841 C.3       10 UNK        -0.1800 
     24 N           0.8419  -21.7102  -43.7578 N.am      10 UNK        -0.5000 
     25 C          -0.4279  -21.4728  -43.3979 C.2       9 UNK         0.5000 
     26 O          -1.3062  -22.3339  -43.3844 O.2       9 UNK        -0.5000 
     27 CA         -0.7911  -20.0210  -43.0395 C.3       9 UNK         0.1400 
     28 CB         -0.3432  -19.6779  -41.6116 C.3       9 UNK        -0.1800 
     29 N          -0.2271  -19.0514  -43.9776 N.am      9 UNK        -0.5000 
     30 C          -0.5212  -18.9937  -45.2848 C.2       8 UNK         0.5000 
     31 O          -1.3119  -19.7478  -45.8506 O.2       8 UNK        -0.5000 
     32 CA          0.2336  -17.9365  -46.1005 C.3       8 UNK         0.1400 
     33 CB         -0.3942  -16.5502  -45.8918 C.3       8 UNK        -0.1800 
     34 N           1.6469  -17.8989  -45.7332 N.am      8 UNK        -0.5000 
     35 C           2.5313  -18.8573  -46.0416 C.2       7 UNK         0.5000 
     36 O           2.2514  -19.8696  -46.6865 O.2       7 UNK        -0.5000 
     37 CA          3.9602  -18.6688  -45.4960 C.3       7 UNK         0.1400 
     38 CB          4.7561  -17.7083  -46.3935 C.3       7 UNK        -0.1800 
     39 N           3.9868  -18.1741  -44.1166 N.am      7 UNK        -0.5000 
     40 C           3.4977  -18.8399  -43.0606 C.2       6 UNK         0.5000 
     41 O           3.0074  -19.9648  -43.1339 O.2       6 UNK        -0.5000 
     42 CA          3.5160  -18.1214  -41.6968 C.3       6 UNK         0.1400 
     43 CB          4.8174  -18.4392  -40.9457 C.3       6 UNK        -0.1800 
     44 N           3.3362  -16.6664  -41.7516 N.am      6 UNK        -0.5000 
     45 C           2.3364  -16.0141  -42.3618 C.2       5 UNK         0.5000 
     46 O           1.4757  -16.5821  -43.0395 O.2       5 UNK        -0.5000 
     47 CA          2.3279  -14.4768  -42.1915 C.3       5 UNK         0.1400 
     48 CB          3.6970  -13.8644  -42.5387 C.3       5 UNK        -0.1800 
     49 N           1.2991  -13.8193  -43.0012 N.am      5 UNK        -0.5000 
     50 C          -0.0198  -13.8832  -42.7668 C.2       4 UNK         0.5000 
     51 O          -0.5090  -14.4087  -41.7643 O.2       4 UNK        -0.5000 
     52 CA         -0.9358  -13.2600  -43.8410 C.3       4 UNK         0.1400 
     53 CB         -2.4135  -13.1592  -43.4078 C.3       4 UNK        -0.1800 
     54 N          -0.4416  -11.9761  -44.3406 N.am      4 UNK        -0.5000 
     55 C          -0.2918  -10.8307  -43.6563 C.2       3 UNK         0.5000 
     56 O          -0.5866  -10.7002  -42.4675 O.2       3 UNK        -0.5000 
     57 CA          0.2836   -9.6202  -44.4231 C.3       3 UNK         0.1400 
     58 CB          1.5180   -9.0442  -43.7075 C.3       3 UNK        -0.1800 
     59 N           0.6536   -9.9601  -45.7985 N.am      3 UNK        -0.5000 
     60 C          -0.1440   -9.8406  -46.8689 C.2       2 UNK         0.5000 
     61 O          -1.2725   -9.3504  -46.8268 O.2       2 UNK        -0.5000 
     62 CA          0.3985  -10.3745  -48.2117 C.3       2 UNK         0.1400 
     63 CB          0.9202   -9.2175  -49.0774 C.3       2 UNK        -0.1800 
     64 N           1.4642  -11.3695  -48.0604 N.am      2 UNK        -0.5000 
     65 C           1.2965  -12.6093  -47.5768 C.2       1 UNK         0.5000 
     66 O           0.2073  -13.0580  -47.2200 O.2       1 UNK        -0.5000 
     67 C          -1.6502  -23.0665  -47.5550 C.2       11 UNK         0.5000 
     68 O          -2.1565  -24.0288  -48.1350 O.2       11 UNK        -0.5000 
     69 N          -2.3244  -22.2853  -46.7003 N.am      12 UNK        -0.5000 
     70 CA         -3.7271  -22.4847  -46.3336 C.3       12 UNK         0.1400 
     71 CB         -4.2077  -21.2981  -45.4860 C.3       12 UNK        -0.1800 
     72 C          -3.9857  -23.8157  -45.6015 C.2       12 UNK         0.5000 
     73 O          -5.0531  -24.4010  -45.7792 O.2       12 UNK        -0.5000 
     74 N          -3.0136  -24.2742  -44.8039 N.am      13 UNK        -0.5000 
     75 CA         -3.0687  -25.5422  -44.0842 C.3       13 UNK         0.1400 
     76 CB         -2.1071  -25.4944  -42.8853 C.3       13 UNK        -0.1800 
     77 C          -2.7582  -26.7459  -44.9909 C.2       13 UNK         0.5000 
     78 O          -3.5702  -27.6681  -45.0733 O.2       13 UNK        -0.5000 
     79 N          -1.5764  -26.7393  -45.6218 N.am      14 UNK        -0.5000 
     80 CA         -1.0129  -27.9049  -46.3040 C.3       14 UNK         0.1400 
     81 CB          0.5206  -27.8054  -46.2959 C.3       14 UNK        -0.1800 
     82 C          -1.5242  -28.0837  -47.7410 C.2       14 UNK         0.5000 
     83 O          -1.7462  -29.2205  -48.1604 O.2       14 UNK        -0.5000 
     84 N          -1.6828  -26.9749  -48.4740 N.am      15 UNK        -0.5000 
     85 CA         -2.0627  -26.9700  -49.8897 C.3       15 UNK         0.1400 
     86 CB         -1.0902  -26.0585  -50.6593 C.3       15 UNK        -0.1800 
     87 C          -3.5175  -26.5196  -50.1048 C.2       15 UNK         0.5000 
     88 O          -3.9578  -26.4534  -51.2524 O.2       15 UNK        -0.5000 
     89 N          -4.2262  -26.1708  -49.0189 N.am      16 UNK        -0.5000 
     90 CA         -5.5926  -25.6289  -48.9843 C.3       16 UNK         0.1400 
     91 CB         -6.6049  -26.6907  -49.4631 C.3       16 UNK        -0.1800 
     92 C          -5.7494  -24.2891  -49.7412 C.2       16 UNK         0.5000 
     93 O          -6.8685  -23.9237  -50.1041 O.2       16 UNK        -0.5000 
     94 N          -4.6221  -23.6049  -49.9988 N.am      17 UNK        -0.5000 
     95 CA         -4.4632  -22.4460  -50.8845 C.3       17 UNK         0.1400 
     96 CB         -5.1234  -21.1963  -50.2718 C.3       17 UNK        -0.1800 
     97 C          -4.9084  -22.7022  -52.3447 C.2       17 UNK         0.5000 
     98 O          -5.2722  -21.7539  -53.0443 O.2       17 UNK        -0.5000 
     99 N          -4.8810  -23.9709  -52.7849 N.am      18 UNK        -0.5000 
    100 CA        -5.3312  -24.4151  -54.1051 C.3       18 UNK         0.1400 
    101 CB        -5.2372  -25.9454  -54.1871 C.3       18 UNK        -0.1800 
    102 C         -4.5406  -23.7644  -55.2535 C.2       18 UNK         0.5000 
    103 O         -3.3241  -23.5939  -55.1415 O.2       18 UNK        -0.5000 
    104 N         -5.2591  -23.3990  -56.3241 N.am      19 UNK        -0.5000 
    105 CA        -4.8190  -22.7029  -57.5431 C.3       19 UNK         0.1400 
    106 CB        -3.7491  -23.5111  -58.3022 C.3       19 UNK        -0.1800 
    107 C         -4.3648  -21.2443  -57.3232 C.2       19 UNK         0.5000 
    108 O         -4.7016  -20.3817  -58.1350 O.2       19 UNK        -0.5000 
    109 N         -3.6248  -20.9883  -56.2385 N.am      20 UNK        -0.5000 
    110 CA        -3.1405  -19.6717  -55.8309 C.3       20 UNK         0.1400 
    111 CB        -2.0892  -19.8478  -54.7247 C.3       20 UNK        -0.1800 
    112 C         -4.2675  -18.7444  -55.3461 C.2       20 UNK         0.5000 
    113 O         -4.2317  -17.5471  -55.6357 O.2       20 UNK        -0.5000 
    114 N         -5.2212  -19.3059  -54.5840 N.am      21 UNK        -0.5000 
    115 CA        -6.3770  -18.6389  -53.9664 C.3       21 UNK         0.1400 
    116 CB        -7.3910  -18.2197  -55.0503 C.3       21 UNK        -0.1800 
    117 C         -5.9943  -17.4710  -53.0274 C.2       21 UNK         0.5000 
    118 O         -6.7931  -16.5549  -52.8242 O.2       21 UNK        -0.5000 
    119 N         -4.7652  -17.5210  -52.4969 N.am      22 UNK        -0.5000 
    120 CA        -4.0969  -16.4687  -51.7141 C.3       22 UNK         0.1400 
    121 C         -3.7969  -15.1613  -52.5114 C.2       22 UNK         0.5000 
    122 N         -3.7970  -15.1786  -53.8404 N.am      22 UNK        -0.7600 
    123 O         -3.5292  -14.1171  -51.9232 O.2       22 UNK        -0.5000 
    124 C124       -4.7647  -16.1987  -50.3342 C.3       23 UNK        -0.0398 
    125 S125       -5.0059  -17.7174  -49.3465 S.3       23 UNK        -0.2404 
    126 C126       -3.5157  -17.7455  -48.3012 C.3       23 UNK        -0.0205 
    127 H127        5.7323  -11.2968  -46.1221 H         1 UNK         0.0600 
    128 H128        5.3902  -11.6246  -44.4199 H         1 UNK         0.0600 
    129 H129        4.7285  -10.1795  -45.1910 H         1 UNK         0.0600 
    130 H130        4.5199  -12.6033  -47.4870 H         1 UNK         0.3000 
    131 H131        2.3653  -14.1721  -46.5939 H         1 UNK         0.0600 
    132 H132        4.0256  -14.4263  -48.6955 H         1 UNK         0.0800 
    133 H133        2.7379  -13.6691  -49.5812 H         1 UNK         0.0800 
    134 H134        0.2424  -14.6556  -49.5611 H         1 UNK         0.0800 
    135 H135        1.1514  -15.3867  -50.8666 H         1 UNK         0.0800 
    136 H136       -1.6418  -15.7918  -48.6153 H         1 UNK         0.1150 
    137 H137       -2.5364  -19.8182  -49.7766 H         1 UNK         0.1150 
    138 H138        1.1023  -17.9544  -51.0839 H         1 UNK         0.1150 
    139 H139       -0.7049  -20.3076  -52.2359 H         1 UNK         0.0800 
    140 H140        0.8433  -20.2738  -51.4325 H         1 UNK         0.0800 
    141 H141       -0.3258  -20.6602  -48.3142 H         1 UNK         0.0800 
    142 H142        1.1539  -21.4016  -48.8561 H         1 UNK         0.0800 
    143 H143        0.2970  -23.6436  -48.2143 H         1 UNK         0.0600 
    144 H144        0.9142  -21.6035  -46.3358 H         1 UNK         0.3000 
    145 H145        1.1140  -23.7458  -43.4578 H         1 UNK         0.0600 
    146 H146        3.3585  -22.7246  -43.4330 H         1 UNK         0.0600 
    147 H147        3.2666  -23.8929  -44.7416 H         1 UNK         0.0600 
    148 H148        3.1715  -22.1705  -45.0955 H         1 UNK         0.0600 
    149 H149        1.5238  -20.9586  -43.6888 H         1 UNK         0.3000 
    150 H150       -1.8780  -19.9283  -43.0860 H         1 UNK         0.0600 
    151 H151       -0.8249  -20.3343  -40.8860 H         1 UNK         0.0600 
    152 H152       -0.6051  -18.6525  -41.3492 H         1 UNK         0.0600 
    153 H153        0.7334  -19.7918  -41.4896 H         1 UNK         0.0600 
    154 H154        0.4305  -18.3759  -43.6047 H         1 UNK         0.3000 
    155 H155        0.1570  -18.1991  -47.1577 H         1 UNK         0.0600 
    156 H156       -1.4424  -16.5490  -46.1905 H         1 UNK         0.0600 
    157 H157        0.1144  -15.7892  -46.4826 H         1 UNK         0.0600 
    158 H158       -0.3584  -16.2451  -44.8471 H         1 UNK         0.0600 
    159 H159        1.9310  -17.1530  -45.1122 H         1 UNK         0.3000 
    160 H160        4.4528  -19.6433  -45.5137 H         1 UNK         0.0600 
    161 H161        4.3335  -16.7026  -46.3837 H         1 UNK         0.0600 
    162 H162        4.7563  -18.0519  -47.4288 H         1 UNK         0.0600 
    163 H163        5.7960  -17.6395  -46.0740 H         1 UNK         0.0600 
    164 H164        4.3678  -17.2519  -43.9671 H         1 UNK         0.3000 
    165 H165        2.6859  -18.5202  -41.1120 H         1 UNK         0.0600 
    166 H166        4.7966  -18.0401  -39.9314 H         1 UNK         0.0600 
    167 H167        4.9698  -19.5165  -40.8652 H         1 UNK         0.0600 
    168 H168        5.6873  -18.0217  -41.4543 H         1 UNK         0.0600 
    169 H169        4.0082  -16.1241  -41.2287 H         1 UNK         0.3000 
    170 H170        2.1163  -14.2663  -41.1414 H         1 UNK         0.0600 
    171 H171        4.4765  -14.2042  -41.8564 H         1 UNK         0.0600 
    172 H172        4.0078  -14.1269  -43.5505 H         1 UNK         0.0600 
    173 H173        3.6706  -12.7768  -42.4667 H         1 UNK         0.0600 
    174 H174        1.6284  -13.3152  -43.8176 H         1 UNK         0.3000 
    175 H175       -0.8995  -13.9359  -44.6951 H         1 UNK         0.0600 
    176 H176       -2.5367  -12.5407  -42.5185 H         1 UNK         0.0600 
    177 H177       -3.0284  -12.7341  -44.2010 H         1 UNK         0.0600 
    178 H178       -2.8191  -14.1451  -43.1776 H         1 UNK         0.0600 
    179 H179       -0.1518  -11.9831  -45.3104 H         1 UNK         0.3000 
    180 H180       -0.4882   -8.8480  -44.4314 H         1 UNK         0.0600 
    181 H181        2.3094   -9.7863  -43.6015 H         1 UNK         0.0600 
    182 H182        1.2625   -8.6959  -42.7061 H         1 UNK         0.0600 
    183 H183        1.9272   -8.1923  -44.2506 H         1 UNK         0.0600 
    184 H184        1.5455  -10.4252  -45.9054 H         1 UNK         0.3000 
    185 H185       -0.4348  -10.8466  -48.7366 H         1 UNK         0.0600 
    186 H186        0.1434   -8.4690  -49.2392 H         1 UNK         0.0600 
    187 H187        1.7677   -8.7150  -48.6094 H         1 UNK         0.0600 
    188 H188        1.2379   -9.5705  -50.0587 H         1 UNK         0.0600 
    189 H189        2.3977  -11.0700  -48.3029 H         1 UNK         0.3000 
    190 H190       -1.8572  -21.4826  -46.2841 H         1 UNK         0.3000 
    191 H191       -4.3114  -22.5001  -47.2554 H         1 UNK         0.0600 
    192 H192       -4.1144  -20.3602  -46.0327 H         1 UNK         0.0600 
    193 H193       -5.2573  -21.4116  -45.2122 H         1 UNK         0.0600 
    194 H194       -3.6338  -21.2060  -44.5635 H         1 UNK         0.0600 
    195 H195       -2.1955  -23.6950  -44.6495 H         1 UNK         0.3000 
    196 H196       -4.0782  -25.6755  -43.6889 H         1 UNK         0.0600 
    197 H197       -2.1174  -26.4368  -42.3365 H         1 UNK         0.0600 
    198 H198       -2.3923  -24.7081  -42.1862 H         1 UNK         0.0600 
    199 H199       -1.0790  -25.3044  -43.1954 H         1 UNK         0.0600 
    200 H200       -0.9660  -25.9277  -45.5377 H         1 UNK         0.3000 
    201 H201       -1.2851  -28.8017  -45.7428 H         1 UNK         0.0600 
    202 H202        0.9050  -27.7116  -45.2800 H         1 UNK         0.0600 
    203 H203        0.8727  -26.9460  -46.8677 H         1 UNK         0.0600 
    204 H204        0.9718  -28.6965  -46.7340 H         1 UNK         0.0600 
    205 H205       -1.5258  -26.0667  -48.0517 H         1 UNK         0.3000 
    206 H206       -1.9788  -27.9727  -50.3133 H         1 UNK         0.0600 
    207 H207       -0.0575  -26.3786  -50.5207 H         1 UNK         0.0600 
    208 H208       -1.2945  -26.0830  -51.7305 H         1 UNK         0.0600 
    209 H209       -1.1635  -25.0195  -50.3394 H         1 UNK         0.0600 
    210 H210       -3.7553  -26.2240  -48.1268 H         1 UNK         0.3000 
    211 H211       -5.8187  -25.4189  -47.9411 H         1 UNK         0.0600 
    212 H212       -6.5056  -26.8954  -50.5295 H         1 UNK         0.0600 
    213 H213       -7.6299  -26.3612  -49.2893 H         1 UNK         0.0600 
    214 H214       -6.4737  -27.6305  -48.9268 H         1 UNK         0.0600 
    215 H215       -3.7614  -23.9744  -49.6104 H         1 UNK         0.3000 
    216 H216       -3.3934  -22.2546  -50.9385 H         1 UNK         0.0600 
    217 H217       -4.9021  -20.3092  -50.8658 H         1 UNK         0.0600 
    218 H218       -4.7550  -21.0082  -49.2634 H         1 UNK         0.0600 
    219 H219       -6.2081  -21.2921  -50.2220 H         1 UNK         0.0600 
    220 H220       -4.5464  -24.6990  -52.1628 H         1 UNK         0.3000 
    221 H221       -6.3814  -24.1310  -54.1984 H         1 UNK         0.0600 
    222 H222       -4.2087  -26.2897  -54.0696 H         1 UNK         0.0600 
    223 H223       -5.8394  -26.4200  -53.4120 H         1 UNK         0.0600 
    224 H224       -5.5986  -26.3105  -55.1492 H         1 UNK         0.0600 
    225 H225       -6.2545  -23.5712  -56.2886 H         1 UNK         0.3000 
    226 H226       -5.7013  -22.6560  -58.1835 H         1 UNK         0.0600 
    227 H227       -4.0926  -24.5250  -58.5074 H         1 UNK         0.0600 
    228 H228       -3.5204  -23.0451  -59.2614 H         1 UNK         0.0600 
    229 H229       -2.8144  -23.5793  -57.7453 H         1 UNK         0.0600 
    230 H230       -3.3823  -21.7780  -55.6464 H         1 UNK         0.3000 
    231 H231       -2.6620  -19.1993  -56.6913 H         1 UNK         0.0600 
    232 H232       -2.5066  -20.3579  -53.8553 H         1 UNK         0.0600 
    233 H233       -1.7044  -18.8835  -54.3896 H         1 UNK         0.0600 
    234 H234       -1.2393  -20.4320  -55.0781 H         1 UNK         0.0600 
    235 H235       -5.1284  -20.2887  -54.3407 H         1 UNK         0.3000 
    236 H236       -6.8570  -19.3872  -53.3342 H         1 UNK         0.0600 
    237 H237       -7.6524  -19.0619  -55.6910 H         1 UNK         0.0600 
    238 H238       -8.3163  -17.8548  -54.6032 H         1 UNK         0.0600 
    239 H239       -6.9978  -17.4250  -55.6848 H         1 UNK         0.0600 
    240 H240       -4.1957  -18.3222  -52.7215 H         1 UNK         0.3000 
    241 H241       -3.1046  -16.8702  -51.5164 H         1 UNK         0.0600 
    242 H242       -3.5926  -14.3295  -54.3427 H         1 UNK         0.3800 
    243 H243       -4.0054  -16.0261  -54.3586 H         1 UNK         0.3800 
    244 H244       -4.1705  -15.4948  -49.7495 H         1 UNK         0.0800 
    245 H245       -5.7376  -15.7258  -50.4722 H         1 UNK         0.0800 
    246 H246       -3.5247  -16.8748  -47.6442 H         1 UNK         0.0800 
    247 H247       -3.5575  -18.6188  -47.6492 H         1 UNK         0.0800 
@<TRIPOS>BOND
     1    1    2 1    
     2    1  127 1    
     3    1  128 1    
     4    1  129 1    
     5    2    3 2    
     6    2    4 am   BACKBONE|DICT|INTERRES
     7    4    5 1    
     8    4  130 1    
     9    5    6 1    
    10    5   65 1    
    11    5  131 1    
    12    6    7 1    
    13    6  132 1    
    14    6  133 1    
    15    7    8 1    
    16    8    9 1    
    17    8  134 1    
    18    8  135 1    
    19    9   10 ar   
    20    9   14 ar   
    21   10   11 ar   
    22   10  136 1    
    23   11   12 ar   
    24   11  126 1    
    25   12   13 ar   
    26   12  137 1    
    27   13   14 ar   
    28   13   15 1    
    29   14  138 1    
    30   15   16 1    
    31   15  139 1    
    32   15  140 1    
    33   16   17 1    
    34   17   18 1    
    35   17  141 1    
    36   17  142 1    
    37   18   19 1    
    38   18   67 1    
    39   18  143 1    
    40   19   20 am   BACKBONE|DICT|INTERRES
    41   19  144 1    
    42   20   21 2    
    43   20   22 1    
    44   22   23 1    
    45   22   24 1    
    46   22  145 1    
    47   23  146 1    
    48   23  147 1    
    49   23  148 1    
    50   24   25 am   BACKBONE|DICT|INTERRES
    51   24  149 1    
    52   25   26 2    
    53   25   27 1    
    54   27   28 1    
    55   27   29 1    
    56   27  150 1    
    57   28  151 1    
    58   28  152 1    
    59   28  153 1    
    60   29   30 am   BACKBONE|DICT|INTERRES
    61   29  154 1    
    62   30   31 2    
    63   30   32 1    
    64   32   33 1    
    65   32   34 1    
    66   32  155 1    
    67   33  156 1    
    68   33  157 1    
    69   33  158 1    
    70   34   35 am   BACKBONE|DICT|INTERRES
    71   34  159 1    
    72   35   36 2    
    73   35   37 1    
    74   37   38 1    
    75   37   39 1    
    76   37  160 1    
    77   38  161 1    
    78   38  162 1    
    79   38  163 1    
    80   39   40 am   BACKBONE|DICT|INTERRES
    81   39  164 1    
    82   40   41 2    
    83   40   42 1    
    84   42   43 1    
    85   42   44 1    
    86   42  165 1    
    87   43  166 1    
    88   43  167 1    
    89   43  168 1    
    90   44   45 am   BACKBONE|DICT|INTERRES
    91   44  169 1    
    92   45   46 2    
    93   45   47 1    
    94   47   48 1    
    95   47   49 1    
    96   47  170 1    
    97   48  171 1    
    98   48  172 1    
    99   48  173 1    
   100   49   50 am   BACKBONE|DICT|INTERRES
   101   49  174 1    
   102   50   51 2    
   103   50   52 1    
   104   52   53 1    
   105   52   54 1    
   106   52  175 1    
   107   53  176 1    
   108   53  177 1    
   109   53  178 1    
   110   54   55 am   BACKBONE|DICT|INTERRES
   111   54  179 1    
   112   55   56 2    
   113   55   57 1    
   114   57   58 1    
   115   57   59 1    
   116   57  180 1    
   117   58  181 1    
   118   58  182 1    
   119   58  183 1    
   120   59   60 am   BACKBONE|DICT|INTERRES
   121   59  184 1    
   122   60   61 2    
   123   60   62 1    
   124   62   63 1    
   125   62   64 1    
   126   62  185 1    
   127   63  186 1    
   128   63  187 1    
   129   63  188 1    
   130   64   65 am   BACKBONE|DICT|INTERRES
   131   64  189 1    
   132   65   66 2    
   133   67   68 2    
   134   67   69 am   BACKBONE|DICT|INTERRES
   135   69   70 1    
   136   69  190 1    
   137   70   71 1    
   138   70   72 1    
   139   70  191 1    
   140   71  192 1    
   141   71  193 1    
   142   71  194 1    
   143   72   73 2    
   144   72   74 am   BACKBONE|DICT|INTERRES
   145   74   75 1    
   146   74  195 1    
   147   75   76 1    
   148   75   77 1    
   149   75  196 1    
   150   76  197 1    
   151   76  198 1    
   152   76  199 1    
   153   77   78 2    
   154   77   79 am   BACKBONE|DICT|INTERRES
   155   79   80 1    
   156   79  200 1    
   157   80   81 1    
   158   80   82 1    
   159   80  201 1    
   160   81  202 1    
   161   81  203 1    
   162   81  204 1    
   163   82   83 2    
   164   82   84 am   BACKBONE|DICT|INTERRES
   165   84   85 1    
   166   84  205 1    
   167   85   86 1    
   168   85   87 1    
   169   85  206 1    
   170   86  207 1    
   171   86  208 1    
   172   86  209 1    
   173   87   88 2    
   174   87   89 am   BACKBONE|DICT|INTERRES
   175   89   90 1    
   176   89  210 1    
   177   90   91 1    
   178   90   92 1    
   179   90  211 1    
   180   91  212 1    
   181   91  213 1    
   182   91  214 1    
   183   92   93 2    
   184   92   94 am   BACKBONE|DICT|INTERRES
   185   94   95 1    
   186   94  215 1    
   187   95   96 1    
   188   95   97 1    
   189   95  216 1    
   190   96  217 1    
   191   96  218 1    
   192   96  219 1    
   193   97   98 2    
   194   97   99 am   BACKBONE|DICT|INTERRES
   195   99  100 1    
   196   99  220 1    
   197  100  101 1    
   198  100  102 1    
   199  100  221 1    
   200  101  222 1    
   201  101  223 1    
   202  101  224 1    
   203  102  103 2    
   204  102  104 am   BACKBONE|DICT|INTERRES
   205  104  105 1    
   206  104  225 1    
   207  105  106 1    
   208  105  107 1    
   209  105  226 1    
   210  106  227 1    
   211  106  228 1    
   212  106  229 1    
   213  107  108 2    
   214  107  109 am   BACKBONE|DICT|INTERRES
   215  109  110 1    
   216  109  230 1    
   217  110  111 1    
   218  110  112 1    
   219  110  231 1    
   220  111  232 1    
   221  111  233 1    
   222  111  234 1    
   223  112  113 2    
   224  112  114 am   BACKBONE|DICT|INTERRES
   225  114  115 1    
   226  114  235 1    
   227  115  116 1    
   228  115  117 1    
   229  115  236 1    
   230  116  237 1    
   231  116  238 1    
   232  116  239 1    
   233  117  118 2    
   234  117  119 am   BACKBONE|DICT|INTERRES
   235  119  120 1    
   236  119  240 1    
   237  120  121 1    
   238  120  124 1    
   239  120  241 1    
   240  121  122 am   BACKBONE|DICT|INTERRES
   241  121  123 2    
   242  122  242 1    
   243  122  243 1    
   244  124  125 1    
   245  124  244 1    
   246  124  245 1    
   247  125  126 1    
   248  126  246 1    
   249  126  247 1    
@<TRIPOS>SUBSTRUCTURE
     1 UNK         1 GROUP             0       ****    0 ROOT    
