@<TRIPOS>MOLECULE
3R540
247   249    1
SMALL
USER_CHARGES


@<TRIPOS>ATOM
      1 CA         -0.4271  -11.1865  -44.0110 C.3       0 UNK        -0.1800 
      2 C          -0.2086  -10.5392  -45.3702 C.2       0 UNK         0.5000 
      3 O          -0.2237   -9.3110  -45.4565 O.2       0 UNK        -0.5000 
      4 N           0.0059  -11.3390  -46.4269 N.am      1 UNK        -0.5000 
      5 CA          0.2651  -10.8692  -47.7961 C.3       1 UNK         0.1400 
      6 C6          0.1681  -11.9982  -48.8600 C.3       23 UNK        -0.0398 
      7 S7          1.3757  -13.3573  -48.6822 S.3       23 UNK        -0.2404 
      8 C8          1.0012  -14.3962  -50.1275 C.3       23 UNK        -0.0205 
      9 C9          0.1270  -15.5800  -49.7466 C.ar      23 UNK        -0.0193 
     10 C10        -1.2571  -15.5355  -49.9407 C.ar      23 UNK        -0.1150 
     11 C11        -2.0599  -16.6239  -49.5835 C.ar      23 UNK        -0.0193 
     12 C12        -1.4581  -17.7530  -49.0216 C.ar      23 UNK        -0.1150 
     13 C13        -0.0759  -17.8222  -48.8330 C.ar      23 UNK        -0.0193 
     14 C14         0.7112  -16.7284  -49.2028 C.ar      23 UNK        -0.1150 
     15 C15         0.5713  -19.0735  -48.2458 C.3       23 UNK        -0.0205 
     16 S16        -0.0263  -19.4624  -46.5675 S.3       23 UNK        -0.2404 
     17 C17        -1.3970  -20.6337  -46.8817 C.3       23 UNK        -0.0398 
     18 CA         -0.9790  -22.0935  -46.6061 C.3       11 UNK         0.1400 
     19 N          -0.6041  -22.3174  -45.2094 N.am      11 UNK        -0.5000 
     20 C           0.0327  -23.4075  -44.7642 C.2       10 UNK         0.5000 
     21 O           0.3661  -24.3455  -45.4874 O.2       10 UNK        -0.5000 
     22 CA          0.3124  -23.4721  -43.2555 C.3       10 UNK         0.1400 
     23 CB          1.5642  -22.6573  -42.8959 C.3       10 UNK        -0.1800 
     24 N          -0.8285  -22.9851  -42.4825 N.am      10 UNK        -0.5000 
     25 C          -1.9436  -23.6927  -42.2593 C.2       9 UNK         0.5000 
     26 O          -2.1124  -24.8464  -42.6567 O.2       9 UNK        -0.5000 
     27 CA         -3.0694  -22.9810  -41.4832 C.3       9 UNK         0.1400 
     28 CB         -2.8311  -23.0841  -39.9693 C.3       9 UNK        -0.1800 
     29 N          -3.2308  -21.5720  -41.8526 N.am      9 UNK        -0.5000 
     30 C          -3.6195  -21.1554  -43.0651 C.2       8 UNK         0.5000 
     31 O          -3.8659  -21.9153  -43.9980 O.2       8 UNK        -0.5000 
     32 CA         -3.7087  -19.6375  -43.2994 C.3       8 UNK         0.1400 
     33 CB         -5.0453  -19.0908  -42.7765 C.3       8 UNK        -0.1800 
     34 N          -2.6103  -18.8380  -42.7475 N.am      8 UNK        -0.5000 
     35 C          -1.2998  -19.0847  -42.8750 C.2       7 UNK         0.5000 
     36 O          -0.8306  -20.1328  -43.3209 O.2       7 UNK        -0.5000 
     37 CA         -0.3570  -17.9223  -42.5221 C.3       7 UNK         0.1400 
     38 CB          0.9766  -18.4195  -41.9388 C.3       7 UNK        -0.1800 
     39 N          -0.0875  -17.1616  -43.7390 N.am      7 UNK        -0.5000 
     40 C          -0.9428  -16.3128  -44.3260 C.2       6 UNK         0.5000 
     41 O          -1.9959  -15.9391  -43.8061 O.2       6 UNK        -0.5000 
     42 CA         -0.5573  -15.8410  -45.7425 C.3       6 UNK         0.1400 
     43 CB         -1.3747  -14.6322  -46.2370 C.3       6 UNK        -0.1800 
     44 N           0.8898  -15.6427  -45.9005 N.am      6 UNK        -0.5000 
     45 C           1.6563  -14.7149  -45.3095 C.2       5 UNK         0.5000 
     46 O           1.2132  -13.8106  -44.6023 O.2       5 UNK        -0.5000 
     47 CA          3.1775  -14.8165  -45.5232 C.3       5 UNK         0.1400 
     48 CB          3.6044  -15.7359  -46.6907 C.3       5 UNK        -0.1800 
     49 N           3.7504  -13.4801  -45.6849 N.am      5 UNK        -0.5000 
     50 C           5.0196  -13.1568  -45.4082 C.2       4 UNK         0.5000 
     51 O           5.8423  -13.9534  -44.9536 O.2       4 UNK        -0.5000 
     52 CA          5.4591  -11.7107  -45.6892 C.3       4 UNK         0.1400 
     53 CB          5.8929  -11.5603  -47.1561 C.3       4 UNK        -0.1800 
     54 N           4.4117  -10.7322  -45.3966 N.am      4 UNK        -0.5000 
     55 C           4.2695  -10.1032  -44.2202 C.2       3 UNK         0.5000 
     56 O           4.9577  -10.3692  -43.2331 O.2       3 UNK        -0.5000 
     57 CA          3.1934   -8.9936  -44.1092 C.3       3 UNK         0.1400 
     58 CB          3.6576   -7.8101  -43.2355 C.3       3 UNK        -0.1800 
     59 N           2.6764   -8.5150  -45.3968 N.am      3 UNK        -0.5000 
     60 C           3.3508   -7.9254  -46.3983 C.2       2 UNK         0.5000 
     61 O           4.5224   -7.5553  -46.3096 O.2       2 UNK        -0.5000 
     62 CA          2.5924   -7.7740  -47.7420 C.3       2 UNK         0.1400 
     63 CB          3.5405   -7.8203  -48.9584 C.3       2 UNK        -0.1800 
     64 N           1.4976   -8.7444  -47.9129 N.am      2 UNK        -0.5000 
     65 C           1.5946  -10.0820  -47.8440 C.2       1 UNK         0.5000 
     66 O           2.6638  -10.6742  -47.6916 O.2       1 UNK        -0.5000 
     67 C          -2.0498  -23.0954  -47.0868 C.2       11 UNK         0.5000 
     68 O          -1.9555  -23.5717  -48.2176 O.2       11 UNK        -0.5000 
     69 N          -3.0102  -23.4477  -46.2185 N.am      12 UNK        -0.5000 
     70 CA         -4.0015  -24.4990  -46.4566 C.3       12 UNK         0.1400 
     71 CB         -5.0155  -24.5437  -45.3042 C.3       12 UNK        -0.1800 
     72 C          -3.3533  -25.8779  -46.6633 C.2       12 UNK         0.5000 
     73 O          -3.7035  -26.5714  -47.6194 O.2       12 UNK        -0.5000 
     74 N          -2.3858  -26.2176  -45.7972 N.am      13 UNK        -0.5000 
     75 CA         -1.5868  -27.4430  -45.8740 C.3       13 UNK         0.1400 
     76 CB         -0.7284  -27.5807  -44.6078 C.3       13 UNK        -0.1800 
     77 C          -0.7180  -27.5164  -47.1448 C.2       13 UNK         0.5000 
     78 O          -0.5538  -28.6007  -47.7040 O.2       13 UNK        -0.5000 
     79 N          -0.2447  -26.3596  -47.6277 N.am      14 UNK        -0.5000 
     80 CA          0.4523  -26.1734  -48.9042 C.3       14 UNK         0.1400 
     81 CB          1.3071  -24.8960  -48.8200 C.3       14 UNK        -0.1800 
     82 C          -0.5070  -26.1588  -50.1195 C.2       14 UNK         0.5000 
     83 O          -0.3208  -25.3635  -51.0434 O.2       14 UNK        -0.5000 
     84 N          -1.5212  -27.0361  -50.0965 N.am      15 UNK        -0.5000 
     85 CA         -2.5510  -27.2535  -51.1163 C.3       15 UNK         0.1400 
     86 CB         -1.9326  -27.9336  -52.3558 C.3       15 UNK        -0.1800 
     87 C          -3.3346  -25.9730  -51.4676 C.2       15 UNK         0.5000 
     88 O          -3.5209  -25.6741  -52.6477 O.2       15 UNK        -0.5000 
     89 N          -3.7485  -25.2218  -50.4358 N.am      16 UNK        -0.5000 
     90 CA         -4.4323  -23.9235  -50.5271 C.3       16 UNK         0.1400 
     91 CB         -5.8468  -24.0987  -51.1175 C.3       16 UNK        -0.1800 
     92 C          -3.5927  -22.8664  -51.2761 C.2       16 UNK         0.5000 
     93 O          -4.1182  -22.1468  -52.1288 O.2       16 UNK        -0.5000 
     94 N          -2.2954  -22.8276  -50.9420 N.am      17 UNK        -0.5000 
     95 CA         -1.2164  -22.0588  -51.5655 C.3       17 UNK         0.1400 
     96 CB         -1.3767  -20.5570  -51.2753 C.3       17 UNK        -0.1800 
     97 C          -1.0674  -22.3818  -53.0643 C.2       17 UNK         0.5000 
     98 O          -1.0718  -21.4774  -53.9001 O.2       17 UNK        -0.5000 
     99 N          -0.9569  -23.6842  -53.3625 N.am      18 UNK        -0.5000 
    100 CA        -0.8751  -24.2830  -54.6982 C.3       18 UNK         0.1400 
    101 CB         0.4666  -23.9294  -55.3730 C.3       18 UNK        -0.1800 
    102 C         -2.1049  -23.9485  -55.5702 C.2       18 UNK         0.5000 
    103 O         -1.9633  -23.4490  -56.6882 O.2       18 UNK        -0.5000 
    104 N         -3.2924  -24.2394  -55.0218 N.am      19 UNK        -0.5000 
    105 CA        -4.6210  -24.0678  -55.6148 C.3       19 UNK         0.1400 
    106 CB        -4.7974  -24.9844  -56.8438 C.3       19 UNK        -0.1800 
    107 C         -4.9984  -22.5971  -55.8941 C.2       19 UNK         0.5000 
    108 O         -5.7206  -22.3186  -56.8531 O.2       19 UNK        -0.5000 
    109 N         -4.5415  -21.6818  -55.0292 N.am      20 UNK        -0.5000 
    110 CA        -4.9124  -20.2630  -55.0453 C.3       20 UNK         0.1400 
    111 CB        -3.7340  -19.4337  -54.5178 C.3       20 UNK        -0.1800 
    112 C         -6.1882  -19.9782  -54.2243 C.2       20 UNK         0.5000 
    113 O         -6.6523  -18.8376  -54.2129 O.2       20 UNK        -0.5000 
    114 N         -6.7248  -21.0129  -53.5584 N.am      21 UNK        -0.5000 
    115 CA        -7.9028  -21.0126  -52.6844 C.3       21 UNK         0.1400 
    116 CB        -9.1676  -20.5291  -53.4257 C.3       21 UNK        -0.1800 
    117 C         -7.6632  -20.2863  -51.3439 C.2       21 UNK         0.5000 
    118 O         -8.6105  -19.7776  -50.7426 O.2       21 UNK        -0.5000 
    119 N         -6.4073  -20.2855  -50.8778 N.am      22 UNK        -0.5000 
    120 CA        -5.9893  -19.7196  -49.5824 C.3       22 UNK         0.1400 
    121 C         -6.2467  -20.6486  -48.3547 C.2       22 UNK         0.5000 
    122 N         -6.8523  -21.8199  -48.5073 N.am      22 UNK        -0.7600 
    123 O         -5.8949  -20.2959  -47.2330 O.2       22 UNK        -0.5000 
    124 C124       -4.5156  -19.2468  -49.6171 C.3       23 UNK        -0.0398 
    125 S125       -4.2146  -17.9139  -50.8329 S.3       23 UNK        -0.2404 
    126 C126       -3.5729  -16.5640  -49.7802 C.3       23 UNK        -0.0205 
    127 H127       -1.0487  -10.5489  -43.3823 H         1 UNK         0.0600 
    128 H128        0.5281  -11.3333  -43.5072 H         1 UNK         0.0600 
    129 H129       -0.9237  -12.1508  -44.0963 H         1 UNK         0.0600 
    130 H130        0.0788  -12.3372  -46.2832 H         1 UNK         0.3000 
    131 H131       -0.5362  -10.1665  -48.0353 H         1 UNK         0.0600 
    132 H132       -0.8329  -12.4307  -48.8383 H         1 UNK         0.0800 
    133 H133        0.2818  -11.5695  -49.8570 H         1 UNK         0.0800 
    134 H134        1.9402  -14.7605  -50.5467 H         1 UNK         0.0800 
    135 H135        0.5306  -13.8033  -50.9130 H         1 UNK         0.0800 
    136 H136       -1.7079  -14.6492  -50.3642 H         1 UNK         0.1150 
    137 H137       -2.0696  -18.5858  -48.7309 H         1 UNK         0.1150 
    138 H138        1.7826  -16.7650  -49.0665 H         1 UNK         0.1150 
    139 H139        0.4161  -19.9236  -48.9094 H         1 UNK         0.0800 
    140 H140        1.6525  -18.9401  -48.1874 H         1 UNK         0.0800 
    141 H141       -1.7351  -20.5388  -47.9115 H         1 UNK         0.0800 
    142 H142       -2.2439  -20.3525  -46.2539 H         1 UNK         0.0800 
    143 H143       -0.0884  -22.2890  -47.2071 H         1 UNK         0.0600 
    144 H144       -0.7975  -21.5629  -44.5552 H         1 UNK         0.3000 
    145 H145        0.4994  -24.5152  -42.9909 H         1 UNK         0.0600 
    146 H146        1.7879  -22.7279  -41.8314 H         1 UNK         0.0600 
    147 H147        1.4473  -21.6020  -43.1444 H         1 UNK         0.0600 
    148 H148        2.4363  -23.0260  -43.4373 H         1 UNK         0.0600 
    149 H149       -0.8103  -22.0081  -42.2189 H         1 UNK         0.3000 
    150 H150       -4.0039  -23.4965  -41.7154 H         1 UNK         0.0600 
    151 H151       -2.7254  -24.1251  -39.6609 H         1 UNK         0.0600 
    152 H152       -3.6663  -22.6638  -39.4089 H         1 UNK         0.0600 
    153 H153       -1.9244  -22.5584  -39.6670 H         1 UNK         0.0600 
    154 H154       -3.0244  -20.8817  -41.1457 H         1 UNK         0.3000 
    155 H155       -3.6888  -19.4840  -44.3801 H         1 UNK         0.0600 
    156 H156       -5.8856  -19.6511  -43.1891 H         1 UNK         0.0600 
    157 H157       -5.1832  -18.0474  -43.0606 H         1 UNK         0.0600 
    158 H158       -5.1086  -19.1548  -41.6895 H         1 UNK         0.0600 
    159 H159       -2.8739  -17.9234  -42.4079 H         1 UNK         0.3000 
    160 H160       -0.8377  -17.2781  -41.7829 H         1 UNK         0.0600 
    161 H161        1.5294  -19.0335  -42.6512 H         1 UNK         0.0600 
    162 H162        0.8101  -19.0227  -41.0456 H         1 UNK         0.0600 
    163 H163        1.6157  -17.5839  -41.6533 H         1 UNK         0.0600 
    164 H164        0.7299  -17.4413  -44.2603 H         1 UNK         0.3000 
    165 H165       -0.8178  -16.6690  -46.3983 H         1 UNK         0.0600 
    166 H166       -1.2713  -13.7745  -45.5784 H         1 UNK         0.0600 
    167 H167       -1.0718  -14.3344  -47.2388 H         1 UNK         0.0600 
    168 H168       -2.4362  -14.8771  -46.2839 H         1 UNK         0.0600 
    169 H169        1.3490  -16.3192  -46.4928 H         1 UNK         0.3000 
    170 H170        3.5684  -15.2468  -44.5989 H         1 UNK         0.0600 
    171 H171        3.2390  -15.3685  -47.6489 H         1 UNK         0.0600 
    172 H172        4.6899  -15.8028  -46.7614 H         1 UNK         0.0600 
    173 H173        3.2400  -16.7550  -46.5573 H         1 UNK         0.0600 
    174 H174        3.1198  -12.7667  -46.0261 H         1 UNK         0.3000 
    175 H175        6.3328  -11.5021  -45.0679 H         1 UNK         0.0600 
    176 H176        5.0827  -11.8003  -47.8454 H         1 UNK         0.0600 
    177 H177        6.2218  -10.5426  -47.3679 H         1 UNK         0.0600 
    178 H178        6.7250  -12.2269  -47.3861 H         1 UNK         0.0600 
    179 H179        3.7908  -10.5004  -46.1675 H         1 UNK         0.3000 
    180 H180        2.3448   -9.4565  -43.6043 H         1 UNK         0.0600 
    181 H181        4.5566   -7.3396  -43.6342 H         1 UNK         0.0600 
    182 H182        3.8845   -8.1368  -42.2201 H         1 UNK         0.0600 
    183 H183        2.8831   -7.0466  -43.1619 H         1 UNK         0.0600 
    184 H184        1.7040   -8.7483  -45.5741 H         1 UNK         0.3000 
    185 H185        2.1288   -6.7870  -47.7181 H         1 UNK         0.0600 
    186 H186        4.0938   -8.7590  -49.0040 H         1 UNK         0.0600 
    187 H187        2.9895   -7.7101  -49.8923 H         1 UNK         0.0600 
    188 H188        4.2713   -7.0119  -48.9180 H         1 UNK         0.0600 
    189 H189        0.5724   -8.3397  -47.9641 H         1 UNK         0.3000 
    190 H190       -3.0789  -22.9636  -45.3262 H         1 UNK         0.3000 
    191 H191       -4.5472  -24.2470  -47.3656 H         1 UNK         0.0600 
    192 H192       -5.5750  -23.6105  -45.2385 H         1 UNK         0.0600 
    193 H193       -4.5277  -24.7107  -44.3430 H         1 UNK         0.0600 
    194 H194       -5.7409  -25.3451  -45.4502 H         1 UNK         0.0600 
    195 H195       -2.1616  -25.5793  -45.0454 H         1 UNK         0.3000 
    196 H196       -2.2808  -28.2855  -45.9035 H         1 UNK         0.0600 
    197 H197       -1.3471  -27.5836  -43.7102 H         1 UNK         0.0600 
    198 H198       -0.0089  -26.7678  -44.5141 H         1 UNK         0.0600 
    199 H199       -0.1661  -28.5152  -44.6186 H         1 UNK         0.0600 
    200 H200       -0.4004  -25.5208  -47.0806 H         1 UNK         0.3000 
    201 H201        1.1318  -27.0151  -49.0501 H         1 UNK         0.0600 
    202 H202        1.9703  -24.9196  -47.9551 H         1 UNK         0.0600 
    203 H203        0.6873  -24.0031  -48.7423 H         1 UNK         0.0600 
    204 H204        1.9335  -24.7837  -49.7057 H         1 UNK         0.0600 
    205 H205       -1.5762  -27.6425  -49.2870 H         1 UNK         0.3000 
    206 H206       -3.2750  -27.9449  -50.6832 H         1 UNK         0.0600 
    207 H207       -1.4210  -28.8567  -52.0838 H         1 UNK         0.0600 
    208 H208       -1.2112  -27.2861  -52.8550 H         1 UNK         0.0600 
    209 H209       -2.7006  -28.1927  -53.0856 H         1 UNK         0.0600 
    210 H210       -3.5348  -25.5498  -49.5003 H         1 UNK         0.3000 
    211 H211       -4.5431  -23.5490  -49.5106 H         1 UNK         0.0600 
    212 H212       -5.8191  -24.4114  -52.1615 H         1 UNK         0.0600 
    213 H213       -6.4049  -23.1662  -51.0736 H         1 UNK         0.0600 
    214 H214       -6.4159  -24.8424  -50.5599 H         1 UNK         0.0600 
    215 H215       -2.0029  -23.4360  -50.1828 H         1 UNK         0.3000 
    216 H216       -0.2926  -22.3874  -51.0869 H         1 UNK         0.0600 
    217 H217       -0.5216  -19.9886  -51.6422 H         1 UNK         0.0600 
    218 H218       -1.4535  -20.3795  -50.2067 H         1 UNK         0.0600 
    219 H219       -2.2688  -20.1456  -51.7406 H         1 UNK         0.0600 
    220 H220       -0.9377  -24.3402  -52.5852 H         1 UNK         0.3000 
    221 H221       -0.8911  -25.3635  -54.5489 H         1 UNK         0.0600 
    222 H222        0.5488  -22.8625  -55.5822 H         1 UNK         0.0600 
    223 H223        1.3100  -24.2137  -54.7439 H         1 UNK         0.0600 
    224 H224        0.5764  -24.4573  -56.3209 H         1 UNK         0.0600 
    225 H225       -3.2951  -24.6677  -54.0955 H         1 UNK         0.3000 
    226 H226       -5.3242  -24.4112  -54.8548 H         1 UNK         0.0600 
    227 H227       -4.5428  -26.0169  -56.6047 H         1 UNK         0.0600 
    228 H228       -5.8313  -24.9797  -57.1908 H         1 UNK         0.0600 
    229 H229       -4.1717  -24.6685  -57.6789 H         1 UNK         0.0600 
    230 H230       -3.9796  -21.9842  -54.2405 H         1 UNK         0.3000 
    231 H231       -5.1081  -19.9488  -56.0724 H         1 UNK         0.0600 
    232 H232       -3.9413  -18.3652  -54.5862 H         1 UNK         0.0600 
    233 H233       -2.8248  -19.6275  -55.0870 H         1 UNK         0.0600 
    234 H234       -3.5330  -19.6598  -53.4728 H         1 UNK         0.0600 
    235 H235       -6.2197  -21.8860  -53.6093 H         1 UNK         0.3000 
    236 H236       -8.0741  -22.0578  -52.4253 H         1 UNK         0.0600 
    237 H237       -9.1368  -19.4590  -53.6317 H         1 UNK         0.0600 
    238 H238       -9.2939  -21.0514  -54.3740 H         1 UNK         0.0600 
    239 H239      -10.0626  -20.7174  -52.8317 H         1 UNK         0.0600 
    240 H240       -5.6798  -20.7152  -51.4361 H         1 UNK         0.3000 
    241 H241       -6.5995  -18.8341  -49.3950 H         1 UNK         0.0600 
    242 H242       -7.0273  -22.3865  -47.6932 H         1 UNK         0.3800 
    243 H243       -7.2119  -22.1018  -49.4024 H         1 UNK         0.3800 
    244 H244       -3.8568  -20.0851  -49.8428 H         1 UNK         0.0800 
    245 H245       -4.2254  -18.8875  -48.6296 H         1 UNK         0.0800 
    246 H246       -3.8492  -15.6193  -50.2505 H         1 UNK         0.0800 
    247 H247       -4.0689  -16.5694  -48.8089 H         1 UNK         0.0800 
@<TRIPOS>BOND
     1    1    2 1    
     2    1  127 1    
     3    1  128 1    
     4    1  129 1    
     5    2    3 2    
     6    2    4 am   BACKBONE|DICT|INTERRES
     7    4    5 1    
     8    4  130 1    
     9    5    6 1    
    10    5   65 1    
    11    5  131 1    
    12    6    7 1    
    13    6  132 1    
    14    6  133 1    
    15    7    8 1    
    16    8    9 1    
    17    8  134 1    
    18    8  135 1    
    19    9   10 ar   
    20    9   14 ar   
    21   10   11 ar   
    22   10  136 1    
    23   11   12 ar   
    24   11  126 1    
    25   12   13 ar   
    26   12  137 1    
    27   13   14 ar   
    28   13   15 1    
    29   14  138 1    
    30   15   16 1    
    31   15  139 1    
    32   15  140 1    
    33   16   17 1    
    34   17   18 1    
    35   17  141 1    
    36   17  142 1    
    37   18   19 1    
    38   18   67 1    
    39   18  143 1    
    40   19   20 am   BACKBONE|DICT|INTERRES
    41   19  144 1    
    42   20   21 2    
    43   20   22 1    
    44   22   23 1    
    45   22   24 1    
    46   22  145 1    
    47   23  146 1    
    48   23  147 1    
    49   23  148 1    
    50   24   25 am   BACKBONE|DICT|INTERRES
    51   24  149 1    
    52   25   26 2    
    53   25   27 1    
    54   27   28 1    
    55   27   29 1    
    56   27  150 1    
    57   28  151 1    
    58   28  152 1    
    59   28  153 1    
    60   29   30 am   BACKBONE|DICT|INTERRES
    61   29  154 1    
    62   30   31 2    
    63   30   32 1    
    64   32   33 1    
    65   32   34 1    
    66   32  155 1    
    67   33  156 1    
    68   33  157 1    
    69   33  158 1    
    70   34   35 am   BACKBONE|DICT|INTERRES
    71   34  159 1    
    72   35   36 2    
    73   35   37 1    
    74   37   38 1    
    75   37   39 1    
    76   37  160 1    
    77   38  161 1    
    78   38  162 1    
    79   38  163 1    
    80   39   40 am   BACKBONE|DICT|INTERRES
    81   39  164 1    
    82   40   41 2    
    83   40   42 1    
    84   42   43 1    
    85   42   44 1    
    86   42  165 1    
    87   43  166 1    
    88   43  167 1    
    89   43  168 1    
    90   44   45 am   BACKBONE|DICT|INTERRES
    91   44  169 1    
    92   45   46 2    
    93   45   47 1    
    94   47   48 1    
    95   47   49 1    
    96   47  170 1    
    97   48  171 1    
    98   48  172 1    
    99   48  173 1    
   100   49   50 am   BACKBONE|DICT|INTERRES
   101   49  174 1    
   102   50   51 2    
   103   50   52 1    
   104   52   53 1    
   105   52   54 1    
   106   52  175 1    
   107   53  176 1    
   108   53  177 1    
   109   53  178 1    
   110   54   55 am   BACKBONE|DICT|INTERRES
   111   54  179 1    
   112   55   56 2    
   113   55   57 1    
   114   57   58 1    
   115   57   59 1    
   116   57  180 1    
   117   58  181 1    
   118   58  182 1    
   119   58  183 1    
   120   59   60 am   BACKBONE|DICT|INTERRES
   121   59  184 1    
   122   60   61 2    
   123   60   62 1    
   124   62   63 1    
   125   62   64 1    
   126   62  185 1    
   127   63  186 1    
   128   63  187 1    
   129   63  188 1    
   130   64   65 am   BACKBONE|DICT|INTERRES
   131   64  189 1    
   132   65   66 2    
   133   67   68 2    
   134   67   69 am   BACKBONE|DICT|INTERRES
   135   69   70 1    
   136   69  190 1    
   137   70   71 1    
   138   70   72 1    
   139   70  191 1    
   140   71  192 1    
   141   71  193 1    
   142   71  194 1    
   143   72   73 2    
   144   72   74 am   BACKBONE|DICT|INTERRES
   145   74   75 1    
   146   74  195 1    
   147   75   76 1    
   148   75   77 1    
   149   75  196 1    
   150   76  197 1    
   151   76  198 1    
   152   76  199 1    
   153   77   78 2    
   154   77   79 am   BACKBONE|DICT|INTERRES
   155   79   80 1    
   156   79  200 1    
   157   80   81 1    
   158   80   82 1    
   159   80  201 1    
   160   81  202 1    
   161   81  203 1    
   162   81  204 1    
   163   82   83 2    
   164   82   84 am   BACKBONE|DICT|INTERRES
   165   84   85 1    
   166   84  205 1    
   167   85   86 1    
   168   85   87 1    
   169   85  206 1    
   170   86  207 1    
   171   86  208 1    
   172   86  209 1    
   173   87   88 2    
   174   87   89 am   BACKBONE|DICT|INTERRES
   175   89   90 1    
   176   89  210 1    
   177   90   91 1    
   178   90   92 1    
   179   90  211 1    
   180   91  212 1    
   181   91  213 1    
   182   91  214 1    
   183   92   93 2    
   184   92   94 am   BACKBONE|DICT|INTERRES
   185   94   95 1    
   186   94  215 1    
   187   95   96 1    
   188   95   97 1    
   189   95  216 1    
   190   96  217 1    
   191   96  218 1    
   192   96  219 1    
   193   97   98 2    
   194   97   99 am   BACKBONE|DICT|INTERRES
   195   99  100 1    
   196   99  220 1    
   197  100  101 1    
   198  100  102 1    
   199  100  221 1    
   200  101  222 1    
   201  101  223 1    
   202  101  224 1    
   203  102  103 2    
   204  102  104 am   BACKBONE|DICT|INTERRES
   205  104  105 1    
   206  104  225 1    
   207  105  106 1    
   208  105  107 1    
   209  105  226 1    
   210  106  227 1    
   211  106  228 1    
   212  106  229 1    
   213  107  108 2    
   214  107  109 am   BACKBONE|DICT|INTERRES
   215  109  110 1    
   216  109  230 1    
   217  110  111 1    
   218  110  112 1    
   219  110  231 1    
   220  111  232 1    
   221  111  233 1    
   222  111  234 1    
   223  112  113 2    
   224  112  114 am   BACKBONE|DICT|INTERRES
   225  114  115 1    
   226  114  235 1    
   227  115  116 1    
   228  115  117 1    
   229  115  236 1    
   230  116  237 1    
   231  116  238 1    
   232  116  239 1    
   233  117  118 2    
   234  117  119 am   BACKBONE|DICT|INTERRES
   235  119  120 1    
   236  119  240 1    
   237  120  121 1    
   238  120  124 1    
   239  120  241 1    
   240  121  122 am   BACKBONE|DICT|INTERRES
   241  121  123 2    
   242  122  242 1    
   243  122  243 1    
   244  124  125 1    
   245  124  244 1    
   246  124  245 1    
   247  125  126 1    
   248  126  246 1    
   249  126  247 1    
@<TRIPOS>SUBSTRUCTURE
     1 UNK         1 GROUP             0       ****    0 ROOT    
