@<TRIPOS>MOLECULE
3R540
247   249    1
SMALL
USER_CHARGES


@<TRIPOS>ATOM
      1 CA         -5.4834  -12.4107  -47.5518 C.3       0 UNK        -0.1800 
      2 C          -4.0847  -12.8562  -47.1531 C.2       0 UNK         0.5000 
      3 O          -3.7670  -12.8828  -45.9653 O.2       0 UNK        -0.5000 
      4 N          -3.2543  -13.2252  -48.1362 N.am      1 UNK        -0.5000 
      5 CA         -1.8711  -13.6926  -47.9662 C.3       1 UNK         0.1400 
      6 C6         -1.1612  -13.9071  -49.3278 C.3       23 UNK        -0.0398 
      7 S7         -2.1024  -14.9658  -50.4863 S.3       23 UNK        -0.2404 
      8 C8         -0.7724  -15.6558  -51.5263 C.3       23 UNK        -0.0205 
      9 C9          0.1411  -16.6780  -50.8487 C.ar      23 UNK        -0.0193 
     10 C10         1.4197  -16.8764  -51.3780 C.ar      23 UNK        -0.1150 
     11 C11         2.2778  -17.8387  -50.8410 C.ar      23 UNK        -0.0193 
     12 C12         1.8559  -18.6028  -49.7506 C.ar      23 UNK        -0.1150 
     13 C13         0.5862  -18.4145  -49.2033 C.ar      23 UNK        -0.0193 
     14 C14        -0.2693  -17.4566  -49.7577 C.ar      23 UNK        -0.1150 
     15 C15         0.1313  -19.2755  -48.0382 C.3       23 UNK        -0.0205 
     16 S16         0.8340  -18.7023  -46.4585 S.3       23 UNK        -0.2404 
     17 C17        -0.0652  -19.6570  -45.1739 C.3       23 UNK        -0.0398 
     18 CA         -0.6879  -21.0143  -45.5956 C.3       11 UNK         0.1400 
     19 N           0.3424  -22.0125  -45.9076 N.am      11 UNK        -0.5000 
     20 C           0.1179  -23.2577  -46.3602 C.2       10 UNK         0.5000 
     21 O          -1.0019  -23.6823  -46.6433 O.2       10 UNK        -0.5000 
     22 CA          1.3204  -24.2231  -46.4233 C.3       10 UNK         0.1400 
     23 CB          1.8826  -24.2872  -47.8496 C.3       10 UNK        -0.1800 
     24 N           2.4082  -23.8839  -45.5031 N.am      10 UNK        -0.5000 
     25 C           2.3062  -23.7311  -44.1742 C.2       9 UNK         0.5000 
     26 O           1.2795  -23.9712  -43.5393 O.2       9 UNK        -0.5000 
     27 CA          3.5327  -23.1504  -43.4387 C.3       9 UNK         0.1400 
     28 CB          4.2776  -24.2599  -42.6813 C.3       9 UNK        -0.1800 
     29 N           4.4851  -22.4413  -44.3039 N.am      9 UNK        -0.5000 
     30 C           4.2093  -21.3758  -45.0705 C.2       8 UNK         0.5000 
     31 O           3.0891  -20.8696  -45.1575 O.2       8 UNK        -0.5000 
     32 CA          5.3715  -20.8707  -45.9463 C.3       8 UNK         0.1400 
     33 CB          5.5798  -21.8188  -47.1400 C.3       8 UNK        -0.1800 
     34 N           5.1862  -19.5189  -46.4727 N.am      8 UNK        -0.5000 
     35 C           5.1039  -18.3891  -45.7589 C.2       7 UNK         0.5000 
     36 O           5.1246  -18.3511  -44.5273 O.2       7 UNK        -0.5000 
     37 CA          5.0585  -17.0706  -46.5527 C.3       7 UNK         0.1400 
     38 CB          4.9821  -17.2369  -48.0844 C.3       7 UNK        -0.1800 
     39 N           3.9466  -16.2413  -46.0995 N.am      7 UNK        -0.5000 
     40 C           3.9864  -14.9064  -46.0142 C.2       6 UNK         0.5000 
     41 O           4.9869  -14.2385  -46.2822 O.2       6 UNK        -0.5000 
     42 CA          2.7027  -14.1702  -45.5822 C.3       6 UNK         0.1400 
     43 CB          2.0547  -13.4764  -46.7914 C.3       6 UNK        -0.1800 
     44 N           1.6902  -15.0036  -44.9345 N.am      6 UNK        -0.5000 
     45 C           1.8057  -15.5870  -43.7351 C.2       5 UNK         0.5000 
     46 O           2.8377  -15.5828  -43.0622 O.2       5 UNK        -0.5000 
     47 CA          0.5100  -16.2213  -43.1933 C.3       5 UNK         0.1400 
     48 CB          0.6795  -16.9076  -41.8232 C.3       5 UNK        -0.1800 
     49 N          -0.5815  -15.2429  -43.1664 N.am      5 UNK        -0.5000 
     50 C          -0.6278  -14.0784  -42.4996 C.2       4 UNK         0.5000 
     51 O           0.2282  -13.7046  -41.6973 O.2       4 UNK        -0.5000 
     52 CA         -1.8258  -13.1540  -42.7966 C.3       4 UNK         0.1400 
     53 CB         -1.3963  -12.0288  -43.7516 C.3       4 UNK        -0.1800 
     54 N          -2.9647  -13.8565  -43.3877 N.am      4 UNK        -0.5000 
     55 C          -3.7831  -14.6879  -42.7293 C.2       3 UNK         0.5000 
     56 O          -3.7244  -14.8925  -41.5166 O.2       3 UNK        -0.5000 
     57 CA         -4.8110  -15.4505  -43.5854 C.3       3 UNK         0.1400 
     58 CB         -6.0639  -14.5970  -43.8354 C.3       3 UNK        -0.1800 
     59 N          -4.2457  -15.8811  -44.8668 N.am      3 UNK        -0.5000 
     60 C          -3.3175  -16.8399  -44.9974 C.2       2 UNK         0.5000 
     61 O          -2.8674  -17.4846  -44.0524 O.2       2 UNK        -0.5000 
     62 CA         -2.7675  -17.0938  -46.4109 C.3       2 UNK         0.1400 
     63 CB         -3.5959  -18.1526  -47.1429 C.3       2 UNK        -0.1800 
     64 N          -2.7029  -15.8779  -47.2157 N.am      2 UNK        -0.5000 
     65 C          -1.7579  -14.9405  -47.0654 C.2       1 UNK         0.5000 
     66 O          -0.8509  -15.0143  -46.2354 O.2       1 UNK        -0.5000 
     67 C          -1.7255  -21.4872  -44.5482 C.2       11 UNK         0.5000 
     68 O          -2.8257  -20.9363  -44.5186 O.2       11 UNK        -0.5000 
     69 N          -1.4146  -22.5314  -43.7623 N.am      12 UNK        -0.5000 
     70 CA         -2.3542  -23.2198  -42.8704 C.3       12 UNK         0.1400 
     71 CB         -1.5959  -24.2829  -42.0624 C.3       12 UNK        -0.1800 
     72 C          -3.5656  -23.8557  -43.5909 C.2       12 UNK         0.5000 
     73 O          -4.5881  -24.0882  -42.9453 O.2       12 UNK        -0.5000 
     74 N          -3.4569  -24.0947  -44.9081 N.am      13 UNK        -0.5000 
     75 CA         -4.5600  -24.5284  -45.7718 C.3       13 UNK         0.1400 
     76 CB         -3.9812  -25.1586  -47.0479 C.3       13 UNK        -0.1800 
     77 C          -5.5544  -23.3973  -46.1215 C.2       13 UNK         0.5000 
     78 O          -6.5737  -23.6758  -46.7555 O.2       13 UNK        -0.5000 
     79 N          -5.2555  -22.1551  -45.7090 N.am      14 UNK        -0.5000 
     80 CA         -6.0579  -20.9441  -45.8808 C.3       14 UNK         0.1400 
     81 CB         -7.3628  -21.0322  -45.0572 C.3       14 UNK        -0.1800 
     82 C          -6.2596  -20.5976  -47.3693 C.2       14 UNK         0.5000 
     83 O          -5.2791  -20.5697  -48.1155 O.2       14 UNK        -0.5000 
     84 N          -7.5082  -20.3345  -47.7800 N.am      15 UNK        -0.5000 
     85 CA         -7.9007  -19.8735  -49.1159 C.3       15 UNK         0.1400 
     86 CB         -9.4291  -19.7344  -49.1692 C.3       15 UNK        -0.1800 
     87 C          -7.4013  -20.7468  -50.2828 C.2       15 UNK         0.5000 
     88 O          -7.1555  -20.2159  -51.3650 O.2       15 UNK        -0.5000 
     89 N          -7.2117  -22.0506  -50.0375 N.am      16 UNK        -0.5000 
     90 CA         -6.6281  -22.9942  -50.9900 C.3       16 UNK         0.1400 
     91 CB         -6.7095  -24.4150  -50.4130 C.3       16 UNK        -0.1800 
     92 C          -5.1762  -22.6444  -51.3675 C.2       16 UNK         0.5000 
     93 O          -4.8240  -22.7262  -52.5428 O.2       16 UNK        -0.5000 
     94 N          -4.3735  -22.2227  -50.3804 N.am      17 UNK        -0.5000 
     95 CA         -2.9799  -21.8190  -50.5750 C.3       17 UNK         0.1400 
     96 CB         -2.2384  -21.8744  -49.2344 C.3       17 UNK        -0.1800 
     97 C          -2.8514  -20.4238  -51.2065 C.2       17 UNK         0.5000 
     98 O          -1.8740  -20.1709  -51.9079 O.2       17 UNK        -0.5000 
     99 N          -3.8420  -19.5544  -50.9618 N.am      18 UNK        -0.5000 
    100 CA        -3.9490  -18.2425  -51.5986 C.3       18 UNK         0.1400 
    101 CB        -4.9429  -17.3689  -50.8176 C.3       18 UNK        -0.1800 
    102 C         -4.3582  -18.3474  -53.0806 C.2       18 UNK         0.5000 
    103 O         -3.8540  -17.5826  -53.9034 O.2       18 UNK        -0.5000 
    104 N         -5.2692  -19.2818  -53.3906 N.am      19 UNK        -0.5000 
    105 CA        -5.7451  -19.5654  -54.7445 C.3       19 UNK         0.1400 
    106 CB        -7.0405  -20.3883  -54.6669 C.3       19 UNK        -0.1800 
    107 C         -4.6933  -20.2893  -55.6045 C.2       19 UNK         0.5000 
    108 O         -4.5271  -19.9467  -56.7765 O.2       19 UNK        -0.5000 
    109 N         -4.0106  -21.2777  -55.0129 N.am      20 UNK        -0.5000 
    110 CA        -2.9163  -22.0255  -55.6306 C.3       20 UNK         0.1400 
    111 CB        -2.7243  -23.3391  -54.8522 C.3       20 UNK        -0.1800 
    112 C         -1.6036  -21.2175  -55.6714 C.2       20 UNK         0.5000 
    113 O         -1.5199  -20.1123  -55.1312 O.2       20 UNK        -0.5000 
    114 N         -0.5707  -21.8094  -56.2838 N.am      21 UNK        -0.5000 
    115 CA         0.8019  -21.3014  -56.2976 C.3       21 UNK         0.1400 
    116 CB         1.5499  -21.9292  -57.4877 C.3       21 UNK        -0.1800 
    117 C          1.4968  -21.5730  -54.9461 C.2       21 UNK         0.5000 
    118 O          2.3802  -22.4277  -54.8643 O.2       21 UNK        -0.5000 
    119 N          1.0384  -20.8679  -53.9055 N.am      22 UNK        -0.5000 
    120 CA         1.4788  -20.9488  -52.5003 C.3       22 UNK         0.1400 
    121 C          1.0146  -22.2241  -51.7343 C.2       22 UNK         0.5000 
    122 N          0.2392  -23.1230  -52.3284 N.am      22 UNK        -0.7600 
    123 O          1.3424  -22.3906  -50.5640 O.2       22 UNK        -0.5000 
    124 C124        3.0006  -20.6822  -52.3009 C.3       23 UNK        -0.0398 
    125 S125        3.5473  -19.0726  -52.9706 S.3       23 UNK        -0.2404 
    126 C126        3.6495  -18.0652  -51.4573 C.3       23 UNK        -0.0205 
    127 H127       -6.2288  -13.0520  -47.0816 H         1 UNK         0.0600 
    128 H128       -5.6300  -12.4519  -48.6314 H         1 UNK         0.0600 
    129 H129       -5.6572  -11.3864  -47.2227 H         1 UNK         0.0600 
    130 H130       -3.5795  -13.1981  -49.0925 H         1 UNK         0.3000 
    131 H131       -1.3369  -12.8952  -47.4452 H         1 UNK         0.0600 
    132 H132       -1.0100  -12.9417  -49.8122 H         1 UNK         0.0800 
    133 H133       -0.1616  -14.3200  -49.1801 H         1 UNK         0.0800 
    134 H134       -1.2314  -16.1366  -52.3912 H         1 UNK         0.0800 
    135 H135       -0.1793  -14.8268  -51.9158 H         1 UNK         0.0800 
    136 H136        1.7434  -16.2965  -52.2311 H         1 UNK         0.1150 
    137 H137        2.5078  -19.3559  -49.3312 H         1 UNK         0.1150 
    138 H138       -1.2599  -17.3349  -49.3460 H         1 UNK         0.1150 
    139 H139       -0.9565  -19.2623  -47.9866 H         1 UNK         0.0800 
    140 H140        0.4334  -20.3087  -48.2148 H         1 UNK         0.0800 
    141 H141       -0.8409  -18.9952  -44.7901 H         1 UNK         0.0800 
    142 H142        0.6188  -19.8091  -44.3372 H         1 UNK         0.0800 
    143 H143       -1.2776  -20.8749  -46.4996 H         1 UNK         0.0600 
    144 H144        1.2966  -21.7349  -45.6983 H         1 UNK         0.3000 
    145 H145        0.9546  -25.2148  -46.1504 H         1 UNK         0.0600 
    146 H146        2.6583  -25.0480  -47.9367 H         1 UNK         0.0600 
    147 H147        1.1009  -24.5365  -48.5687 H         1 UNK         0.0600 
    148 H148        2.3123  -23.3316  -48.1528 H         1 UNK         0.0600 
    149 H149        3.2939  -23.6565  -45.9283 H         1 UNK         0.3000 
    150 H150        3.1554  -22.4308  -42.7094 H         1 UNK         0.0600 
    151 H151        4.7041  -24.9959  -43.3640 H         1 UNK         0.0600 
    152 H152        3.6064  -24.7903  -42.0043 H         1 UNK         0.0600 
    153 H153        5.0877  -23.8511  -42.0771 H         1 UNK         0.0600 
    154 H154        5.4265  -22.8070  -44.3098 H         1 UNK         0.3000 
    155 H155        6.2772  -20.8666  -45.3365 H         1 UNK         0.0600 
    156 H156        4.7004  -21.8506  -47.7852 H         1 UNK         0.0600 
    157 H157        5.7810  -22.8385  -46.8095 H         1 UNK         0.0600 
    158 H158        6.4297  -21.5076  -47.7479 H         1 UNK         0.0600 
    159 H159        5.1361  -19.4430  -47.4770 H         1 UNK         0.3000 
    160 H160        6.0007  -16.5696  -46.3209 H         1 UNK         0.0600 
    161 H161        4.0663  -17.7462  -48.3774 H         1 UNK         0.0600 
    162 H162        5.8297  -17.8029  -48.4725 H         1 UNK         0.0600 
    163 H163        4.9931  -16.2689  -48.5857 H         1 UNK         0.0600 
    164 H164        3.1054  -16.7277  -45.8215 H         1 UNK         0.3000 
    165 H165        3.0002  -13.4003  -44.8676 H         1 UNK         0.0600 
    166 H166        2.7579  -12.8039  -47.2842 H         1 UNK         0.0600 
    167 H167        1.7191  -14.2026  -47.5327 H         1 UNK         0.0600 
    168 H168        1.1931  -12.8801  -46.4900 H         1 UNK         0.0600 
    169 H169        0.7881  -15.0505  -45.4055 H         1 UNK         0.3000 
    170 H170        0.2161  -16.9868  -43.9109 H         1 UNK         0.0600 
    171 H171        1.4284  -17.6987  -41.8769 H         1 UNK         0.0600 
    172 H172        0.9987  -16.2072  -41.0512 H         1 UNK         0.0600 
    173 H173       -0.2544  -17.3650  -41.4965 H         1 UNK         0.0600 
    174 H174       -1.3323  -15.4220  -43.8180 H         1 UNK         0.3000 
    175 H175       -2.1445  -12.7055  -41.8535 H         1 UNK         0.0600 
    176 H176       -2.2155  -11.3335  -43.9361 H         1 UNK         0.0600 
    177 H177       -0.5685  -11.4540  -43.3346 H         1 UNK         0.0600 
    178 H178       -1.0702  -12.4242  -44.7148 H         1 UNK         0.0600 
    179 H179       -3.1408  -13.6806  -44.3742 H         1 UNK         0.3000 
    180 H180       -5.1133  -16.3408  -43.0297 H         1 UNK         0.0600 
    181 H181       -5.8321  -13.6865  -44.3885 H         1 UNK         0.0600 
    182 H182       -6.5242  -14.2981  -42.8928 H         1 UNK         0.0600 
    183 H183       -6.8129  -15.1517  -44.4007 H         1 UNK         0.0600 
    184 H184       -4.5246  -15.3597  -45.6841 H         1 UNK         0.3000 
    185 H185       -1.7547  -17.4789  -46.3061 H         1 UNK         0.0600 
    186 H186       -3.5707  -19.0962  -46.5975 H         1 UNK         0.0600 
    187 H187       -4.6395  -17.8532  -47.2450 H         1 UNK         0.0600 
    188 H188       -3.2038  -18.3506  -48.1401 H         1 UNK         0.0600 
    189 H189       -3.4122  -15.7427  -47.9210 H         1 UNK         0.3000 
    190 H190       -0.4909  -22.9452  -43.8362 H         1 UNK         0.3000 
    191 H191       -2.7472  -22.4776  -42.1728 H         1 UNK         0.0600 
    192 H192       -0.7813  -23.8382  -41.4904 H         1 UNK         0.0600 
    193 H193       -2.2566  -24.7817  -41.3521 H         1 UNK         0.0600 
    194 H194       -1.1708  -25.0503  -42.7106 H         1 UNK         0.0600 
    195 H195       -2.5786  -23.8920  -45.3760 H         1 UNK         0.3000 
    196 H196       -5.1247  -25.3004  -45.2453 H         1 UNK         0.0600 
    197 H197       -4.7697  -25.5965  -47.6608 H         1 UNK         0.0600 
    198 H198       -3.2742  -25.9541  -46.8122 H         1 UNK         0.0600 
    199 H199       -3.4642  -24.4208  -47.6593 H         1 UNK         0.0600 
    200 H200       -4.3681  -22.0058  -45.2408 H         1 UNK         0.3000 
    201 H201       -5.4655  -20.1300  -45.4618 H         1 UNK         0.0600 
    202 H202       -7.9007  -20.0833  -45.0636 H         1 UNK         0.0600 
    203 H203       -8.0371  -21.8034  -45.4313 H         1 UNK         0.0600 
    204 H204       -7.1461  -21.2649  -44.0144 H         1 UNK         0.0600 
    205 H205       -8.2523  -20.4090  -47.1019 H         1 UNK         0.3000 
    206 H206       -7.4654  -18.8817  -49.2499 H         1 UNK         0.0600 
    207 H207       -9.7884  -19.0268  -48.4218 H         1 UNK         0.0600 
    208 H208       -9.7550  -19.3678  -50.1437 H         1 UNK         0.0600 
    209 H209       -9.9254  -20.6899  -48.9949 H         1 UNK         0.0600 
    210 H210       -7.4090  -22.3999  -49.1100 H         1 UNK         0.3000 
    211 H211       -7.2256  -22.9609  -51.9034 H         1 UNK         0.0600 
    212 H212       -6.1547  -24.5016  -49.4782 H         1 UNK         0.0600 
    213 H213       -6.2953  -25.1444  -51.1103 H         1 UNK         0.0600 
    214 H214       -7.7425  -24.7028  -50.2169 H         1 UNK         0.0600 
    215 H215       -4.7632  -22.0702  -49.4570 H         1 UNK         0.3000 
    216 H216       -2.5027  -22.5313  -51.2514 H         1 UNK         0.0600 
    217 H217       -1.1924  -21.5955  -49.3600 H         1 UNK         0.0600 
    218 H218       -2.2500  -22.8832  -48.8279 H         1 UNK         0.0600 
    219 H219       -2.6787  -21.2037  -48.4964 H         1 UNK         0.0600 
    220 H220       -4.5942  -19.8401  -50.3500 H         1 UNK         0.3000 
    221 H221       -2.9695  -17.7626  -51.5549 H         1 UNK         0.0600 
    222 H222       -5.9478  -17.7900  -50.8290 H         1 UNK         0.0600 
    223 H223       -4.6373  -17.2508  -49.7791 H         1 UNK         0.0600 
    224 H224       -5.0025  -16.3701  -51.2516 H         1 UNK         0.0600 
    225 H225       -5.7004  -19.8123  -52.6404 H         1 UNK         0.3000 
    226 H226       -5.9777  -18.6157  -55.2309 H         1 UNK         0.0600 
    227 H227       -7.4228  -20.6124  -55.6635 H         1 UNK         0.0600 
    228 H228       -6.8845  -21.3373  -54.1520 H         1 UNK         0.0600 
    229 H229       -7.8205  -19.8444  -54.1338 H         1 UNK         0.0600 
    230 H230       -4.2270  -21.5167  -54.0511 H         1 UNK         0.3000 
    231 H231       -3.1951  -22.2681  -56.6581 H         1 UNK         0.0600 
    232 H232       -2.4099  -23.1520  -53.8248 H         1 UNK         0.0600 
    233 H233       -1.9728  -23.9782  -55.3165 H         1 UNK         0.0600 
    234 H234       -3.6508  -23.9128  -54.8165 H         1 UNK         0.0600 
    235 H235       -0.7064  -22.7223  -56.6937 H         1 UNK         0.3000 
    236 H236        0.7843  -20.2201  -56.4506 H         1 UNK         0.0600 
    237 H237        2.5786  -21.5695  -57.5348 H         1 UNK         0.0600 
    238 H238        1.5844  -23.0171  -57.4172 H         1 UNK         0.0600 
    239 H239        1.0730  -21.6700  -58.4331 H         1 UNK         0.0600 
    240 H240        0.2409  -20.2613  -54.0701 H         1 UNK         0.3000 
    241 H241        0.9430  -20.1388  -52.0055 H         1 UNK         0.0600 
    242 H242       -0.0228  -23.0069  -53.2920 H         1 UNK         0.3800 
    243 H243       -0.0445  -23.9429  -51.8176 H         1 UNK         0.3800 
    244 H244        3.5919  -21.4664  -52.7741 H         1 UNK         0.0800 
    245 H245        3.2640  -20.7249  -51.2434 H         1 UNK         0.0800 
    246 H246        4.3225  -18.5455  -50.7459 H         1 UNK         0.0800 
    247 H247        4.1014  -17.1027  -51.7012 H         1 UNK         0.0800 
@<TRIPOS>BOND
     1    1    2 1    
     2    1  127 1    
     3    1  128 1    
     4    1  129 1    
     5    2    3 2    
     6    2    4 am   BACKBONE|DICT|INTERRES
     7    4    5 1    
     8    4  130 1    
     9    5    6 1    
    10    5   65 1    
    11    5  131 1    
    12    6    7 1    
    13    6  132 1    
    14    6  133 1    
    15    7    8 1    
    16    8    9 1    
    17    8  134 1    
    18    8  135 1    
    19    9   10 ar   
    20    9   14 ar   
    21   10   11 ar   
    22   10  136 1    
    23   11   12 ar   
    24   11  126 1    
    25   12   13 ar   
    26   12  137 1    
    27   13   14 ar   
    28   13   15 1    
    29   14  138 1    
    30   15   16 1    
    31   15  139 1    
    32   15  140 1    
    33   16   17 1    
    34   17   18 1    
    35   17  141 1    
    36   17  142 1    
    37   18   19 1    
    38   18   67 1    
    39   18  143 1    
    40   19   20 am   BACKBONE|DICT|INTERRES
    41   19  144 1    
    42   20   21 2    
    43   20   22 1    
    44   22   23 1    
    45   22   24 1    
    46   22  145 1    
    47   23  146 1    
    48   23  147 1    
    49   23  148 1    
    50   24   25 am   BACKBONE|DICT|INTERRES
    51   24  149 1    
    52   25   26 2    
    53   25   27 1    
    54   27   28 1    
    55   27   29 1    
    56   27  150 1    
    57   28  151 1    
    58   28  152 1    
    59   28  153 1    
    60   29   30 am   BACKBONE|DICT|INTERRES
    61   29  154 1    
    62   30   31 2    
    63   30   32 1    
    64   32   33 1    
    65   32   34 1    
    66   32  155 1    
    67   33  156 1    
    68   33  157 1    
    69   33  158 1    
    70   34   35 am   BACKBONE|DICT|INTERRES
    71   34  159 1    
    72   35   36 2    
    73   35   37 1    
    74   37   38 1    
    75   37   39 1    
    76   37  160 1    
    77   38  161 1    
    78   38  162 1    
    79   38  163 1    
    80   39   40 am   BACKBONE|DICT|INTERRES
    81   39  164 1    
    82   40   41 2    
    83   40   42 1    
    84   42   43 1    
    85   42   44 1    
    86   42  165 1    
    87   43  166 1    
    88   43  167 1    
    89   43  168 1    
    90   44   45 am   BACKBONE|DICT|INTERRES
    91   44  169 1    
    92   45   46 2    
    93   45   47 1    
    94   47   48 1    
    95   47   49 1    
    96   47  170 1    
    97   48  171 1    
    98   48  172 1    
    99   48  173 1    
   100   49   50 am   BACKBONE|DICT|INTERRES
   101   49  174 1    
   102   50   51 2    
   103   50   52 1    
   104   52   53 1    
   105   52   54 1    
   106   52  175 1    
   107   53  176 1    
   108   53  177 1    
   109   53  178 1    
   110   54   55 am   BACKBONE|DICT|INTERRES
   111   54  179 1    
   112   55   56 2    
   113   55   57 1    
   114   57   58 1    
   115   57   59 1    
   116   57  180 1    
   117   58  181 1    
   118   58  182 1    
   119   58  183 1    
   120   59   60 am   BACKBONE|DICT|INTERRES
   121   59  184 1    
   122   60   61 2    
   123   60   62 1    
   124   62   63 1    
   125   62   64 1    
   126   62  185 1    
   127   63  186 1    
   128   63  187 1    
   129   63  188 1    
   130   64   65 am   BACKBONE|DICT|INTERRES
   131   64  189 1    
   132   65   66 2    
   133   67   68 2    
   134   67   69 am   BACKBONE|DICT|INTERRES
   135   69   70 1    
   136   69  190 1    
   137   70   71 1    
   138   70   72 1    
   139   70  191 1    
   140   71  192 1    
   141   71  193 1    
   142   71  194 1    
   143   72   73 2    
   144   72   74 am   BACKBONE|DICT|INTERRES
   145   74   75 1    
   146   74  195 1    
   147   75   76 1    
   148   75   77 1    
   149   75  196 1    
   150   76  197 1    
   151   76  198 1    
   152   76  199 1    
   153   77   78 2    
   154   77   79 am   BACKBONE|DICT|INTERRES
   155   79   80 1    
   156   79  200 1    
   157   80   81 1    
   158   80   82 1    
   159   80  201 1    
   160   81  202 1    
   161   81  203 1    
   162   81  204 1    
   163   82   83 2    
   164   82   84 am   BACKBONE|DICT|INTERRES
   165   84   85 1    
   166   84  205 1    
   167   85   86 1    
   168   85   87 1    
   169   85  206 1    
   170   86  207 1    
   171   86  208 1    
   172   86  209 1    
   173   87   88 2    
   174   87   89 am   BACKBONE|DICT|INTERRES
   175   89   90 1    
   176   89  210 1    
   177   90   91 1    
   178   90   92 1    
   179   90  211 1    
   180   91  212 1    
   181   91  213 1    
   182   91  214 1    
   183   92   93 2    
   184   92   94 am   BACKBONE|DICT|INTERRES
   185   94   95 1    
   186   94  215 1    
   187   95   96 1    
   188   95   97 1    
   189   95  216 1    
   190   96  217 1    
   191   96  218 1    
   192   96  219 1    
   193   97   98 2    
   194   97   99 am   BACKBONE|DICT|INTERRES
   195   99  100 1    
   196   99  220 1    
   197  100  101 1    
   198  100  102 1    
   199  100  221 1    
   200  101  222 1    
   201  101  223 1    
   202  101  224 1    
   203  102  103 2    
   204  102  104 am   BACKBONE|DICT|INTERRES
   205  104  105 1    
   206  104  225 1    
   207  105  106 1    
   208  105  107 1    
   209  105  226 1    
   210  106  227 1    
   211  106  228 1    
   212  106  229 1    
   213  107  108 2    
   214  107  109 am   BACKBONE|DICT|INTERRES
   215  109  110 1    
   216  109  230 1    
   217  110  111 1    
   218  110  112 1    
   219  110  231 1    
   220  111  232 1    
   221  111  233 1    
   222  111  234 1    
   223  112  113 2    
   224  112  114 am   BACKBONE|DICT|INTERRES
   225  114  115 1    
   226  114  235 1    
   227  115  116 1    
   228  115  117 1    
   229  115  236 1    
   230  116  237 1    
   231  116  238 1    
   232  116  239 1    
   233  117  118 2    
   234  117  119 am   BACKBONE|DICT|INTERRES
   235  119  120 1    
   236  119  240 1    
   237  120  121 1    
   238  120  124 1    
   239  120  241 1    
   240  121  122 am   BACKBONE|DICT|INTERRES
   241  121  123 2    
   242  122  242 1    
   243  122  243 1    
   244  124  125 1    
   245  124  244 1    
   246  124  245 1    
   247  125  126 1    
   248  126  246 1    
   249  126  247 1    
@<TRIPOS>SUBSTRUCTURE
     1 UNK         1 GROUP             0       ****    0 ROOT    
