@<TRIPOS>MOLECULE
3R540
247   249    1
SMALL
USER_CHARGES


@<TRIPOS>ATOM
      1 CA         -5.1155  -10.2977  -48.5929 C.3       0 UNK        -0.1800 
      2 C          -4.0237  -11.1502  -47.9608 C.2       0 UNK         0.5000 
      3 O          -4.0980  -11.4457  -46.7679 O.2       0 UNK        -0.5000 
      4 N          -3.0248  -11.5481  -48.7619 N.am      1 UNK        -0.5000 
      5 CA         -1.8359  -12.3222  -48.3787 C.3       1 UNK         0.1400 
      6 C6         -2.1892  -13.6601  -47.6653 C.3       23 UNK        -0.0398 
      7 S7         -0.9002  -14.9358  -47.8535 S.3       23 UNK        -0.2404 
      8 C8         -1.4978  -15.8368  -49.3102 C.3       23 UNK        -0.0205 
      9 C9         -0.4455  -16.8147  -49.8038 C.ar      23 UNK        -0.0193 
     10 C10         0.6996  -16.3331  -50.4450 C.ar      23 UNK        -0.1150 
     11 C11         1.6857  -17.2139  -50.8941 C.ar      23 UNK        -0.0193 
     12 C12         1.5070  -18.5880  -50.7204 C.ar      23 UNK        -0.1150 
     13 C13         0.3671  -19.0832  -50.0812 C.ar      23 UNK        -0.0193 
     14 C14        -0.6056  -18.1916  -49.6179 C.ar      23 UNK        -0.1150 
     15 C15         0.1961  -20.5837  -49.9061 C.3       23 UNK        -0.0205 
     16 S16         1.3880  -21.2690  -48.7122 S.3       23 UNK        -0.2404 
     17 C17         0.5910  -20.8794  -47.1177 C.3       23 UNK        -0.0398 
     18 CA         -0.1053  -22.1218  -46.5099 C.3       11 UNK         0.1400 
     19 N          -0.2439  -22.0320  -45.0580 N.am      11 UNK        -0.5000 
     20 C          -0.6535  -23.0292  -44.2619 C.2       10 UNK         0.5000 
     21 O          -0.9256  -24.1620  -44.6601 O.2       10 UNK        -0.5000 
     22 CA         -0.8369  -22.6836  -42.7758 C.3       10 UNK         0.1400 
     23 CB          0.5067  -22.7196  -42.0319 C.3       10 UNK        -0.1800 
     24 N          -1.4638  -21.3741  -42.5995 N.am      10 UNK        -0.5000 
     25 C          -2.7408  -21.1036  -42.9011 C.2       9 UNK         0.5000 
     26 O          -3.5346  -21.9390  -43.3348 O.2       9 UNK        -0.5000 
     27 CA         -3.1960  -19.6451  -42.7182 C.3       9 UNK         0.1400 
     28 CB         -3.5330  -19.3606  -41.2469 C.3       9 UNK        -0.1800 
     29 N          -2.2093  -18.6708  -43.1892 N.am      9 UNK        -0.5000 
     30 C          -1.8523  -18.5239  -44.4721 C.2       8 UNK         0.5000 
     31 O          -2.2738  -19.2280  -45.3881 O.2       8 UNK        -0.5000 
     32 CA         -0.8350  -17.4159  -44.7861 C.3       8 UNK         0.1400 
     33 CB         -1.4754  -16.0338  -44.5890 C.3       8 UNK        -0.1800 
     34 N           0.4235  -17.4648  -44.0372 N.am      8 UNK        -0.5000 
     35 C           1.1687  -18.5401  -43.7373 C.2       7 UNK         0.5000 
     36 O           0.7984  -19.7067  -43.8651 O.2       7 UNK        -0.5000 
     37 CA          2.6060  -18.2275  -43.2762 C.3       7 UNK         0.1400 
     38 CB          3.4725  -19.4853  -43.0591 C.3       7 UNK        -0.1800 
     39 N           3.2380  -17.2876  -44.2079 N.am      7 UNK        -0.5000 
     40 C           3.4696  -17.4709  -45.5182 C.2       6 UNK         0.5000 
     41 O           3.3940  -18.5579  -46.0901 O.2       6 UNK        -0.5000 
     42 CA          3.7915  -16.2126  -46.3451 C.3       6 UNK         0.1400 
     43 CB          2.5472  -15.7843  -47.1402 C.3       6 UNK        -0.1800 
     44 N           4.2278  -15.0935  -45.5057 N.am      6 UNK        -0.5000 
     45 C           5.5056  -14.8383  -45.1925 C.2       5 UNK         0.5000 
     46 O           6.4618  -15.4629  -45.6527 O.2       5 UNK        -0.5000 
     47 CA          5.7603  -13.7118  -44.1721 C.3       5 UNK         0.1400 
     48 CB          5.9488  -12.3638  -44.8816 C.3       5 UNK        -0.1800 
     49 N           4.6920  -13.5976  -43.1754 N.am      5 UNK        -0.5000 
     50 C           4.4926  -14.4870  -42.1907 C.2       4 UNK         0.5000 
     51 O           5.2061  -15.4741  -42.0135 O.2       4 UNK        -0.5000 
     52 CA          3.2866  -14.2658  -41.2568 C.3       4 UNK         0.1400 
     53 CB          3.7359  -13.5892  -39.9529 C.3       4 UNK        -0.1800 
     54 N           2.1986  -13.4837  -41.8456 N.am      4 UNK        -0.5000 
     55 C           1.4715  -13.8383  -42.9124 C.2       3 UNK         0.5000 
     56 O           1.6664  -14.8728  -43.5552 O.2       3 UNK        -0.5000 
     57 CA          0.3486  -12.8790  -43.3561 C.3       3 UNK         0.1400 
     58 CB          0.1394  -11.6633  -42.4247 C.3       3 UNK        -0.1800 
     59 N           0.5383  -12.4374  -44.7395 N.am      3 UNK        -0.5000 
     60 C           1.5886  -11.7702  -45.2421 C.2       2 UNK         0.5000 
     61 O           2.5778  -11.4598  -44.5762 O.2       2 UNK        -0.5000 
     62 CA          1.5370  -11.3956  -46.7391 C.3       2 UNK         0.1400 
     63 CB          2.8408  -11.7821  -47.4566 C.3       2 UNK        -0.1800 
     64 N           0.4092  -12.0168  -47.4416 N.am      2 UNK        -0.5000 
     65 C          -0.8027  -11.4692  -47.5990 C.2       1 UNK         0.5000 
     66 O          -1.0947  -10.3491  -47.1729 O.2       1 UNK        -0.5000 
     67 C          -1.4582  -22.4132  -47.1855 C.2       11 UNK         0.5000 
     68 O          -1.5382  -23.3384  -47.9905 O.2       11 UNK        -0.5000 
     69 N          -2.5043  -21.6606  -46.8133 N.am      12 UNK        -0.5000 
     70 CA         -3.8729  -21.8483  -47.2945 C.3       12 UNK         0.1400 
     71 CB         -4.7761  -20.7283  -46.7601 C.3       12 UNK        -0.1800 
     72 C          -4.4493  -23.2294  -46.9414 C.2       12 UNK         0.5000 
     73 O          -5.0843  -23.8455  -47.7963 O.2       12 UNK        -0.5000 
     74 N          -4.1865  -23.7070  -45.7159 N.am      13 UNK        -0.5000 
     75 CA         -4.5697  -25.0408  -45.2521 C.3       13 UNK         0.1400 
     76 CB         -4.2966  -25.1705  -43.7461 C.3       13 UNK        -0.1800 
     77 C          -3.8717  -26.1642  -46.0402 C.2       13 UNK         0.5000 
     78 O          -4.5444  -27.0919  -46.4910 O.2       13 UNK        -0.5000 
     79 N          -2.5504  -26.0406  -46.2352 N.am      14 UNK        -0.5000 
     80 CA         -1.7342  -26.9670  -47.0272 C.3       14 UNK         0.1400 
     81 CB         -0.2504  -26.6042  -46.8649 C.3       14 UNK        -0.1800 
     82 C          -2.1280  -26.9923  -48.5172 C.2       14 UNK         0.5000 
     83 O          -2.1304  -28.0573  -49.1349 O.2       14 UNK        -0.5000 
     84 N          -2.4906  -25.8203  -49.0501 N.am      15 UNK        -0.5000 
     85 CA         -2.9895  -25.6062  -50.4070 C.3       15 UNK         0.1400 
     86 CB         -2.8143  -24.1188  -50.7395 C.3       15 UNK        -0.1800 
     87 C          -4.4635  -26.0113  -50.6102 C.2       15 UNK         0.5000 
     88 O          -4.9660  -25.8711  -51.7288 O.2       15 UNK        -0.5000 
     89 N          -5.1467  -26.4328  -49.5330 N.am      16 UNK        -0.5000 
     90 CA         -6.5680  -26.7964  -49.4521 C.3       16 UNK         0.1400 
     91 CB         -6.8231  -28.1110  -50.2172 C.3       16 UNK        -0.1800 
     92 C          -7.5186  -25.6604  -49.8939 C.2       16 UNK         0.5000 
     93 O          -8.6072  -25.9299  -50.4038 O.2       16 UNK        -0.5000 
     94 N          -7.0587  -24.4100  -49.7311 N.am      17 UNK        -0.5000 
     95 CA         -7.6383  -23.1531  -50.2162 C.3       17 UNK         0.1400 
     96 CB         -8.9537  -22.8450  -49.4729 C.3       17 UNK        -0.1800 
     97 C          -7.7960  -23.0722  -51.7545 C.2       17 UNK         0.5000 
     98 O          -8.5140  -22.1961  -52.2389 O.2       17 UNK        -0.5000 
     99 N          -7.1342  -23.9721  -52.4960 N.am      18 UNK        -0.5000 
    100 CA        -7.2555  -24.1150  -53.9451 C.3       18 UNK         0.1400 
    101 CB        -7.5137  -25.5927  -54.2819 C.3       18 UNK        -0.1800 
    102 C         -5.9970  -23.6090  -54.6621 C.2       18 UNK         0.5000 
    103 O         -6.1148  -22.8606  -55.6327 O.2       18 UNK        -0.5000 
    104 N         -4.8163  -24.0194  -54.1769 N.am      19 UNK        -0.5000 
    105 CA        -3.5224  -23.6604  -54.7697 C.3       19 UNK         0.1400 
    106 CB        -2.5288  -24.8136  -54.5459 C.3       19 UNK        -0.1800 
    107 C         -2.9592  -22.3186  -54.2538 C.2       19 UNK         0.5000 
    108 O         -1.9555  -21.8454  -54.7873 O.2       19 UNK        -0.5000 
    109 N         -3.5979  -21.7352  -53.2317 N.am      20 UNK        -0.5000 
    110 CA        -3.2675  -20.4292  -52.6649 C.3       20 UNK         0.1400 
    111 CB        -3.5133  -20.4798  -51.1474 C.3       20 UNK        -0.1800 
    112 C         -4.1518  -19.3408  -53.3101 C.2       20 UNK         0.5000 
    113 O         -5.2789  -19.6465  -53.7025 O.2       20 UNK        -0.5000 
    114 N         -3.7183  -18.0748  -53.3840 N.am      21 UNK        -0.5000 
    115 CA        -2.3862  -17.5529  -53.0668 C.3       21 UNK         0.1400 
    116 CB        -2.5127  -16.0376  -52.8364 C.3       21 UNK        -0.1800 
    117 C         -1.3723  -17.8420  -54.1920 C.2       21 UNK         0.5000 
    118 O         -1.7576  -18.2890  -55.2743 O.2       21 UNK        -0.5000 
    119 N         -0.0935  -17.5605  -53.9179 N.am      22 UNK        -0.5000 
    120 CA         1.0253  -17.7113  -54.8651 C.3       22 UNK         0.1400 
    121 C          1.0029  -16.7629  -56.1042 C.2       22 UNK         0.5000 
    122 N          0.1957  -15.7089  -56.1269 N.am      22 UNK        -0.7600 
    123 O          1.7276  -16.9962  -57.0680 O.2       22 UNK        -0.5000 
    124 C124        2.3957  -17.6627  -54.1401 C.3       23 UNK        -0.0398 
    125 S125        2.6922  -16.0986  -53.2361 S.3       23 UNK        -0.2404 
    126 C126        2.9581  -16.6779  -51.5319 C.3       23 UNK        -0.0205 
    127 H127       -4.9328  -10.1237  -49.6537 H         1 UNK         0.0600 
    128 H128       -5.1706   -9.3298  -48.0946 H         1 UNK         0.0600 
    129 H129       -6.0826  -10.7902  -48.4912 H         1 UNK         0.0600 
    130 H130       -3.0329  -11.2392  -49.7240 H         1 UNK         0.3000 
    131 H131       -1.3624  -12.5679  -49.3308 H         1 UNK         0.0600 
    132 H132       -2.3720  -13.5021  -46.6012 H         1 UNK         0.0800 
    133 H133       -3.1208  -14.0648  -48.0636 H         1 UNK         0.0800 
    134 H134       -2.4266  -16.3540  -49.0643 H         1 UNK         0.0800 
    135 H135       -1.7327  -15.1255  -50.1025 H         1 UNK         0.0800 
    136 H136        0.8335  -15.2682  -50.5755 H         1 UNK         0.1150 
    137 H137        2.2652  -19.2777  -51.0639 H         1 UNK         0.1150 
    138 H138       -1.4853  -18.5676  -49.1145 H         1 UNK         0.1150 
    139 H139       -0.8190  -20.8293  -49.5949 H         1 UNK         0.0800 
    140 H140        0.3446  -21.0719  -50.8703 H         1 UNK         0.0800 
    141 H141       -0.0910  -20.0329  -47.2162 H         1 UNK         0.0800 
    142 H142        1.3860  -20.5393  -46.4523 H         1 UNK         0.0800 
    143 H143        0.5359  -22.9877  -46.6904 H         1 UNK         0.0600 
    144 H144       -0.0070  -21.1384  -44.6304 H         1 UNK         0.3000 
    145 H145       -1.4903  -23.4388  -42.3338 H         1 UNK         0.0600 
    146 H146        0.3734  -22.5245  -40.9678 H         1 UNK         0.0600 
    147 H147        0.9768  -23.6992  -42.1265 H         1 UNK         0.0600 
    148 H148        1.2074  -21.9815  -42.4232 H         1 UNK         0.0600 
    149 H149       -0.8570  -20.6120  -42.3323 H         1 UNK         0.3000 
    150 H150       -4.1065  -19.5097  -43.3060 H         1 UNK         0.0600 
    151 H151       -4.2790  -20.0642  -40.8746 H         1 UNK         0.0600 
    152 H152       -3.9435  -18.3583  -41.1232 H         1 UNK         0.0600 
    153 H153       -2.6537  -19.4452  -40.6071 H         1 UNK         0.0600 
    154 H154       -1.7938  -18.0645  -42.4976 H         1 UNK         0.3000 
    155 H155       -0.5697  -17.5144  -45.8408 H         1 UNK         0.0600 
    156 H156       -0.8098  -15.2454  -44.9369 H         1 UNK         0.0600 
    157 H157       -1.7046  -15.8379  -43.5411 H         1 UNK         0.0600 
    158 H158       -2.4044  -15.9461  -45.1540 H         1 UNK         0.0600 
    159 H159        0.8559  -16.5586  -43.8797 H         1 UNK         0.3000 
    160 H160        2.5238  -17.7107  -42.3190 H         1 UNK         0.0600 
    161 H161        3.5392  -20.0988  -43.9579 H         1 UNK         0.0600 
    162 H162        3.0537  -20.1114  -42.2706 H         1 UNK         0.0600 
    163 H163        4.4855  -19.2175  -42.7590 H         1 UNK         0.0600 
    164 H164        3.2995  -16.3372  -43.8703 H         1 UNK         0.3000 
    165 H165        4.5745  -16.4785  -47.0584 H         1 UNK         0.0600 
    166 H166        1.7664  -15.3976  -46.4842 H         1 UNK         0.0600 
    167 H167        2.7898  -15.0165  -47.8732 H         1 UNK         0.0600 
    168 H168        2.1216  -16.6234  -47.6934 H         1 UNK         0.0600 
    169 H169        3.5012  -14.5464  -45.0647 H         1 UNK         0.3000 
    170 H170        6.6903  -13.9459  -43.6494 H         1 UNK         0.0600 
    171 H171        6.7693  -12.4112  -45.5985 H         1 UNK         0.0600 
    172 H172        5.0540  -12.0698  -45.4275 H         1 UNK         0.0600 
    173 H173        6.1831  -11.5719  -44.1701 H         1 UNK         0.0600 
    174 H174        4.0530  -12.8185  -43.2743 H         1 UNK         0.3000 
    175 H175        2.8863  -15.2510  -41.0088 H         1 UNK         0.0600 
    176 H176        4.1202  -12.5845  -40.1334 H         1 UNK         0.0600 
    177 H177        2.9120  -13.5122  -39.2433 H         1 UNK         0.0600 
    178 H178        4.5278  -14.1613  -39.4673 H         1 UNK         0.0600 
    179 H179        1.9868  -12.6042  -41.3974 H         1 UNK         0.3000 
    180 H180       -0.5724  -13.4617  -43.3371 H         1 UNK         0.0600 
    181 H181        1.0172  -11.0177  -42.3798 H         1 UNK         0.0600 
    182 H182       -0.0974  -11.9797  -41.4080 H         1 UNK         0.0600 
    183 H183       -0.6961  -11.0534  -42.7686 H         1 UNK         0.0600 
    184 H184       -0.2028  -12.6763  -45.3803 H         1 UNK         0.3000 
    185 H185        1.4410  -10.3094  -46.7931 H         1 UNK         0.0600 
    186 H186        2.7662  -11.6239  -48.5326 H         1 UNK         0.0600 
    187 H187        3.6715  -11.1716  -47.1023 H         1 UNK         0.0600 
    188 H188        3.1048  -12.8246  -47.2854 H         1 UNK         0.0600 
    189 H189        0.5655  -12.9503  -47.7991 H         1 UNK         0.3000 
    190 H190       -2.3593  -20.8908  -46.1628 H         1 UNK         0.3000 
    191 H191       -3.8518  -21.7698  -48.3825 H         1 UNK         0.0600 
    192 H192       -4.4327  -19.7511  -47.0999 H         1 UNK         0.0600 
    193 H193       -4.7974  -20.7152  -45.6697 H         1 UNK         0.0600 
    194 H194       -5.8020  -20.8518  -47.1095 H         1 UNK         0.0600 
    195 H195       -3.6923  -23.1188  -45.0538 H         1 UNK         0.3000 
    196 H196       -5.6452  -25.1483  -45.4080 H         1 UNK         0.0600 
    197 H197       -4.5855  -26.1564  -43.3800 H         1 UNK         0.0600 
    198 H198       -4.8657  -24.4339  -43.1789 H         1 UNK         0.0600 
    199 H199       -3.2415  -25.0290  -43.5118 H         1 UNK         0.0600 
    200 H200       -2.0617  -25.2576  -45.8090 H         1 UNK         0.3000 
    201 H201       -1.8859  -27.9716  -46.6272 H         1 UNK         0.0600 
    202 H202        0.0567  -26.6607  -45.8205 H         1 UNK         0.0600 
    203 H203       -0.0427  -25.5938  -47.2192 H         1 UNK         0.0600 
    204 H204        0.3843  -27.2885  -47.4291 H         1 UNK         0.0600 
    205 H205       -2.3781  -24.9822  -48.4849 H         1 UNK         0.3000 
    206 H206       -2.3888  -26.1942  -51.1034 H         1 UNK         0.0600 
    207 H207       -1.7644  -23.8258  -50.7224 H         1 UNK         0.0600 
    208 H208       -3.2009  -23.8870  -51.7266 H         1 UNK         0.0600 
    209 H209       -3.3537  -23.4902  -50.0320 H         1 UNK         0.0600 
    210 H210       -4.6499  -26.4656  -48.6514 H         1 UNK         0.3000 
    211 H211       -6.7778  -26.9762  -48.3969 H         1 UNK         0.0600 
    212 H212       -6.6908  -27.9843  -51.2923 H         1 UNK         0.0600 
    213 H213       -7.8391  -28.4712  -50.0521 H         1 UNK         0.0600 
    214 H214       -6.1444  -28.8970  -49.8859 H         1 UNK         0.0600 
    215 H215       -6.1868  -24.3055  -49.2152 H         1 UNK         0.3000 
    216 H216       -6.9210  -22.3754  -49.9500 H         1 UNK         0.0600 
    217 H217       -8.8143  -22.8887  -48.3927 H         1 UNK         0.0600 
    218 H218       -9.7428  -23.5489  -49.7388 H         1 UNK         0.0600 
    219 H219       -9.3152  -21.8439  -49.7107 H         1 UNK         0.0600 
    220 H220       -6.5462  -24.6528  -52.0268 H         1 UNK         0.3000 
    221 H221       -8.1047  -23.5379  -54.3172 H         1 UNK         0.0600 
    222 H222       -6.7057  -26.2374  -53.9333 H         1 UNK         0.0600 
    223 H223       -8.4381  -25.9425  -53.8218 H         1 UNK         0.0600 
    224 H224       -7.6101  -25.7377  -55.3586 H         1 UNK         0.0600 
    225 H225       -4.8018  -24.6560  -53.3871 H         1 UNK         0.3000 
    226 H226       -3.6453  -23.5500  -55.8493 H         1 UNK         0.0600 
    227 H227       -2.8979  -25.7386  -54.9893 H         1 UNK         0.0600 
    228 H228       -1.5665  -24.5962  -55.0110 H         1 UNK         0.0600 
    229 H229       -2.3436  -25.0039  -53.4904 H         1 UNK         0.0600 
    230 H230       -4.4621  -22.1513  -52.9196 H         1 UNK         0.3000 
    231 H231       -2.2117  -20.2207  -52.8393 H         1 UNK         0.0600 
    232 H232       -3.2972  -19.5196  -50.6785 H         1 UNK         0.0600 
    233 H233       -2.8731  -21.2215  -50.6733 H         1 UNK         0.0600 
    234 H234       -4.5484  -20.7321  -50.9133 H         1 UNK         0.0600 
    235 H235       -4.3356  -17.4054  -53.8177 H         1 UNK         0.3000 
    236 H236       -2.0230  -18.0090  -52.1453 H         1 UNK         0.0600 
    237 H237       -3.2187  -15.8200  -52.0346 H         1 UNK         0.0600 
    238 H238       -1.5570  -15.5956  -52.5528 H         1 UNK         0.0600 
    239 H239       -2.8580  -15.5214  -53.7331 H         1 UNK         0.0600 
    240 H240        0.1538  -17.1814  -53.0146 H         1 UNK         0.3000 
    241 H241        0.9331  -18.7161  -55.2823 H         1 UNK         0.0600 
    242 H242       -0.3981  -15.5010  -55.3414 H         1 UNK         0.3800 
    243 H243        0.1879  -15.1075  -56.9357 H         1 UNK         0.3800 
    244 H244        2.4676  -18.5035  -53.4504 H         1 UNK         0.0800 
    245 H245        3.2115  -17.8080  -54.8504 H         1 UNK         0.0800 
    246 H246        3.3315  -15.8456  -50.9334 H         1 UNK         0.0800 
    247 H247        3.7461  -17.4327  -51.5228 H         1 UNK         0.0800 
@<TRIPOS>BOND
     1    1    2 1    
     2    1  127 1    
     3    1  128 1    
     4    1  129 1    
     5    2    3 2    
     6    2    4 am   BACKBONE|DICT|INTERRES
     7    4    5 1    
     8    4  130 1    
     9    5    6 1    
    10    5   65 1    
    11    5  131 1    
    12    6    7 1    
    13    6  132 1    
    14    6  133 1    
    15    7    8 1    
    16    8    9 1    
    17    8  134 1    
    18    8  135 1    
    19    9   10 ar   
    20    9   14 ar   
    21   10   11 ar   
    22   10  136 1    
    23   11   12 ar   
    24   11  126 1    
    25   12   13 ar   
    26   12  137 1    
    27   13   14 ar   
    28   13   15 1    
    29   14  138 1    
    30   15   16 1    
    31   15  139 1    
    32   15  140 1    
    33   16   17 1    
    34   17   18 1    
    35   17  141 1    
    36   17  142 1    
    37   18   19 1    
    38   18   67 1    
    39   18  143 1    
    40   19   20 am   BACKBONE|DICT|INTERRES
    41   19  144 1    
    42   20   21 2    
    43   20   22 1    
    44   22   23 1    
    45   22   24 1    
    46   22  145 1    
    47   23  146 1    
    48   23  147 1    
    49   23  148 1    
    50   24   25 am   BACKBONE|DICT|INTERRES
    51   24  149 1    
    52   25   26 2    
    53   25   27 1    
    54   27   28 1    
    55   27   29 1    
    56   27  150 1    
    57   28  151 1    
    58   28  152 1    
    59   28  153 1    
    60   29   30 am   BACKBONE|DICT|INTERRES
    61   29  154 1    
    62   30   31 2    
    63   30   32 1    
    64   32   33 1    
    65   32   34 1    
    66   32  155 1    
    67   33  156 1    
    68   33  157 1    
    69   33  158 1    
    70   34   35 am   BACKBONE|DICT|INTERRES
    71   34  159 1    
    72   35   36 2    
    73   35   37 1    
    74   37   38 1    
    75   37   39 1    
    76   37  160 1    
    77   38  161 1    
    78   38  162 1    
    79   38  163 1    
    80   39   40 am   BACKBONE|DICT|INTERRES
    81   39  164 1    
    82   40   41 2    
    83   40   42 1    
    84   42   43 1    
    85   42   44 1    
    86   42  165 1    
    87   43  166 1    
    88   43  167 1    
    89   43  168 1    
    90   44   45 am   BACKBONE|DICT|INTERRES
    91   44  169 1    
    92   45   46 2    
    93   45   47 1    
    94   47   48 1    
    95   47   49 1    
    96   47  170 1    
    97   48  171 1    
    98   48  172 1    
    99   48  173 1    
   100   49   50 am   BACKBONE|DICT|INTERRES
   101   49  174 1    
   102   50   51 2    
   103   50   52 1    
   104   52   53 1    
   105   52   54 1    
   106   52  175 1    
   107   53  176 1    
   108   53  177 1    
   109   53  178 1    
   110   54   55 am   BACKBONE|DICT|INTERRES
   111   54  179 1    
   112   55   56 2    
   113   55   57 1    
   114   57   58 1    
   115   57   59 1    
   116   57  180 1    
   117   58  181 1    
   118   58  182 1    
   119   58  183 1    
   120   59   60 am   BACKBONE|DICT|INTERRES
   121   59  184 1    
   122   60   61 2    
   123   60   62 1    
   124   62   63 1    
   125   62   64 1    
   126   62  185 1    
   127   63  186 1    
   128   63  187 1    
   129   63  188 1    
   130   64   65 am   BACKBONE|DICT|INTERRES
   131   64  189 1    
   132   65   66 2    
   133   67   68 2    
   134   67   69 am   BACKBONE|DICT|INTERRES
   135   69   70 1    
   136   69  190 1    
   137   70   71 1    
   138   70   72 1    
   139   70  191 1    
   140   71  192 1    
   141   71  193 1    
   142   71  194 1    
   143   72   73 2    
   144   72   74 am   BACKBONE|DICT|INTERRES
   145   74   75 1    
   146   74  195 1    
   147   75   76 1    
   148   75   77 1    
   149   75  196 1    
   150   76  197 1    
   151   76  198 1    
   152   76  199 1    
   153   77   78 2    
   154   77   79 am   BACKBONE|DICT|INTERRES
   155   79   80 1    
   156   79  200 1    
   157   80   81 1    
   158   80   82 1    
   159   80  201 1    
   160   81  202 1    
   161   81  203 1    
   162   81  204 1    
   163   82   83 2    
   164   82   84 am   BACKBONE|DICT|INTERRES
   165   84   85 1    
   166   84  205 1    
   167   85   86 1    
   168   85   87 1    
   169   85  206 1    
   170   86  207 1    
   171   86  208 1    
   172   86  209 1    
   173   87   88 2    
   174   87   89 am   BACKBONE|DICT|INTERRES
   175   89   90 1    
   176   89  210 1    
   177   90   91 1    
   178   90   92 1    
   179   90  211 1    
   180   91  212 1    
   181   91  213 1    
   182   91  214 1    
   183   92   93 2    
   184   92   94 am   BACKBONE|DICT|INTERRES
   185   94   95 1    
   186   94  215 1    
   187   95   96 1    
   188   95   97 1    
   189   95  216 1    
   190   96  217 1    
   191   96  218 1    
   192   96  219 1    
   193   97   98 2    
   194   97   99 am   BACKBONE|DICT|INTERRES
   195   99  100 1    
   196   99  220 1    
   197  100  101 1    
   198  100  102 1    
   199  100  221 1    
   200  101  222 1    
   201  101  223 1    
   202  101  224 1    
   203  102  103 2    
   204  102  104 am   BACKBONE|DICT|INTERRES
   205  104  105 1    
   206  104  225 1    
   207  105  106 1    
   208  105  107 1    
   209  105  226 1    
   210  106  227 1    
   211  106  228 1    
   212  106  229 1    
   213  107  108 2    
   214  107  109 am   BACKBONE|DICT|INTERRES
   215  109  110 1    
   216  109  230 1    
   217  110  111 1    
   218  110  112 1    
   219  110  231 1    
   220  111  232 1    
   221  111  233 1    
   222  111  234 1    
   223  112  113 2    
   224  112  114 am   BACKBONE|DICT|INTERRES
   225  114  115 1    
   226  114  235 1    
   227  115  116 1    
   228  115  117 1    
   229  115  236 1    
   230  116  237 1    
   231  116  238 1    
   232  116  239 1    
   233  117  118 2    
   234  117  119 am   BACKBONE|DICT|INTERRES
   235  119  120 1    
   236  119  240 1    
   237  120  121 1    
   238  120  124 1    
   239  120  241 1    
   240  121  122 am   BACKBONE|DICT|INTERRES
   241  121  123 2    
   242  122  242 1    
   243  122  243 1    
   244  124  125 1    
   245  124  244 1    
   246  124  245 1    
   247  125  126 1    
   248  126  246 1    
   249  126  247 1    
@<TRIPOS>SUBSTRUCTURE
     1 UNK         1 GROUP             0       ****    0 ROOT    
