@<TRIPOS>MOLECULE
3R540
247   249    1
SMALL
USER_CHARGES


@<TRIPOS>ATOM
      1 CA         -2.5839  -12.3050  -42.5012 C.3       0 UNK        -0.1800 
      2 C          -2.0100  -11.7500  -43.7962 C.2       0 UNK         0.5000 
      3 O          -1.3680  -10.6994  -43.7810 O.2       0 UNK        -0.5000 
      4 N          -2.2550  -12.4425  -44.9145 N.am      1 UNK        -0.5000 
      5 CA         -1.7442  -12.0949  -46.2429 C.3       1 UNK         0.1400 
      6 C6         -2.6531  -12.6685  -47.3617 C.3       23 UNK        -0.0398 
      7 S7         -2.6206  -14.4891  -47.5437 S.3       23 UNK        -0.2404 
      8 C8         -1.9674  -14.6203  -49.2371 C.3       23 UNK        -0.0205 
      9 C9         -1.8120  -16.0666  -49.6749 C.ar      23 UNK        -0.0193 
     10 C10        -2.8952  -16.7518  -50.2375 C.ar      23 UNK        -0.1150 
     11 C11        -2.7529  -18.0772  -50.6592 C.ar      23 UNK        -0.0193 
     12 C12        -1.5136  -18.7046  -50.5251 C.ar      23 UNK        -0.1150 
     13 C13        -0.4273  -18.0385  -49.9551 C.ar      23 UNK        -0.0193 
     14 C14        -0.5813  -16.7161  -49.5318 C.ar      23 UNK        -0.1150 
     15 C15         0.9016  -18.7634  -49.7894 C.3       23 UNK        -0.0205 
     16 S16         1.2106  -19.2656  -48.0642 S.3       23 UNK        -0.2404 
     17 C17        -0.3215  -20.1571  -47.6273 C.3       23 UNK        -0.0398 
     18 CA         -0.0856  -21.5034  -46.9087 C.3       11 UNK         0.1400 
     19 N           0.6243  -21.3627  -45.6322 N.am      11 UNK        -0.5000 
     20 C           1.0687  -22.3905  -44.8936 C.2       10 UNK         0.5000 
     21 O           0.9867  -23.5671  -45.2458 O.2       10 UNK        -0.5000 
     22 CA          1.6494  -22.0596  -43.5068 C.3       10 UNK         0.1400 
     23 CB          3.1209  -21.6290  -43.6024 C.3       10 UNK        -0.1800 
     24 N           0.8657  -21.0342  -42.8168 N.am      10 UNK        -0.5000 
     25 C          -0.3740  -21.2320  -42.3451 C.2       9 UNK         0.5000 
     26 O          -0.9469  -22.3214  -42.3739 O.2       9 UNK        -0.5000 
     27 CA         -1.1125  -20.0094  -41.7680 C.3       9 UNK         0.1400 
     28 CB         -0.7844  -19.8378  -40.2775 C.3       9 UNK        -0.1800 
     29 N          -0.8195  -18.7646  -42.4805 N.am      9 UNK        -0.5000 
     30 C          -1.1340  -18.5218  -43.7611 C.2       8 UNK         0.5000 
     31 O          -1.7474  -19.3154  -44.4732 O.2       8 UNK        -0.5000 
     32 CA         -0.6230  -17.1993  -44.3667 C.3       8 UNK         0.1400 
     33 CB         -1.5396  -16.0299  -43.9809 C.3       8 UNK        -0.1800 
     34 N           0.7575  -16.8962  -43.9808 N.am      8 UNK        -0.5000 
     35 C           1.8058  -17.6905  -44.2440 C.2       7 UNK         0.5000 
     36 O           1.7213  -18.7513  -44.8588 O.2       7 UNK        -0.5000 
     37 CA          3.1610  -17.2721  -43.6553 C.3       7 UNK         0.1400 
     38 CB          3.8221  -16.1686  -44.4969 C.3       7 UNK        -0.1800 
     39 N           3.0137  -16.8369  -42.2670 N.am      7 UNK        -0.5000 
     40 C           2.7891  -17.6722  -41.2413 C.2       6 UNK         0.5000 
     41 O           2.7497  -18.8973  -41.3562 O.2       6 UNK        -0.5000 
     42 CA          2.5322  -17.0341  -39.8621 C.3       6 UNK         0.1400 
     43 CB          3.8583  -16.7821  -39.1294 C.3       6 UNK        -0.1800 
     44 N           1.7826  -15.7799  -39.9447 N.am      6 UNK        -0.5000 
     45 C           0.5132  -15.6786  -40.3638 C.2       5 UNK         0.5000 
     46 O          -0.1843  -16.6457  -40.6624 O.2       5 UNK        -0.5000 
     47 CA         -0.0562  -14.2565  -40.5330 C.3       5 UNK         0.1400 
     48 CB         -0.7587  -13.8016  -39.2454 C.3       5 UNK        -0.1800 
     49 N           0.9492  -13.2602  -40.9176 N.am      5 UNK        -0.5000 
     50 C           1.7043  -13.3256  -42.0225 C.2       4 UNK         0.5000 
     51 O           1.6161  -14.2310  -42.8553 O.2       4 UNK        -0.5000 
     52 CA          2.8004  -12.2614  -42.1608 C.3       4 UNK         0.1400 
     53 CB          3.9161  -12.5382  -41.1276 C.3       4 UNK        -0.1800 
     54 N           3.3384  -12.3020  -43.5189 N.am      4 UNK        -0.5000 
     55 C           4.2399  -11.4557  -44.0317 C.2       3 UNK         0.5000 
     56 O           4.6804  -10.4753  -43.4297 O.2       3 UNK        -0.5000 
     57 CA          4.7523  -11.7516  -45.4536 C.3       3 UNK         0.1400 
     58 CB          5.9261  -12.7422  -45.4067 C.3       3 UNK        -0.1800 
     59 N           3.7256  -12.2680  -46.3589 N.am      3 UNK        -0.5000 
     60 C           2.7017  -11.5471  -46.8337 C.2       2 UNK         0.5000 
     61 O           2.4946  -10.3721  -46.5223 O.2       2 UNK        -0.5000 
     62 CA          1.7666  -12.2212  -47.8610 C.3       2 UNK         0.1400 
     63 CB          2.0770  -13.7119  -48.1382 C.3       2 UNK        -0.1800 
     64 N           0.3566  -12.0276  -47.5094 N.am      2 UNK        -0.5000 
     65 C          -0.2543  -12.4812  -46.4054 C.2       1 UNK         0.5000 
     66 O           0.3052  -13.1784  -45.5564 O.2       1 UNK        -0.5000 
     67 C          -1.4342  -22.2325  -46.7359 C.2       11 UNK         0.5000 
     68 O          -1.7630  -23.0986  -47.5462 O.2       11 UNK        -0.5000 
     69 N          -2.1782  -21.8975  -45.6715 N.am      12 UNK        -0.5000 
     70 CA         -3.4953  -22.4501  -45.3369 C.3       12 UNK         0.1400 
     71 CB         -4.0768  -21.6875  -44.1369 C.3       12 UNK        -0.1800 
     72 C          -3.5208  -23.9702  -45.0758 C.2       12 UNK         0.5000 
     73 O          -4.5991  -24.5626  -45.1180 O.2       12 UNK        -0.5000 
     74 N          -2.3526  -24.5859  -44.8436 N.am      13 UNK        -0.5000 
     75 CA         -2.1891  -26.0392  -44.7790 C.3       13 UNK         0.1400 
     76 CB         -0.7990  -26.3698  -44.2166 C.3       13 UNK        -0.1800 
     77 C          -2.3996  -26.7215  -46.1475 C.2       13 UNK         0.5000 
     78 O          -2.8687  -27.8596  -46.1862 O.2       13 UNK        -0.5000 
     79 N          -2.0667  -26.0141  -47.2366 N.am      14 UNK        -0.5000 
     80 CA         -2.3111  -26.4342  -48.6166 C.3       14 UNK         0.1400 
     81 CB         -1.0807  -26.0913  -49.4697 C.3       14 UNK        -0.1800 
     82 C          -3.5803  -25.7732  -49.1854 C.2       14 UNK         0.5000 
     83 O          -4.2890  -26.4056  -49.9693 O.2       14 UNK        -0.5000 
     84 N          -3.8549  -24.5263  -48.7710 N.am      15 UNK        -0.5000 
     85 CA         -5.0223  -23.7075  -49.1088 C.3       15 UNK         0.1400 
     86 CB         -6.2896  -24.2686  -48.4272 C.3       15 UNK        -0.1800 
     87 C          -5.1602  -23.5188  -50.6314 C.2       15 UNK         0.5000 
     88 O          -4.3269  -22.8393  -51.2273 O.2       15 UNK        -0.5000 
     89 N          -6.1672  -24.1502  -51.2482 N.am      16 UNK        -0.5000 
     90 CA         -6.4033  -24.1437  -52.6944 C.3       16 UNK         0.1400 
     91 CB         -7.7426  -24.8381  -52.9823 C.3       16 UNK        -0.1800 
     92 C          -5.2695  -24.7853  -53.5230 C.2       16 UNK         0.5000 
     93 O          -5.1535  -24.4879  -54.7109 O.2       16 UNK        -0.5000 
     94 N          -4.4516  -25.6408  -52.8934 N.am      17 UNK        -0.5000 
     95 CA         -3.2822  -26.2685  -53.5074 C.3       17 UNK         0.1400 
     96 CB         -3.1025  -27.6743  -52.9102 C.3       17 UNK        -0.1800 
     97 C          -1.9934  -25.4358  -53.3460 C.2       17 UNK         0.5000 
     98 O          -0.9680  -25.8285  -53.9039 O.2       17 UNK        -0.5000 
     99 N          -2.0344  -24.3285  -52.5854 N.am      18 UNK        -0.5000 
    100 CA        -0.8693  -23.4783  -52.3143 C.3       18 UNK         0.1400 
    101 CB        -1.1974  -22.5003  -51.1777 C.3       18 UNK        -0.1800 
    102 C         -0.3820  -22.7081  -53.5563 C.2       18 UNK         0.5000 
    103 O          0.8254  -22.5427  -53.7346 O.2       18 UNK        -0.5000 
    104 N         -1.3268  -22.2757  -54.3968 N.am      19 UNK        -0.5000 
    105 CA        -1.1106  -21.6106  -55.6757 C.3       19 UNK         0.1400 
    106 CB        -0.6793  -20.1472  -55.4637 C.3       19 UNK        -0.1800 
    107 C         -2.4203  -21.6862  -56.4694 C.2       19 UNK         0.5000 
    108 O         -3.4896  -21.8062  -55.8686 O.2       19 UNK        -0.5000 
    109 N         -2.3267  -21.5847  -57.8011 N.am      20 UNK        -0.5000 
    110 CA        -3.4607  -21.6888  -58.7288 C.3       20 UNK         0.1400 
    111 CB        -2.9239  -21.7172  -60.1684 C.3       20 UNK        -0.1800 
    112 C         -4.5223  -20.5794  -58.5719 C.2       20 UNK         0.5000 
    113 O         -5.6742  -20.7847  -58.9557 O.2       20 UNK        -0.5000 
    114 N         -4.1197  -19.4309  -58.0128 N.am      21 UNK        -0.5000 
    115 CA        -4.9940  -18.2982  -57.7087 C.3       21 UNK         0.1400 
    116 CB        -4.1282  -17.0344  -57.5829 C.3       21 UNK        -0.1800 
    117 C         -5.8371  -18.4980  -56.4321 C.2       21 UNK         0.5000 
    118 O         -6.8252  -17.7840  -56.2527 O.2       21 UNK        -0.5000 
    119 N         -5.4292  -19.4262  -55.5576 N.am      22 UNK        -0.5000 
    120 CA        -6.0880  -19.7133  -54.2755 C.3       22 UNK         0.1400 
    121 C         -7.3827  -20.5563  -54.4409 C.2       22 UNK         0.5000 
    122 N         -8.3185  -20.4478  -53.5070 N.am      22 UNK        -0.7600 
    123 O         -7.5387  -21.3335  -55.3796 O.2       22 UNK        -0.5000 
    124 C124       -5.1168  -20.3873  -53.2753 C.3       23 UNK        -0.0398 
    125 S125       -3.6362  -19.3714  -52.9460 S.3       23 UNK        -0.2404 
    126 C126       -3.9331  -18.8530  -51.2274 C.3       23 UNK        -0.0205 
    127 H127       -3.5143  -11.7939  -42.2543 H         1 UNK         0.0600 
    128 H128       -1.8829  -12.1464  -41.6827 H         1 UNK         0.0600 
    129 H129       -2.7870  -13.3735  -42.5766 H         1 UNK         0.0600 
    130 H130       -2.7586  -13.3158  -44.8625 H         1 UNK         0.3000 
    131 H131       -1.7885  -11.0071  -46.3318 H         1 UNK         0.0600 
    132 H132       -3.6866  -12.3738  -47.1743 H         1 UNK         0.0800 
    133 H133       -2.4006  -12.2020  -48.3149 H         1 UNK         0.0800 
    134 H134       -2.6365  -14.1005  -49.9247 H         1 UNK         0.0800 
    135 H135       -1.0068  -14.1071  -49.2962 H         1 UNK         0.0800 
    136 H136       -3.8492  -16.2536  -50.3379 H         1 UNK         0.1150 
    137 H137       -1.4002  -19.7244  -50.8554 H         1 UNK         0.1150 
    138 H138        0.2553  -16.1985  -49.0849 H         1 UNK         0.1150 
    139 H139        0.9407  -19.6465  -50.4290 H         1 UNK         0.0800 
    140 H140        1.7129  -18.1130  -50.1192 H         1 UNK         0.0800 
    141 H141       -0.9363  -19.4904  -47.0209 H         1 UNK         0.0800 
    142 H142       -0.8879  -20.3471  -48.5380 H         1 UNK         0.0800 
    143 H143        0.5340  -22.1252  -47.5585 H         1 UNK         0.0600 
    144 H144        0.7925  -20.4149  -45.3053 H         1 UNK         0.3000 
    145 H145        1.6105  -22.9711  -42.9063 H         1 UNK         0.0600 
    146 H146        3.5348  -21.4182  -42.6161 H         1 UNK         0.0600 
    147 H147        3.7267  -22.4189  -44.0479 H         1 UNK         0.0600 
    148 H148        3.2486  -20.7377  -44.2154 H         1 UNK         0.0600 
    149 H149        1.2793  -20.1136  -42.7445 H         1 UNK         0.3000 
    150 H150       -2.1839  -20.1975  -41.8587 H         1 UNK         0.0600 
    151 H151       -1.0029  -20.7499  -39.7207 H         1 UNK         0.0600 
    152 H152       -1.3760  -19.0371  -39.8336 H         1 UNK         0.0600 
    153 H153        0.2688  -19.6016  -40.1229 H         1 UNK         0.0600 
    154 H154       -0.3715  -18.0294  -41.9396 H         1 UNK         0.3000 
    155 H155       -0.6417  -17.3003  -45.4541 H         1 UNK         0.0600 
    156 H156       -1.1757  -15.0927  -44.3998 H         1 UNK         0.0600 
    157 H157       -1.6102  -15.9104  -42.9004 H         1 UNK         0.0600 
    158 H158       -2.5495  -16.1873  -44.3610 H         1 UNK         0.0600 
    159 H159        0.9221  -16.0194  -43.4964 H         1 UNK         0.3000 
    160 H160        3.8198  -18.1432  -43.6736 H         1 UNK         0.0600 
    161 H161        3.1884  -15.2879  -44.5947 H         1 UNK         0.0600 
    162 H162        4.0303  -16.5279  -45.5054 H         1 UNK         0.0600 
    163 H163        4.7705  -15.8560  -44.0603 H         1 UNK         0.0600 
    164 H164        2.9412  -15.8407  -42.1137 H         1 UNK         0.3000 
    165 H165        1.9444  -17.7416  -39.2733 H         1 UNK         0.0600 
    166 H166        4.4809  -16.0596  -39.6588 H         1 UNK         0.0600 
    167 H167        3.6865  -16.4036  -38.1217 H         1 UNK         0.0600 
    168 H168        4.4331  -17.7045  -39.0353 H         1 UNK         0.0600 
    169 H169        2.2806  -14.9341  -39.7115 H         1 UNK         0.3000 
    170 H170       -0.7970  -14.3016  -41.3317 H         1 UNK         0.0600 
    171 H171       -1.5365  -14.5093  -38.9550 H         1 UNK         0.0600 
    172 H172       -0.0595  -13.7222  -38.4121 H         1 UNK         0.0600 
    173 H173       -1.2374  -12.8311  -39.3752 H         1 UNK         0.0600 
    174 H174        1.0916  -12.4963  -40.2725 H         1 UNK         0.3000 
    175 H175        2.3574  -11.2795  -41.9840 H         1 UNK         0.0600 
    176 H176        4.6853  -11.7668  -41.1430 H         1 UNK         0.0600 
    177 H177        3.5229  -12.5617  -40.1108 H         1 UNK         0.0600 
    178 H178        4.4034  -13.4964  -41.3130 H         1 UNK         0.0600 
    179 H179        2.9623  -13.0505  -44.0888 H         1 UNK         0.3000 
    180 H180        5.1240  -10.8124  -45.8693 H         1 UNK         0.0600 
    181 H181        6.3587  -12.8897  -46.3964 H         1 UNK         0.0600 
    182 H182        6.7216  -12.3743  -44.7573 H         1 UNK         0.0600 
    183 H183        5.6171  -13.7160  -45.0261 H         1 UNK         0.0600 
    184 H184        3.8235  -13.2261  -46.6604 H         1 UNK         0.3000 
    185 H185        1.9208  -11.6822  -48.7968 H         1 UNK         0.0600 
    186 H186        1.4095  -14.1084  -48.9019 H         1 UNK         0.0600 
    187 H187        3.0926  -13.8418  -48.5136 H         1 UNK         0.0600 
    188 H188        1.9679  -14.3340  -47.2491 H         1 UNK         0.0600 
    189 H189       -0.1595  -11.4248  -48.1341 H         1 UNK         0.3000 
    190 H190       -1.8586  -21.1294  -45.0868 H         1 UNK         0.3000 
    191 H191       -4.1455  -22.2689  -46.1949 H         1 UNK         0.0600 
    192 H192       -5.0802  -22.0411  -43.8964 H         1 UNK         0.0600 
    193 H193       -4.1529  -20.6202  -44.3444 H         1 UNK         0.0600 
    194 H194       -3.4632  -21.8155  -43.2458 H         1 UNK         0.0600 
    195 H195       -1.5105  -24.0278  -44.8019 H         1 UNK         0.3000 
    196 H196       -2.9377  -26.4348  -44.0893 H         1 UNK         0.0600 
    197 H197       -0.6819  -27.4452  -44.0774 H         1 UNK         0.0600 
    198 H198       -0.6404  -25.8961  -43.2475 H         1 UNK         0.0600 
    199 H199       -0.0049  -26.0391  -44.8865 H         1 UNK         0.0600 
    200 H200       -1.7205  -25.0692  -47.1138 H         1 UNK         0.3000 
    201 H201       -2.4567  -27.5154  -48.6625 H         1 UNK         0.0600 
    202 H202       -0.2051  -26.6442  -49.1297 H         1 UNK         0.0600 
    203 H203       -0.8384  -25.0303  -49.4234 H         1 UNK         0.0600 
    204 H204       -1.2401  -26.3508  -50.5160 H         1 UNK         0.0600 
    205 H205       -3.1450  -24.0517  -48.2185 H         1 UNK         0.3000 
    206 H206       -4.8349  -22.7153  -48.6959 H         1 UNK         0.0600 
    207 H207       -6.1737  -24.2769  -47.3438 H         1 UNK         0.0600 
    208 H208       -7.1622  -23.6528  -48.6488 H         1 UNK         0.0600 
    209 H209       -6.5119  -25.2897  -48.7383 H         1 UNK         0.0600 
    210 H210       -6.7866  -24.7214  -50.6920 H         1 UNK         0.3000 
    211 H211       -6.4863  -23.1033  -53.0118 H         1 UNK         0.0600 
    212 H212       -7.7302  -25.8819  -52.6663 H         1 UNK         0.0600 
    213 H213       -7.9700  -24.8194  -54.0491 H         1 UNK         0.0600 
    214 H214       -8.5645  -24.3389  -52.4687 H         1 UNK         0.0600 
    215 H215       -4.6053  -25.8407  -51.9098 H         1 UNK         0.3000 
    216 H216       -3.4541  -26.3871  -54.5793 H         1 UNK         0.0600 
    217 H217       -2.2897  -28.2083  -53.4039 H         1 UNK         0.0600 
    218 H218       -4.0045  -28.2737  -53.0342 H         1 UNK         0.0600 
    219 H219       -2.8687  -27.6379  -51.8467 H         1 UNK         0.0600 
    220 H220       -2.9141  -24.0319  -52.1775 H         1 UNK         0.3000 
    221 H221       -0.0547  -24.1235  -51.9786 H         1 UNK         0.0600 
    222 H222       -1.9607  -21.7860  -51.4851 H         1 UNK         0.0600 
    223 H223       -1.5689  -23.0167  -50.2941 H         1 UNK         0.0600 
    224 H224       -0.3132  -21.9360  -50.8800 H         1 UNK         0.0600 
    225 H225       -2.3011  -22.4651  -54.1945 H         1 UNK         0.3000 
    226 H226       -0.3364  -22.1483  -56.2268 H         1 UNK         0.0600 
    227 H227        0.2531  -20.0819  -54.9031 H         1 UNK         0.0600 
    228 H228       -0.5163  -19.6444  -56.4174 H         1 UNK         0.0600 
    229 H229       -1.4344  -19.5802  -54.9197 H         1 UNK         0.0600 
    230 H230       -1.4154  -21.4705  -58.2213 H         1 UNK         0.3000 
    231 H231       -3.9606  -22.6398  -58.5331 H         1 UNK         0.0600 
    232 H232       -3.7371  -21.8249  -60.8875 H         1 UNK         0.0600 
    233 H233       -2.2453  -22.5566  -60.3210 H         1 UNK         0.0600 
    234 H234       -2.3871  -20.8003  -60.4151 H         1 UNK         0.0600 
    235 H235       -3.1532  -19.3473  -57.7354 H         1 UNK         0.3000 
    236 H236       -5.6862  -18.1550  -58.5412 H         1 UNK         0.0600 
    237 H237       -3.4110  -17.1184  -56.7653 H         1 UNK         0.0600 
    238 H238       -3.5721  -16.8434  -58.5008 H         1 UNK         0.0600 
    239 H239       -4.7446  -16.1555  -57.3894 H         1 UNK         0.0600 
    240 H240       -4.6521  -20.0304  -55.7958 H         1 UNK         0.3000 
    241 H241       -6.3855  -18.7561  -53.8421 H         1 UNK         0.0600 
    242 H242       -9.1616  -20.9931  -53.5971 H         1 UNK         0.3800 
    243 H243       -8.2238  -19.8141  -52.7286 H         1 UNK         0.3800 
    244 H244       -4.7873  -21.3559  -53.6530 H         1 UNK         0.0800 
    245 H245       -5.6228  -20.5955  -52.3313 H         1 UNK         0.0800 
    246 H246       -4.8465  -18.2579  -51.1850 H         1 UNK         0.0800 
    247 H247       -4.1021  -19.7363  -50.6092 H         1 UNK         0.0800 
@<TRIPOS>BOND
     1    1    2 1    
     2    1  127 1    
     3    1  128 1    
     4    1  129 1    
     5    2    3 2    
     6    2    4 am   BACKBONE|DICT|INTERRES
     7    4    5 1    
     8    4  130 1    
     9    5    6 1    
    10    5   65 1    
    11    5  131 1    
    12    6    7 1    
    13    6  132 1    
    14    6  133 1    
    15    7    8 1    
    16    8    9 1    
    17    8  134 1    
    18    8  135 1    
    19    9   10 ar   
    20    9   14 ar   
    21   10   11 ar   
    22   10  136 1    
    23   11   12 ar   
    24   11  126 1    
    25   12   13 ar   
    26   12  137 1    
    27   13   14 ar   
    28   13   15 1    
    29   14  138 1    
    30   15   16 1    
    31   15  139 1    
    32   15  140 1    
    33   16   17 1    
    34   17   18 1    
    35   17  141 1    
    36   17  142 1    
    37   18   19 1    
    38   18   67 1    
    39   18  143 1    
    40   19   20 am   BACKBONE|DICT|INTERRES
    41   19  144 1    
    42   20   21 2    
    43   20   22 1    
    44   22   23 1    
    45   22   24 1    
    46   22  145 1    
    47   23  146 1    
    48   23  147 1    
    49   23  148 1    
    50   24   25 am   BACKBONE|DICT|INTERRES
    51   24  149 1    
    52   25   26 2    
    53   25   27 1    
    54   27   28 1    
    55   27   29 1    
    56   27  150 1    
    57   28  151 1    
    58   28  152 1    
    59   28  153 1    
    60   29   30 am   BACKBONE|DICT|INTERRES
    61   29  154 1    
    62   30   31 2    
    63   30   32 1    
    64   32   33 1    
    65   32   34 1    
    66   32  155 1    
    67   33  156 1    
    68   33  157 1    
    69   33  158 1    
    70   34   35 am   BACKBONE|DICT|INTERRES
    71   34  159 1    
    72   35   36 2    
    73   35   37 1    
    74   37   38 1    
    75   37   39 1    
    76   37  160 1    
    77   38  161 1    
    78   38  162 1    
    79   38  163 1    
    80   39   40 am   BACKBONE|DICT|INTERRES
    81   39  164 1    
    82   40   41 2    
    83   40   42 1    
    84   42   43 1    
    85   42   44 1    
    86   42  165 1    
    87   43  166 1    
    88   43  167 1    
    89   43  168 1    
    90   44   45 am   BACKBONE|DICT|INTERRES
    91   44  169 1    
    92   45   46 2    
    93   45   47 1    
    94   47   48 1    
    95   47   49 1    
    96   47  170 1    
    97   48  171 1    
    98   48  172 1    
    99   48  173 1    
   100   49   50 am   BACKBONE|DICT|INTERRES
   101   49  174 1    
   102   50   51 2    
   103   50   52 1    
   104   52   53 1    
   105   52   54 1    
   106   52  175 1    
   107   53  176 1    
   108   53  177 1    
   109   53  178 1    
   110   54   55 am   BACKBONE|DICT|INTERRES
   111   54  179 1    
   112   55   56 2    
   113   55   57 1    
   114   57   58 1    
   115   57   59 1    
   116   57  180 1    
   117   58  181 1    
   118   58  182 1    
   119   58  183 1    
   120   59   60 am   BACKBONE|DICT|INTERRES
   121   59  184 1    
   122   60   61 2    
   123   60   62 1    
   124   62   63 1    
   125   62   64 1    
   126   62  185 1    
   127   63  186 1    
   128   63  187 1    
   129   63  188 1    
   130   64   65 am   BACKBONE|DICT|INTERRES
   131   64  189 1    
   132   65   66 2    
   133   67   68 2    
   134   67   69 am   BACKBONE|DICT|INTERRES
   135   69   70 1    
   136   69  190 1    
   137   70   71 1    
   138   70   72 1    
   139   70  191 1    
   140   71  192 1    
   141   71  193 1    
   142   71  194 1    
   143   72   73 2    
   144   72   74 am   BACKBONE|DICT|INTERRES
   145   74   75 1    
   146   74  195 1    
   147   75   76 1    
   148   75   77 1    
   149   75  196 1    
   150   76  197 1    
   151   76  198 1    
   152   76  199 1    
   153   77   78 2    
   154   77   79 am   BACKBONE|DICT|INTERRES
   155   79   80 1    
   156   79  200 1    
   157   80   81 1    
   158   80   82 1    
   159   80  201 1    
   160   81  202 1    
   161   81  203 1    
   162   81  204 1    
   163   82   83 2    
   164   82   84 am   BACKBONE|DICT|INTERRES
   165   84   85 1    
   166   84  205 1    
   167   85   86 1    
   168   85   87 1    
   169   85  206 1    
   170   86  207 1    
   171   86  208 1    
   172   86  209 1    
   173   87   88 2    
   174   87   89 am   BACKBONE|DICT|INTERRES
   175   89   90 1    
   176   89  210 1    
   177   90   91 1    
   178   90   92 1    
   179   90  211 1    
   180   91  212 1    
   181   91  213 1    
   182   91  214 1    
   183   92   93 2    
   184   92   94 am   BACKBONE|DICT|INTERRES
   185   94   95 1    
   186   94  215 1    
   187   95   96 1    
   188   95   97 1    
   189   95  216 1    
   190   96  217 1    
   191   96  218 1    
   192   96  219 1    
   193   97   98 2    
   194   97   99 am   BACKBONE|DICT|INTERRES
   195   99  100 1    
   196   99  220 1    
   197  100  101 1    
   198  100  102 1    
   199  100  221 1    
   200  101  222 1    
   201  101  223 1    
   202  101  224 1    
   203  102  103 2    
   204  102  104 am   BACKBONE|DICT|INTERRES
   205  104  105 1    
   206  104  225 1    
   207  105  106 1    
   208  105  107 1    
   209  105  226 1    
   210  106  227 1    
   211  106  228 1    
   212  106  229 1    
   213  107  108 2    
   214  107  109 am   BACKBONE|DICT|INTERRES
   215  109  110 1    
   216  109  230 1    
   217  110  111 1    
   218  110  112 1    
   219  110  231 1    
   220  111  232 1    
   221  111  233 1    
   222  111  234 1    
   223  112  113 2    
   224  112  114 am   BACKBONE|DICT|INTERRES
   225  114  115 1    
   226  114  235 1    
   227  115  116 1    
   228  115  117 1    
   229  115  236 1    
   230  116  237 1    
   231  116  238 1    
   232  116  239 1    
   233  117  118 2    
   234  117  119 am   BACKBONE|DICT|INTERRES
   235  119  120 1    
   236  119  240 1    
   237  120  121 1    
   238  120  124 1    
   239  120  241 1    
   240  121  122 am   BACKBONE|DICT|INTERRES
   241  121  123 2    
   242  122  242 1    
   243  122  243 1    
   244  124  125 1    
   245  124  244 1    
   246  124  245 1    
   247  125  126 1    
   248  126  246 1    
   249  126  247 1    
@<TRIPOS>SUBSTRUCTURE
     1 UNK         1 GROUP             0       ****    0 ROOT    
