@<TRIPOS>MOLECULE
3R540
247   249    1
SMALL
USER_CHARGES


@<TRIPOS>ATOM
      1 CA          3.7192   -7.7965  -48.7740 C.3       0 UNK        -0.1800 
      2 C           3.2951   -9.1358  -49.3603 C.2       0 UNK         0.5000 
      3 O           4.1147   -9.8250  -49.9672 O.2       0 UNK        -0.5000 
      4 N           2.0191   -9.5038  -49.1803 N.am      1 UNK        -0.5000 
      5 CA          1.4289  -10.7712  -49.6317 C.3       1 UNK         0.1400 
      6 C6         -0.1165  -10.7292  -49.4995 C.3       23 UNK        -0.0398 
      7 S7         -0.9682  -12.1115  -50.3325 S.3       23 UNK        -0.2404 
      8 C8         -1.3738  -13.1666  -48.9044 C.3       23 UNK        -0.0205 
      9 C9         -1.5678  -14.6116  -49.3291 C.ar      23 UNK        -0.0193 
     10 C10        -2.8470  -15.1623  -49.4283 C.ar      23 UNK        -0.1150 
     11 C11        -3.0226  -16.4937  -49.8176 C.ar      23 UNK        -0.0193 
     12 C12        -1.8935  -17.2743  -50.1023 C.ar      23 UNK        -0.1150 
     13 C13        -0.6046  -16.7316  -50.0183 C.ar      23 UNK        -0.0193 
     14 C14        -0.4551  -15.4012  -49.6233 C.ar      23 UNK        -0.1150 
     15 C15         0.6454  -17.5240  -50.3965 C.3       23 UNK        -0.0205 
     16 S16         0.5493  -19.3172  -50.0972 S.3       23 UNK        -0.2404 
     17 C17         0.4820  -19.3820  -48.2786 C.3       23 UNK        -0.0398 
     18 CA          0.3397  -20.8361  -47.7701 C.3       11 UNK         0.1400 
     19 N           0.8159  -20.9802  -46.3924 N.am      11 UNK        -0.5000 
     20 C           1.0687  -22.1561  -45.8017 C.2       10 UNK         0.5000 
     21 O           0.9853  -23.2396  -46.3782 O.2       10 UNK        -0.5000 
     22 CA          1.4423  -22.1235  -44.3094 C.3       10 UNK         0.1400 
     23 CB          2.9433  -21.8520  -44.1303 C.3       10 UNK        -0.1800 
     24 N           0.6647  -21.1380  -43.5571 N.am      10 UNK        -0.5000 
     25 C          -0.6602  -21.2091  -43.3623 C.2       9 UNK         0.5000 
     26 O          -1.3576  -22.1485  -43.7447 O.2       9 UNK        -0.5000 
     27 CA         -1.3274  -20.0177  -42.6518 C.3       9 UNK         0.1400 
     28 CB         -1.1963  -20.1553  -41.1279 C.3       9 UNK        -0.1800 
     29 N          -0.7981  -18.7207  -43.0786 N.am      9 UNK        -0.5000 
     30 C          -0.8833  -18.2303  -44.3242 C.2       8 UNK         0.5000 
     31 O          -1.4316  -18.8201  -45.2543 O.2       8 UNK        -0.5000 
     32 CA         -0.1849  -16.8834  -44.5915 C.3       8 UNK         0.1400 
     33 CB         -1.0073  -15.7090  -44.0414 C.3       8 UNK        -0.1800 
     34 N           1.1666  -16.8433  -44.0340 N.am      8 UNK        -0.5000 
     35 C           2.1642  -17.6514  -44.4206 C.2       7 UNK         0.5000 
     36 O           2.0658  -18.4780  -45.3280 O.2       7 UNK        -0.5000 
     37 CA          3.4725  -17.5579  -43.6193 C.3       7 UNK         0.1400 
     38 CB          4.3303  -16.3765  -44.0978 C.3       7 UNK        -0.1800 
     39 N           3.2226  -17.4464  -42.1812 N.am      7 UNK        -0.5000 
     40 C           2.7224  -18.4363  -41.4268 C.2       6 UNK         0.5000 
     41 O           2.4486  -19.5540  -41.8609 O.2       6 UNK        -0.5000 
     42 CA          2.4426  -18.1131  -39.9482 C.3       6 UNK         0.1400 
     43 CB          3.7223  -18.2561  -39.1111 C.3       6 UNK        -0.1800 
     44 N           1.8866  -16.7736  -39.7594 N.am      6 UNK        -0.5000 
     45 C           0.6902  -16.3735  -40.2137 C.2       5 UNK         0.5000 
     46 O          -0.0957  -17.1065  -40.8111 O.2       5 UNK        -0.5000 
     47 CA          0.3385  -14.8886  -40.0128 C.3       5 UNK         0.1400 
     48 CB         -0.3442  -14.6726  -38.6544 C.3       5 UNK        -0.1800 
     49 N           1.5078  -14.0119  -40.1172 N.am      5 UNK        -0.5000 
     50 C           2.2322  -13.8527  -41.2318 C.2       4 UNK         0.5000 
     51 O           1.9878  -14.4272  -42.2969 O.2       4 UNK        -0.5000 
     52 CA          3.4677  -12.9468  -41.1195 C.3       4 UNK         0.1400 
     53 CB          4.7489  -13.7903  -41.0353 C.3       4 UNK        -0.1800 
     54 N           3.5492  -12.0658  -42.2776 N.am      4 UNK        -0.5000 
     55 C           2.8383  -10.9453  -42.4337 C.2       3 UNK         0.5000 
     56 O           2.1089  -10.4736  -41.5603 O.2       3 UNK        -0.5000 
     57 CA          2.9361  -10.2397  -43.7991 C.3       3 UNK         0.1400 
     58 CB          4.2758   -9.4950  -43.9611 C.3       3 UNK        -0.1800 
     59 N           2.6568  -11.1157  -44.9457 N.am      3 UNK        -0.5000 
     60 C           3.3779  -12.1447  -45.4220 C.2       2 UNK         0.5000 
     61 O           4.4320  -12.5424  -44.9253 O.2       2 UNK        -0.5000 
     62 CA          2.8356  -12.8258  -46.6857 C.3       2 UNK         0.1400 
     63 CB          1.8036  -13.9123  -46.3284 C.3       2 UNK        -0.1800 
     64 N           2.2509  -11.8273  -47.5802 N.am      2 UNK        -0.5000 
     65 C           2.0400  -11.9845  -48.8915 C.2       1 UNK         0.5000 
     66 O           2.3177  -13.0110  -49.5125 O.2       1 UNK        -0.5000 
     67 C          -1.1008  -21.3695  -47.9408 C.2       11 UNK         0.5000 
     68 O          -1.3945  -22.0245  -48.9393 O.2       11 UNK        -0.5000 
     69 N          -1.9606  -21.1145  -46.9454 N.am      12 UNK        -0.5000 
     70 CA         -3.3597  -21.5430  -46.9020 C.3       12 UNK         0.1400 
     71 CB         -4.1003  -20.7032  -45.8499 C.3       12 UNK        -0.1800 
     72 C          -3.5680  -23.0510  -46.6405 C.2       12 UNK         0.5000 
     73 O          -4.7103  -23.5104  -46.7079 O.2       12 UNK        -0.5000 
     74 N          -2.4960  -23.8022  -46.3521 N.am      13 UNK        -0.5000 
     75 CA         -2.5169  -25.2467  -46.1093 C.3       13 UNK         0.1400 
     76 CB         -1.0989  -25.7189  -45.7599 C.3       13 UNK        -0.1800 
     77 C          -3.0727  -26.0518  -47.3017 C.2       13 UNK         0.5000 
     78 O          -2.8625  -25.6712  -48.4564 O.2       13 UNK        -0.5000 
     79 N          -3.7814  -27.1476  -46.9906 N.am      14 UNK        -0.5000 
     80 CA         -4.4716  -28.0428  -47.9306 C.3       14 UNK         0.1400 
     81 CB         -3.4516  -28.8352  -48.7756 C.3       14 UNK        -0.1800 
     82 C          -5.5223  -27.3044  -48.7891 C.2       14 UNK         0.5000 
     83 O          -5.6121  -27.5375  -49.9960 O.2       14 UNK        -0.5000 
     84 N          -6.2652  -26.3886  -48.1458 N.am      15 UNK        -0.5000 
     85 CA         -7.2328  -25.4599  -48.7436 C.3       15 UNK         0.1400 
     86 CB         -8.4730  -26.2197  -49.2599 C.3       15 UNK        -0.1800 
     87 C          -6.5770  -24.5730  -49.8214 C.2       15 UNK         0.5000 
     88 O          -7.0824  -24.4760  -50.9393 O.2       15 UNK        -0.5000 
     89 N          -5.4221  -23.9929  -49.4682 N.am      16 UNK        -0.5000 
     90 CA         -4.5072  -23.2345  -50.3246 C.3       16 UNK         0.1400 
     91 CB         -5.1283  -21.8816  -50.7174 C.3       16 UNK        -0.1800 
     92 C          -4.0258  -24.0504  -51.5388 C.2       16 UNK         0.5000 
     93 O          -4.0989  -23.5717  -52.6725 O.2       16 UNK        -0.5000 
     94 N          -3.5783  -25.2866  -51.2774 N.am      17 UNK        -0.5000 
     95 CA         -3.1739  -26.3000  -52.2592 C.3       17 UNK         0.1400 
     96 CB         -1.8300  -25.9072  -52.9070 C.3       17 UNK        -0.1800 
     97 C          -4.2807  -26.5889  -53.2986 C.2       17 UNK         0.5000 
     98 O          -4.0114  -26.6108  -54.5004 O.2       17 UNK        -0.5000 
     99 N          -5.5134  -26.7686  -52.8021 N.am      18 UNK        -0.5000 
    100 CA        -6.7656  -26.8880  -53.5552 C.3       18 UNK         0.1400 
    101 CB        -6.7972  -28.1976  -54.3708 C.3       18 UNK        -0.1800 
    102 C         -7.0647  -25.6289  -54.4004 C.2       18 UNK         0.5000 
    103 O         -7.3087  -25.7283  -55.6046 O.2       18 UNK        -0.5000 
    104 N         -7.0457  -24.4685  -53.7290 N.am      19 UNK        -0.5000 
    105 CA        -7.3325  -23.1227  -54.2344 C.3       19 UNK         0.1400 
    106 CB        -8.8319  -22.9876  -54.5719 C.3       19 UNK        -0.1800 
    107 C         -6.4079  -22.6870  -55.3906 C.2       19 UNK         0.5000 
    108 O         -6.8865  -22.1701  -56.4028 O.2       19 UNK        -0.5000 
    109 N         -5.0995  -22.9071  -55.2180 N.am      20 UNK        -0.5000 
    110 CA        -4.0649  -22.6022  -56.2067 C.3       20 UNK         0.1400 
    111 CB        -3.4679  -23.9185  -56.7276 C.3       20 UNK        -0.1800 
    112 C         -2.9539  -21.7047  -55.6383 C.2       20 UNK         0.5000 
    113 O         -2.4320  -20.8627  -56.3712 O.2       20 UNK        -0.5000 
    114 N         -2.6003  -21.8857  -54.3570 N.am      21 UNK        -0.5000 
    115 CA        -1.4538  -21.2356  -53.7120 C.3       21 UNK         0.1400 
    116 CB        -1.2115  -21.8794  -52.3399 C.3       21 UNK        -0.1800 
    117 C         -1.5914  -19.7075  -53.5774 C.2       21 UNK         0.5000 
    118 O         -0.5815  -19.0039  -53.6087 O.2       21 UNK        -0.5000 
    119 N         -2.8345  -19.2251  -53.4641 N.am      22 UNK        -0.5000 
    120 CA        -3.1759  -17.7939  -53.4111 C.3       22 UNK         0.1400 
    121 C         -3.1294  -17.0758  -54.7940 C.2       22 UNK         0.5000 
    122 N         -2.8998  -17.7663  -55.9063 N.am      22 UNK        -0.7600 
    123 O         -3.3014  -15.8619  -54.8608 O.2       22 UNK        -0.5000 
    124 C124       -4.5322  -17.5383  -52.6988 C.3       23 UNK        -0.0398 
    125 S125       -4.6974  -18.3964  -51.0940 S.3       23 UNK        -0.2404 
    126 C126       -4.4418  -17.0571  -49.8818 C.3       23 UNK        -0.0205 
    127 H127        2.8905   -7.2882  -48.2804 H         1 UNK         0.0600 
    128 H128        4.0969   -7.1446  -49.5616 H         1 UNK         0.0600 
    129 H129        4.5127   -7.9429  -48.0411 H         1 UNK         0.0600 
    130 H130        1.3957   -8.8765  -48.6918 H         1 UNK         0.3000 
    131 H131        1.6730  -10.8806  -50.6907 H         1 UNK         0.0600 
    132 H132       -0.4209  -10.6786  -48.4526 H         1 UNK         0.0800 
    133 H133       -0.4924   -9.8134  -49.9579 H         1 UNK         0.0800 
    134 H134       -0.5757  -13.1250  -48.1626 H         1 UNK         0.0800 
    135 H135       -2.2689  -12.7809  -48.4140 H         1 UNK         0.0800 
    136 H136       -3.7092  -14.5519  -49.1986 H         1 UNK         0.1150 
    137 H137       -2.0182  -18.3030  -50.4068 H         1 UNK         0.1150 
    138 H138        0.5331  -14.9674  -49.5623 H         1 UNK         0.1150 
    139 H139        0.8340  -17.3674  -51.4593 H         1 UNK         0.0800 
    140 H140        1.5161  -17.1336  -49.8671 H         1 UNK         0.0800 
    141 H141       -0.3235  -18.7462  -47.9060 H         1 UNK         0.0800 
    142 H142        1.4104  -18.9445  -47.9096 H         1 UNK         0.0800 
    143 H143        0.9876  -21.4678  -48.3824 H         1 UNK         0.0600 
    144 H144        0.9579  -20.1249  -45.8651 H         1 UNK         0.3000 
    145 H145        1.2252  -23.1094  -43.8929 H         1 UNK         0.0600 
    146 H146        3.5408  -22.5787  -44.6822 H         1 UNK         0.0600 
    147 H147        3.2192  -20.8598  -44.4879 H         1 UNK         0.0600 
    148 H148        3.2336  -21.9230  -43.0821 H         1 UNK         0.0600 
    149 H149        1.1828  -20.3654  -43.1502 H         1 UNK         0.3000 
    150 H150       -2.3898  -20.0372  -42.9016 H         1 UNK         0.0600 
    151 H151       -1.5962  -21.1104  -40.7851 H         1 UNK         0.0600 
    152 H152       -1.7476  -19.3687  -40.6126 H         1 UNK         0.0600 
    153 H153       -0.1556  -20.0999  -40.8074 H         1 UNK         0.0600 
    154 H154       -0.3651  -18.1517  -42.3554 H         1 UNK         0.3000 
    155 H155       -0.1016  -16.7599  -45.6737 H         1 UNK         0.0600 
    156 H156       -2.0014  -15.6875  -44.4894 H         1 UNK         0.0600 
    157 H157       -0.5292  -14.7546  -44.2618 H         1 UNK         0.0600 
    158 H158       -1.1353  -15.7749  -42.9610 H         1 UNK         0.0600 
    159 H159        1.3425  -16.1691  -43.2971 H         1 UNK         0.3000 
    160 H160        4.0366  -18.4762  -43.7961 H         1 UNK         0.0600 
    161 H161        3.8358  -15.4193  -43.9339 H         1 UNK         0.0600 
    162 H162        4.5397  -16.4552  -45.1653 H         1 UNK         0.0600 
    163 H163        5.2894  -16.3514  -43.5807 H         1 UNK         0.0600 
    164 H164        3.3693  -16.5407  -41.7622 H         1 UNK         0.3000 
    165 H165        1.7117  -18.8368  -39.5815 H         1 UNK         0.0600 
    166 H166        3.5185  -18.1066  -38.0507 H         1 UNK         0.0600 
    167 H167        4.1503  -19.2535  -39.2210 H         1 UNK         0.0600 
    168 H168        4.4849  -17.5365  -39.4117 H         1 UNK         0.0600 
    169 H169        2.4647  -16.1032  -39.2753 H         1 UNK         0.3000 
    170 H170       -0.3653  -14.6062  -40.7985 H         1 UNK         0.0600 
    171 H171       -1.2306  -15.3015  -38.5595 H         1 UNK         0.0600 
    172 H172        0.3208  -14.9151  -37.8246 H         1 UNK         0.0600 
    173 H173       -0.6674  -13.6383  -38.5354 H         1 UNK         0.0600 
    174 H174        1.7692  -13.5070  -39.2825 H         1 UNK         0.3000 
    175 H175        3.3934  -12.3422  -40.2130 H         1 UNK         0.0600 
    176 H176        5.6270  -13.1566  -40.9094 H         1 UNK         0.0600 
    177 H177        4.7161  -14.4722  -40.1846 H         1 UNK         0.0600 
    178 H178        4.8987  -14.3894  -41.9335 H         1 UNK         0.0600 
    179 H179        4.0626  -12.4084  -43.0853 H         1 UNK         0.3000 
    180 H180        2.1487   -9.4842  -43.8129 H         1 UNK         0.0600 
    181 H181        5.1296  -10.1724  -43.9365 H         1 UNK         0.0600 
    182 H182        4.4150   -8.7705  -43.1579 H         1 UNK         0.0600 
    183 H183        4.3099   -8.9469  -44.9027 H         1 UNK         0.0600 
    184 H184        1.7580  -10.9495  -45.3736 H         1 UNK         0.3000 
    185 H185        3.6826  -13.2963  -47.1897 H         1 UNK         0.0600 
    186 H186        2.2153  -14.6205  -45.6094 H         1 UNK         0.0600 
    187 H187        0.9043  -13.4829  -45.8865 H         1 UNK         0.0600 
    188 H188        1.5051  -14.4839  -47.2070 H         1 UNK         0.0600 
    189 H189        2.0939  -10.9130  -47.1825 H         1 UNK         0.3000 
    190 H190       -1.6525  -20.5200  -46.1811 H         1 UNK         0.3000 
    191 H191       -3.8049  -21.3246  -47.8741 H         1 UNK         0.0600 
    192 H192       -4.0226  -19.6380  -46.0692 H         1 UNK         0.0600 
    193 H193       -5.1622  -20.9507  -45.8233 H         1 UNK         0.0600 
    194 H194       -3.6981  -20.8708  -44.8506 H         1 UNK         0.0600 
    195 H195       -1.5916  -23.3530  -46.3261 H         1 UNK         0.3000 
    196 H196       -3.1605  -25.4172  -45.2441 H         1 UNK         0.0600 
    197 H197       -1.0902  -26.7787  -45.5026 H         1 UNK         0.0600 
    198 H198       -0.6991  -25.1726  -44.9051 H         1 UNK         0.0600 
    199 H199       -0.4146  -25.5798  -46.5979 H         1 UNK         0.0600 
    200 H200       -3.8952  -27.3806  -46.0136 H         1 UNK         0.3000 
    201 H201       -5.0267  -28.7617  -47.3265 H         1 UNK         0.0600 
    202 H202       -2.7501  -29.3750  -48.1397 H         1 UNK         0.0600 
    203 H203       -2.8738  -28.1851  -49.4324 H         1 UNK         0.0600 
    204 H204       -3.9521  -29.5731  -49.4037 H         1 UNK         0.0600 
    205 H205       -6.0882  -26.2530  -47.1604 H         1 UNK         0.3000 
    206 H206       -7.5596  -24.7893  -47.9475 H         1 UNK         0.0600 
    207 H207       -8.9223  -26.8223  -48.4707 H         1 UNK         0.0600 
    208 H208       -9.2362  -25.5248  -49.6120 H         1 UNK         0.0600 
    209 H209       -8.2290  -26.8830  -50.0902 H         1 UNK         0.0600 
    210 H210       -5.1061  -24.1238  -48.5119 H         1 UNK         0.3000 
    211 H211       -3.6191  -23.0347  -49.7281 H         1 UNK         0.0600 
    212 H212       -6.0325  -22.0033  -51.3126 H         1 UNK         0.0600 
    213 H213       -4.4260  -21.2939  -51.3078 H         1 UNK         0.0600 
    214 H214       -5.3848  -21.2940  -49.8363 H         1 UNK         0.0600 
    215 H215       -3.5186  -25.5672  -50.3019 H         1 UNK         0.3000 
    216 H216       -3.0203  -27.2262  -51.7047 H         1 UNK         0.0600 
    217 H217       -1.4534  -26.7106  -53.5409 H         1 UNK         0.0600 
    218 H218       -1.0711  -25.7073  -52.1505 H         1 UNK         0.0600 
    219 H219       -1.9254  -25.0178  -53.5305 H         1 UNK         0.0600 
    220 H220       -5.6123  -26.7798  -51.7900 H         1 UNK         0.3000 
    221 H221       -7.5597  -26.9498  -52.8096 H         1 UNK         0.0600 
    222 H222       -6.0537  -28.2007  -55.1682 H         1 UNK         0.0600 
    223 H223       -6.6100  -29.0621  -53.7339 H         1 UNK         0.0600 
    224 H224       -7.7732  -28.3419  -54.8354 H         1 UNK         0.0600 
    225 H225       -6.8652  -24.5114  -52.7267 H         1 UNK         0.3000 
    226 H226       -7.1228  -22.4407  -53.4101 H         1 UNK         0.0600 
    227 H227       -9.4527  -23.2617  -53.7189 H         1 UNK         0.0600 
    228 H228       -9.0827  -21.9599  -54.8370 H         1 UNK         0.0600 
    229 H229       -9.1167  -23.6220  -55.4118 H         1 UNK         0.0600 
    230 H230       -4.7899  -23.3136  -54.3373 H         1 UNK         0.3000 
    231 H231       -4.4940  -22.0691  -57.0574 H         1 UNK         0.0600 
    232 H232       -2.9899  -24.4859  -55.9283 H         1 UNK         0.0600 
    233 H233       -2.7156  -23.7317  -57.4949 H         1 UNK         0.0600 
    234 H234       -4.2373  -24.5514  -57.1704 H         1 UNK         0.0600 
    235 H235       -3.1027  -22.5677  -53.7937 H         1 UNK         0.3000 
    236 H236       -0.5771  -21.4303  -54.3330 H         1 UNK         0.0600 
    237 H237       -1.1116  -22.9615  -52.4165 H         1 UNK         0.0600 
    238 H238       -0.2911  -21.5049  -51.8928 H         1 UNK         0.0600 
    239 H239       -2.0227  -21.6629  -51.6449 H         1 UNK         0.0600 
    240 H240       -3.6066  -19.8740  -53.4531 H         1 UNK         0.3000 
    241 H241       -2.4075  -17.3010  -52.8144 H         1 UNK         0.0600 
    242 H242       -2.8705  -17.2817  -56.7895 H         1 UNK         0.3800 
    243 H243       -2.7344  -18.7645  -55.8802 H         1 UNK         0.3800 
    244 H244       -4.6850  -16.4685  -52.5459 H         1 UNK         0.0800 
    245 H245       -5.3554  -17.8721  -53.3326 H         1 UNK         0.0800 
    246 H246       -4.6949  -17.4419  -48.8932 H         1 UNK         0.0800 
    247 H247       -5.1569  -16.2604  -50.0929 H         1 UNK         0.0800 
@<TRIPOS>BOND
     1    1    2 1    
     2    1  127 1    
     3    1  128 1    
     4    1  129 1    
     5    2    3 2    
     6    2    4 am   BACKBONE|DICT|INTERRES
     7    4    5 1    
     8    4  130 1    
     9    5    6 1    
    10    5   65 1    
    11    5  131 1    
    12    6    7 1    
    13    6  132 1    
    14    6  133 1    
    15    7    8 1    
    16    8    9 1    
    17    8  134 1    
    18    8  135 1    
    19    9   10 ar   
    20    9   14 ar   
    21   10   11 ar   
    22   10  136 1    
    23   11   12 ar   
    24   11  126 1    
    25   12   13 ar   
    26   12  137 1    
    27   13   14 ar   
    28   13   15 1    
    29   14  138 1    
    30   15   16 1    
    31   15  139 1    
    32   15  140 1    
    33   16   17 1    
    34   17   18 1    
    35   17  141 1    
    36   17  142 1    
    37   18   19 1    
    38   18   67 1    
    39   18  143 1    
    40   19   20 am   BACKBONE|DICT|INTERRES
    41   19  144 1    
    42   20   21 2    
    43   20   22 1    
    44   22   23 1    
    45   22   24 1    
    46   22  145 1    
    47   23  146 1    
    48   23  147 1    
    49   23  148 1    
    50   24   25 am   BACKBONE|DICT|INTERRES
    51   24  149 1    
    52   25   26 2    
    53   25   27 1    
    54   27   28 1    
    55   27   29 1    
    56   27  150 1    
    57   28  151 1    
    58   28  152 1    
    59   28  153 1    
    60   29   30 am   BACKBONE|DICT|INTERRES
    61   29  154 1    
    62   30   31 2    
    63   30   32 1    
    64   32   33 1    
    65   32   34 1    
    66   32  155 1    
    67   33  156 1    
    68   33  157 1    
    69   33  158 1    
    70   34   35 am   BACKBONE|DICT|INTERRES
    71   34  159 1    
    72   35   36 2    
    73   35   37 1    
    74   37   38 1    
    75   37   39 1    
    76   37  160 1    
    77   38  161 1    
    78   38  162 1    
    79   38  163 1    
    80   39   40 am   BACKBONE|DICT|INTERRES
    81   39  164 1    
    82   40   41 2    
    83   40   42 1    
    84   42   43 1    
    85   42   44 1    
    86   42  165 1    
    87   43  166 1    
    88   43  167 1    
    89   43  168 1    
    90   44   45 am   BACKBONE|DICT|INTERRES
    91   44  169 1    
    92   45   46 2    
    93   45   47 1    
    94   47   48 1    
    95   47   49 1    
    96   47  170 1    
    97   48  171 1    
    98   48  172 1    
    99   48  173 1    
   100   49   50 am   BACKBONE|DICT|INTERRES
   101   49  174 1    
   102   50   51 2    
   103   50   52 1    
   104   52   53 1    
   105   52   54 1    
   106   52  175 1    
   107   53  176 1    
   108   53  177 1    
   109   53  178 1    
   110   54   55 am   BACKBONE|DICT|INTERRES
   111   54  179 1    
   112   55   56 2    
   113   55   57 1    
   114   57   58 1    
   115   57   59 1    
   116   57  180 1    
   117   58  181 1    
   118   58  182 1    
   119   58  183 1    
   120   59   60 am   BACKBONE|DICT|INTERRES
   121   59  184 1    
   122   60   61 2    
   123   60   62 1    
   124   62   63 1    
   125   62   64 1    
   126   62  185 1    
   127   63  186 1    
   128   63  187 1    
   129   63  188 1    
   130   64   65 am   BACKBONE|DICT|INTERRES
   131   64  189 1    
   132   65   66 2    
   133   67   68 2    
   134   67   69 am   BACKBONE|DICT|INTERRES
   135   69   70 1    
   136   69  190 1    
   137   70   71 1    
   138   70   72 1    
   139   70  191 1    
   140   71  192 1    
   141   71  193 1    
   142   71  194 1    
   143   72   73 2    
   144   72   74 am   BACKBONE|DICT|INTERRES
   145   74   75 1    
   146   74  195 1    
   147   75   76 1    
   148   75   77 1    
   149   75  196 1    
   150   76  197 1    
   151   76  198 1    
   152   76  199 1    
   153   77   78 2    
   154   77   79 am   BACKBONE|DICT|INTERRES
   155   79   80 1    
   156   79  200 1    
   157   80   81 1    
   158   80   82 1    
   159   80  201 1    
   160   81  202 1    
   161   81  203 1    
   162   81  204 1    
   163   82   83 2    
   164   82   84 am   BACKBONE|DICT|INTERRES
   165   84   85 1    
   166   84  205 1    
   167   85   86 1    
   168   85   87 1    
   169   85  206 1    
   170   86  207 1    
   171   86  208 1    
   172   86  209 1    
   173   87   88 2    
   174   87   89 am   BACKBONE|DICT|INTERRES
   175   89   90 1    
   176   89  210 1    
   177   90   91 1    
   178   90   92 1    
   179   90  211 1    
   180   91  212 1    
   181   91  213 1    
   182   91  214 1    
   183   92   93 2    
   184   92   94 am   BACKBONE|DICT|INTERRES
   185   94   95 1    
   186   94  215 1    
   187   95   96 1    
   188   95   97 1    
   189   95  216 1    
   190   96  217 1    
   191   96  218 1    
   192   96  219 1    
   193   97   98 2    
   194   97   99 am   BACKBONE|DICT|INTERRES
   195   99  100 1    
   196   99  220 1    
   197  100  101 1    
   198  100  102 1    
   199  100  221 1    
   200  101  222 1    
   201  101  223 1    
   202  101  224 1    
   203  102  103 2    
   204  102  104 am   BACKBONE|DICT|INTERRES
   205  104  105 1    
   206  104  225 1    
   207  105  106 1    
   208  105  107 1    
   209  105  226 1    
   210  106  227 1    
   211  106  228 1    
   212  106  229 1    
   213  107  108 2    
   214  107  109 am   BACKBONE|DICT|INTERRES
   215  109  110 1    
   216  109  230 1    
   217  110  111 1    
   218  110  112 1    
   219  110  231 1    
   220  111  232 1    
   221  111  233 1    
   222  111  234 1    
   223  112  113 2    
   224  112  114 am   BACKBONE|DICT|INTERRES
   225  114  115 1    
   226  114  235 1    
   227  115  116 1    
   228  115  117 1    
   229  115  236 1    
   230  116  237 1    
   231  116  238 1    
   232  116  239 1    
   233  117  118 2    
   234  117  119 am   BACKBONE|DICT|INTERRES
   235  119  120 1    
   236  119  240 1    
   237  120  121 1    
   238  120  124 1    
   239  120  241 1    
   240  121  122 am   BACKBONE|DICT|INTERRES
   241  121  123 2    
   242  122  242 1    
   243  122  243 1    
   244  124  125 1    
   245  124  244 1    
   246  124  245 1    
   247  125  126 1    
   248  126  246 1    
   249  126  247 1    
@<TRIPOS>SUBSTRUCTURE
     1 UNK         1 GROUP             0       ****    0 ROOT    
