@<TRIPOS>MOLECULE
3R540
247   249    1
SMALL
USER_CHARGES


@<TRIPOS>ATOM
      1 CA         -4.0721  -11.5707  -41.5643 C.3       0 UNK        -0.1800 
      2 C          -3.1797  -12.1628  -42.6458 C.2       0 UNK         0.5000 
      3 O          -2.1618  -11.5656  -42.9951 O.2       0 UNK        -0.5000 
      4 N          -3.5545  -13.3355  -43.1732 N.am      1 UNK        -0.5000 
      5 CA         -2.8206  -14.0535  -44.2231 C.3       1 UNK         0.1400 
      6 C6         -3.7229  -15.0767  -44.9683 C.3       23 UNK        -0.0398 
      7 S7         -4.6260  -14.3314  -46.3646 S.3       23 UNK        -0.2404 
      8 C8         -3.3289  -14.2426  -47.6480 C.3       23 UNK        -0.0205 
      9 C9         -2.9681  -15.5978  -48.2460 C.ar      23 UNK        -0.0193 
     10 C10        -3.6575  -16.0709  -49.3657 C.ar      23 UNK        -0.1150 
     11 C11        -3.2891  -17.2763  -49.9686 C.ar      23 UNK        -0.0193 
     12 C12        -2.2567  -18.0324  -49.4114 C.ar      23 UNK        -0.1150 
     13 C13        -1.5684  -17.5919  -48.2797 C.ar      23 UNK        -0.0193 
     14 C14        -1.9137  -16.3539  -47.7199 C.ar      23 UNK        -0.1150 
     15 C15        -0.4531  -18.4920  -47.7443 C.3       23 UNK        -0.0205 
     16 S16         0.4050  -17.9463  -46.2293 S.3       23 UNK        -0.2404 
     17 C17        -0.8805  -18.2417  -44.9673 C.3       23 UNK        -0.0398 
     18 CA         -1.0483  -19.7389  -44.5948 C.3       11 UNK         0.1400 
     19 N          -0.6709  -20.0554  -43.2120 N.am      11 UNK        -0.5000 
     20 C          -1.1895  -19.6057  -42.0608 C.2       10 UNK         0.5000 
     21 O          -2.1288  -18.8136  -41.9952 O.2       10 UNK        -0.5000 
     22 CA         -0.5535  -20.1513  -40.7686 C.3       10 UNK         0.1400 
     23 CB         -1.3738  -21.3362  -40.2367 C.3       10 UNK        -0.1800 
     24 N           0.8314  -20.5832  -40.9791 N.am      10 UNK        -0.5000 
     25 C           1.8735  -19.7444  -41.0640 C.2       9 UNK         0.5000 
     26 O           1.7919  -18.5321  -40.8693 O.2       9 UNK        -0.5000 
     27 CA          3.2177  -20.3667  -41.4869 C.3       9 UNK         0.1400 
     28 CB          3.9047  -21.0472  -40.2932 C.3       9 UNK        -0.1800 
     29 N           3.0749  -21.3285  -42.5871 N.am      9 UNK        -0.5000 
     30 C           2.7111  -20.9934  -43.8320 C.2       8 UNK         0.5000 
     31 O           2.4587  -19.8360  -44.1787 O.2       8 UNK        -0.5000 
     32 CA          2.5828  -22.1336  -44.8555 C.3       8 UNK         0.1400 
     33 CB          1.3428  -23.0095  -44.5918 C.3       8 UNK        -0.1800 
     34 N           2.5043  -21.5250  -46.1769 N.am      8 UNK        -0.5000 
     35 C           2.7945  -22.0983  -47.3502 C.2       7 UNK         0.5000 
     36 O           3.0409  -23.2967  -47.4862 O.2       7 UNK        -0.5000 
     37 CA          2.8579  -21.1602  -48.5756 C.3       7 UNK         0.1400 
     38 CB          1.5466  -21.2038  -49.3748 C.3       7 UNK        -0.1800 
     39 N           3.1586  -19.7731  -48.2013 N.am      7 UNK        -0.5000 
     40 C           4.3616  -19.3535  -47.7828 C.2       6 UNK         0.5000 
     41 O           5.3590  -20.0767  -47.7586 O.2       6 UNK        -0.5000 
     42 CA          4.4520  -17.9049  -47.2612 C.3       6 UNK         0.1400 
     43 CB          5.8777  -17.3212  -47.3397 C.3       6 UNK        -0.1800 
     44 N           3.4795  -16.9816  -47.8556 N.am      6 UNK        -0.5000 
     45 C           3.3964  -16.5788  -49.1339 C.2       5 UNK         0.5000 
     46 O           4.0928  -17.0280  -50.0440 O.2       5 UNK        -0.5000 
     47 CA          2.3779  -15.4602  -49.4406 C.3       5 UNK         0.1400 
     48 CB          1.1944  -15.9827  -50.2694 C.3       5 UNK        -0.1800 
     49 N           1.8778  -14.8270  -48.2144 N.am      5 UNK        -0.5000 
     50 C           2.4589  -13.7691  -47.6301 C.2       4 UNK         0.5000 
     51 O           3.4023  -13.1453  -48.1176 O.2       4 UNK        -0.5000 
     52 CA          1.9176  -13.3700  -46.2470 C.3       4 UNK         0.1400 
     53 CB          0.4898  -12.8129  -46.3494 C.3       4 UNK        -0.1800 
     54 N           1.9538  -14.4866  -45.2982 N.am      4 UNK        -0.5000 
     55 C           3.0792  -15.0026  -44.7787 C.2       3 UNK         0.5000 
     56 O           4.2035  -14.6021  -45.0829 O.2       3 UNK        -0.5000 
     57 CA          2.9420  -16.1654  -43.7686 C.3       3 UNK         0.1400 
     58 CB          4.1125  -16.2268  -42.7662 C.3       3 UNK        -0.1800 
     59 N           1.6593  -16.2114  -43.0649 N.am      3 UNK        -0.5000 
     60 C           1.1258  -15.2878  -42.2521 C.2       2 UNK         0.5000 
     61 O           1.6644  -14.2193  -41.9566 O.2       2 UNK        -0.5000 
     62 CA         -0.2838  -15.6146  -41.7135 C.3       2 UNK         0.1400 
     63 CB         -0.3808  -15.3529  -40.2020 C.3       2 UNK        -0.1800 
     64 N          -1.3698  -14.8951  -42.3922 N.am      2 UNK        -0.5000 
     65 C          -1.5374  -14.7446  -43.7158 C.2       1 UNK         0.5000 
     66 O          -0.7379  -15.1504  -44.5564 O.2       1 UNK        -0.5000 
     67 C          -2.4413  -20.2682  -44.9931 C.2       11 UNK         0.5000 
     68 O          -2.5675  -20.8605  -46.0621 O.2       11 UNK        -0.5000 
     69 N          -3.4500  -20.0818  -44.1325 N.am      12 UNK        -0.5000 
     70 CA         -4.8568  -20.4376  -44.3460 C.3       12 UNK         0.1400 
     71 CB         -5.6644  -20.0311  -43.1048 C.3       12 UNK        -0.1800 
     72 C          -5.1000  -21.9221  -44.6844 C.2       12 UNK         0.5000 
     73 O          -6.0203  -22.2299  -45.4419 O.2       12 UNK        -0.5000 
     74 N          -4.2523  -22.8076  -44.1429 N.am      13 UNK        -0.5000 
     75 CA         -4.2531  -24.2432  -44.4266 C.3       13 UNK         0.1400 
     76 CB         -3.3575  -24.9533  -43.3997 C.3       13 UNK        -0.1800 
     77 C          -3.7953  -24.5764  -45.8607 C.2       13 UNK         0.5000 
     78 O          -4.2699  -25.5576  -46.4335 O.2       13 UNK        -0.5000 
     79 N          -2.8898  -23.7572  -46.4121 N.am      14 UNK        -0.5000 
     80 CA         -2.3821  -23.8790  -47.7772 C.3       14 UNK         0.1400 
     81 CB         -0.9324  -23.3743  -47.8271 C.3       14 UNK        -0.1800 
     82 C          -3.2569  -23.1058  -48.7763 C.2       14 UNK         0.5000 
     83 O          -3.4444  -23.5760  -49.8970 O.2       14 UNK        -0.5000 
     84 N          -3.7964  -21.9533  -48.3473 N.am      15 UNK        -0.5000 
     85 CA         -4.6043  -21.0056  -49.1255 C.3       15 UNK         0.1400 
     86 CB         -5.0743  -19.8699  -48.2053 C.3       15 UNK        -0.1800 
     87 C          -5.8103  -21.6166  -49.8626 C.2       15 UNK         0.5000 
     88 O          -6.2099  -21.0928  -50.9025 O.2       15 UNK        -0.5000 
     89 N          -6.3304  -22.7390  -49.3478 N.am      16 UNK        -0.5000 
     90 CA         -7.3626  -23.5715  -49.9686 C.3       16 UNK         0.1400 
     91 CB         -7.7068  -24.7207  -49.0091 C.3       16 UNK        -0.1800 
     92 C          -6.9807  -24.1256  -51.3597 C.2       16 UNK         0.5000 
     93 O          -7.8767  -24.4295  -52.1479 O.2       16 UNK        -0.5000 
     94 N          -5.6746  -24.2234  -51.6542 N.am      17 UNK        -0.5000 
     95 CA         -5.1392  -24.6054  -52.9634 C.3       17 UNK         0.1400 
     96 CB         -3.7200  -25.1642  -52.7823 C.3       17 UNK        -0.1800 
     97 C          -5.1636  -23.4560  -53.9970 C.2       17 UNK         0.5000 
     98 O          -4.8405  -23.6988  -55.1612 O.2       17 UNK        -0.5000 
     99 N          -5.5558  -22.2436  -53.5693 N.am      18 UNK        -0.5000 
    100 CA        -5.8605  -21.0537  -54.3683 C.3       18 UNK         0.1400 
    101 CB        -7.2099  -21.2435  -55.0939 C.3       18 UNK        -0.1800 
    102 C         -4.7112  -20.6422  -55.3068 C.2       18 UNK         0.5000 
    103 O         -3.7369  -20.0456  -54.8443 O.2       18 UNK        -0.5000 
    104 N         -4.8253  -20.9787  -56.5987 N.am      19 UNK        -0.5000 
    105 CA        -3.8554  -20.6921  -57.6593 C.3       19 UNK         0.1400 
    106 CB        -4.4020  -21.2316  -58.9896 C.3       19 UNK        -0.1800 
    107 C         -2.4410  -21.2472  -57.3971 C.2       19 UNK         0.5000 
    108 O         -1.4668  -20.6595  -57.8673 O.2       19 UNK        -0.5000 
    109 N         -2.3507  -22.3509  -56.6436 N.am      20 UNK        -0.5000 
    110 CA        -1.0855  -22.9688  -56.2484 C.3       20 UNK         0.1400 
    111 CB        -1.3198  -24.4712  -56.0354 C.3       20 UNK        -0.1800 
    112 C         -0.4658  -22.3359  -54.9857 C.2       20 UNK         0.5000 
    113 O          0.7263  -22.5359  -54.7492 O.2       20 UNK        -0.5000 
    114 N         -1.2679  -21.6153  -54.1891 N.am      21 UNK        -0.5000 
    115 CA        -0.8620  -21.0487  -52.9008 C.3       21 UNK         0.1400 
    116 CB        -1.9308  -21.3848  -51.8550 C.3       21 UNK        -0.1800 
    117 C         -0.6284  -19.5316  -52.9687 C.2       21 UNK         0.5000 
    118 O          0.3016  -19.0403  -52.3291 O.2       21 UNK        -0.5000 
    119 N         -1.4555  -18.8180  -53.7395 N.am      22 UNK        -0.5000 
    120 CA        -1.3385  -17.3699  -53.9682 C.3       22 UNK         0.1400 
    121 C         -1.8487  -16.8991  -55.3583 C.2       22 UNK         0.5000 
    122 N         -2.6684  -17.6665  -56.0650 N.am      22 UNK        -0.7600 
    123 O         -1.4767  -15.8214  -55.8148 O.2       22 UNK        -0.5000 
    124 C124       -1.9260  -16.5285  -52.8042 C.3       23 UNK        -0.0398 
    125 S125       -3.7499  -16.6194  -52.6371 S.3       23 UNK        -0.2404 
    126 C126       -3.9841  -17.7581  -51.2344 C.3       23 UNK        -0.0205 
    127 H127       -4.4372  -10.5914  -41.8741 H         1 UNK         0.0600 
    128 H128       -4.9345  -12.2048  -41.3571 H         1 UNK         0.0600 
    129 H129       -3.5094  -11.4487  -40.6387 H         1 UNK         0.0600 
    130 H130       -4.4082  -13.7710  -42.8533 H         1 UNK         0.3000 
    131 H131       -2.4709  -13.3112  -44.9432 H         1 UNK         0.0600 
    132 H132       -4.4467  -15.5214  -44.2839 H         1 UNK         0.0800 
    133 H133       -3.1633  -15.9226  -45.3625 H         1 UNK         0.0800 
    134 H134       -3.6797  -13.5818  -48.4421 H         1 UNK         0.0800 
    135 H135       -2.4398  -13.7627  -47.2419 H         1 UNK         0.0800 
    136 H136       -4.4588  -15.4839  -49.7921 H         1 UNK         0.1150 
    137 H137       -1.9730  -18.9671  -49.8705 H         1 UNK         0.1150 
    138 H138       -1.3688  -15.9683  -46.8733 H         1 UNK         0.1150 
    139 H139       -0.8596  -19.4893  -47.5769 H         1 UNK         0.0800 
    140 H140        0.2955  -18.6048  -48.5268 H         1 UNK         0.0800 
    141 H141       -1.8133  -17.7903  -45.3042 H         1 UNK         0.0800 
    142 H142       -0.5963  -17.6678  -44.0890 H         1 UNK         0.0800 
    143 H143       -0.3463  -20.3163  -45.1970 H         1 UNK         0.0600 
    144 H144        0.1087  -20.6881  -43.1264 H         1 UNK         0.3000 
    145 H145       -0.5732  -19.3542  -40.0221 H         1 UNK         0.0600 
    146 H146       -0.9673  -21.7046  -39.2946 H         1 UNK         0.0600 
    147 H147       -2.4079  -21.0431  -40.0500 H         1 UNK         0.0600 
    148 H148       -1.3907  -22.1675  -40.9429 H         1 UNK         0.0600 
    149 H149        0.9896  -21.5704  -41.1185 H         1 UNK         0.3000 
    150 H150        3.8632  -19.5555  -41.8302 H         1 UNK         0.0600 
    151 H151        4.0343  -20.3468  -39.4670 H         1 UNK         0.0600 
    152 H152        4.8950  -21.4129  -40.5652 H         1 UNK         0.0600 
    153 H153        3.3255  -21.8924  -39.9195 H         1 UNK         0.0600 
    154 H154        3.2767  -22.2948  -42.3730 H         1 UNK         0.3000 
    155 H155        3.4855  -22.7449  -44.7957 H         1 UNK         0.0600 
    156 H156        0.4137  -22.4576  -44.7257 H         1 UNK         0.0600 
    157 H157        1.3468  -23.4108  -43.5779 H         1 UNK         0.0600 
    158 H158        1.3177  -23.8621  -45.2701 H         1 UNK         0.0600 
    159 H159        2.3551  -20.5237  -46.1406 H         1 UNK         0.3000 
    160 H160        3.6584  -21.5189  -49.2261 H         1 UNK         0.0600 
    161 H161        1.5710  -20.5131  -50.2181 H         1 UNK         0.0600 
    162 H162        0.6868  -20.9525  -48.7566 H         1 UNK         0.0600 
    163 H163        1.3759  -22.2015  -49.7803 H         1 UNK         0.0600 
    164 H164        2.3952  -19.1145  -48.2036 H         1 UNK         0.3000 
    165 H165        4.1923  -17.9683  -46.2042 H         1 UNK         0.0600 
    166 H166        5.9107  -16.3098  -46.9337 H         1 UNK         0.0600 
    167 H167        6.5815  -17.9222  -46.7629 H         1 UNK         0.0600 
    168 H168        6.2440  -17.2837  -48.3660 H         1 UNK         0.0600 
    169 H169        2.8436  -16.5462  -47.2046 H         1 UNK         0.3000 
    170 H170        2.8962  -14.7173  -50.0505 H         1 UNK         0.0600 
    171 H171        1.5359  -16.4305  -51.2036 H         1 UNK         0.0600 
    172 H172        0.6292  -16.7412  -49.7363 H         1 UNK         0.0600 
    173 H173        0.5069  -15.1771  -50.5276 H         1 UNK         0.0600 
    174 H174        1.0938  -15.2695  -47.7565 H         1 UNK         0.3000 
    175 H175        2.5560  -12.5750  -45.8556 H         1 UNK         0.0600 
    176 H176       -0.2079  -13.5668  -46.7113 H         1 UNK         0.0600 
    177 H177        0.1330  -12.4633  -45.3803 H         1 UNK         0.0600 
    178 H178        0.4473  -11.9675  -47.0370 H         1 UNK         0.0600 
    179 H179        1.0545  -14.8530  -44.9918 H         1 UNK         0.3000 
    180 H180        2.9762  -17.0791  -44.3619 H         1 UNK         0.0600 
    181 H181        4.1890  -15.3112  -42.1792 H         1 UNK         0.0600 
    182 H182        5.0638  -16.3679  -43.2804 H         1 UNK         0.0600 
    183 H183        3.9942  -17.0596  -42.0733 H         1 UNK         0.0600 
    184 H184        1.1200  -17.0449  -43.2464 H         1 UNK         0.3000 
    185 H185       -0.4625  -16.6790  -41.8658 H         1 UNK         0.0600 
    186 H186        0.4119  -15.8768  -39.6659 H         1 UNK         0.0600 
    187 H187       -0.2899  -14.2909  -39.9703 H         1 UNK         0.0600 
    188 H188       -1.3306  -15.7059  -39.8002 H         1 UNK         0.0600 
    189 H189       -2.0778  -14.5012  -41.7914 H         1 UNK         0.3000 
    190 H190       -3.2319  -19.5868  -43.2710 H         1 UNK         0.3000 
    191 H191       -5.2142  -19.8458  -45.1895 H         1 UNK         0.0600 
    192 H192       -5.3219  -20.5574  -42.2129 H         1 UNK         0.0600 
    193 H193       -6.7237  -20.2568  -43.2347 H         1 UNK         0.0600 
    194 H194       -5.5821  -18.9608  -42.9142 H         1 UNK         0.0600 
    195 H195       -3.5338  -22.4641  -43.5236 H         1 UNK         0.3000 
    196 H196       -5.2731  -24.6152  -44.3081 H         1 UNK         0.0600 
    197 H197       -2.3242  -24.6084  -43.4584 H         1 UNK         0.0600 
    198 H198       -3.3533  -26.0315  -43.5652 H         1 UNK         0.0600 
    199 H199       -3.7115  -24.7835  -42.3827 H         1 UNK         0.0600 
    200 H200       -2.6091  -22.9282  -45.9044 H         1 UNK         0.3000 
    201 H201       -2.3816  -24.9292  -48.0768 H         1 UNK         0.0600 
    202 H202       -0.2864  -23.9690  -47.1816 H         1 UNK         0.0600 
    203 H203       -0.8526  -22.3339  -47.5121 H         1 UNK         0.0600 
    204 H204       -0.5324  -23.4458  -48.8390 H         1 UNK         0.0600 
    205 H205       -3.5214  -21.6310  -47.4232 H         1 UNK         0.3000 
    206 H206       -3.9478  -20.5790  -49.8832 H         1 UNK         0.0600 
    207 H207       -4.2364  -19.3894  -47.7003 H         1 UNK         0.0600 
    208 H208       -5.5945  -19.0971  -48.7723 H         1 UNK         0.0600 
    209 H209       -5.7643  -20.2360  -47.4455 H         1 UNK         0.0600 
    210 H210       -5.9277  -23.0874  -48.4896 H         1 UNK         0.3000 
    211 H211       -8.2517  -22.9514  -50.0983 H         1 UNK         0.0600 
    212 H212       -6.8405  -25.3555  -48.8170 H         1 UNK         0.0600 
    213 H213       -8.4940  -25.3535  -49.4213 H         1 UNK         0.0600 
    214 H214       -8.0639  -24.3419  -48.0511 H         1 UNK         0.0600 
    215 H215       -4.9865  -23.9613  -50.9519 H         1 UNK         0.3000 
    216 H216       -5.7601  -25.4091  -53.3642 H         1 UNK         0.0600 
    217 H217       -3.3836  -25.6624  -53.6909 H         1 UNK         0.0600 
    218 H218       -3.6829  -25.9027  -51.9813 H         1 UNK         0.0600 
    219 H219       -3.0017  -24.3799  -52.5477 H         1 UNK         0.0600 
    220 H220       -5.7530  -22.1361  -52.5801 H         1 UNK         0.3000 
    221 H221       -5.9807  -20.2314  -53.6613 H         1 UNK         0.0600 
    222 H222       -7.2065  -22.1095  -55.7567 H         1 UNK         0.0600 
    223 H223       -8.0165  -21.3874  -54.3747 H         1 UNK         0.0600 
    224 H224       -7.4650  -20.3661  -55.6897 H         1 UNK         0.0600 
    225 H225       -5.6410  -21.5059  -56.8743 H         1 UNK         0.3000 
    226 H226       -3.7718  -19.6081  -57.7453 H         1 UNK         0.0600 
    227 H227       -5.3601  -20.7746  -59.2378 H         1 UNK         0.0600 
    228 H228       -3.7179  -21.0142  -59.8111 H         1 UNK         0.0600 
    229 H229       -4.5429  -22.3128  -58.9567 H         1 UNK         0.0600 
    230 H230       -3.2018  -22.7767  -56.2926 H         1 UNK         0.3000 
    231 H231       -0.3613  -22.8571  -57.0582 H         1 UNK         0.0600 
    232 H232       -1.6927  -24.9453  -56.9434 H         1 UNK         0.0600 
    233 H233       -2.0438  -24.6506  -55.2424 H         1 UNK         0.0600 
    234 H234       -0.3949  -24.9791  -55.7592 H         1 UNK         0.0600 
    235 H235       -2.2179  -21.4343  -54.4866 H         1 UNK         0.3000 
    236 H236        0.0723  -21.5037  -52.5649 H         1 UNK         0.0600 
    237 H237       -1.6613  -20.9905  -50.8756 H         1 UNK         0.0600 
    238 H238       -2.9097  -20.9890  -52.1272 H         1 UNK         0.0600 
    239 H239       -2.0242  -22.4629  -51.7467 H         1 UNK         0.0600 
    240 H240       -2.2297  -19.2840  -54.2023 H         1 UNK         0.3000 
    241 H241       -0.2694  -17.1493  -54.0002 H         1 UNK         0.0600 
    242 H242       -2.9790  -17.3392  -56.9652 H         1 UNK         0.3800 
    243 H243       -3.0477  -18.5228  -55.6785 H         1 UNK         0.3800 
    244 H244       -1.6635  -15.4788  -52.9438 H         1 UNK         0.0800 
    245 H245       -1.4466  -16.8143  -51.8687 H         1 UNK         0.0800 
    246 H246       -5.0515  -17.8654  -51.0379 H         1 UNK         0.0800 
    247 H247       -3.6257  -18.7447  -51.5281 H         1 UNK         0.0800 
@<TRIPOS>BOND
     1    1    2 1    
     2    1  127 1    
     3    1  128 1    
     4    1  129 1    
     5    2    3 2    
     6    2    4 am   BACKBONE|DICT|INTERRES
     7    4    5 1    
     8    4  130 1    
     9    5    6 1    
    10    5   65 1    
    11    5  131 1    
    12    6    7 1    
    13    6  132 1    
    14    6  133 1    
    15    7    8 1    
    16    8    9 1    
    17    8  134 1    
    18    8  135 1    
    19    9   10 ar   
    20    9   14 ar   
    21   10   11 ar   
    22   10  136 1    
    23   11   12 ar   
    24   11  126 1    
    25   12   13 ar   
    26   12  137 1    
    27   13   14 ar   
    28   13   15 1    
    29   14  138 1    
    30   15   16 1    
    31   15  139 1    
    32   15  140 1    
    33   16   17 1    
    34   17   18 1    
    35   17  141 1    
    36   17  142 1    
    37   18   19 1    
    38   18   67 1    
    39   18  143 1    
    40   19   20 am   BACKBONE|DICT|INTERRES
    41   19  144 1    
    42   20   21 2    
    43   20   22 1    
    44   22   23 1    
    45   22   24 1    
    46   22  145 1    
    47   23  146 1    
    48   23  147 1    
    49   23  148 1    
    50   24   25 am   BACKBONE|DICT|INTERRES
    51   24  149 1    
    52   25   26 2    
    53   25   27 1    
    54   27   28 1    
    55   27   29 1    
    56   27  150 1    
    57   28  151 1    
    58   28  152 1    
    59   28  153 1    
    60   29   30 am   BACKBONE|DICT|INTERRES
    61   29  154 1    
    62   30   31 2    
    63   30   32 1    
    64   32   33 1    
    65   32   34 1    
    66   32  155 1    
    67   33  156 1    
    68   33  157 1    
    69   33  158 1    
    70   34   35 am   BACKBONE|DICT|INTERRES
    71   34  159 1    
    72   35   36 2    
    73   35   37 1    
    74   37   38 1    
    75   37   39 1    
    76   37  160 1    
    77   38  161 1    
    78   38  162 1    
    79   38  163 1    
    80   39   40 am   BACKBONE|DICT|INTERRES
    81   39  164 1    
    82   40   41 2    
    83   40   42 1    
    84   42   43 1    
    85   42   44 1    
    86   42  165 1    
    87   43  166 1    
    88   43  167 1    
    89   43  168 1    
    90   44   45 am   BACKBONE|DICT|INTERRES
    91   44  169 1    
    92   45   46 2    
    93   45   47 1    
    94   47   48 1    
    95   47   49 1    
    96   47  170 1    
    97   48  171 1    
    98   48  172 1    
    99   48  173 1    
   100   49   50 am   BACKBONE|DICT|INTERRES
   101   49  174 1    
   102   50   51 2    
   103   50   52 1    
   104   52   53 1    
   105   52   54 1    
   106   52  175 1    
   107   53  176 1    
   108   53  177 1    
   109   53  178 1    
   110   54   55 am   BACKBONE|DICT|INTERRES
   111   54  179 1    
   112   55   56 2    
   113   55   57 1    
   114   57   58 1    
   115   57   59 1    
   116   57  180 1    
   117   58  181 1    
   118   58  182 1    
   119   58  183 1    
   120   59   60 am   BACKBONE|DICT|INTERRES
   121   59  184 1    
   122   60   61 2    
   123   60   62 1    
   124   62   63 1    
   125   62   64 1    
   126   62  185 1    
   127   63  186 1    
   128   63  187 1    
   129   63  188 1    
   130   64   65 am   BACKBONE|DICT|INTERRES
   131   64  189 1    
   132   65   66 2    
   133   67   68 2    
   134   67   69 am   BACKBONE|DICT|INTERRES
   135   69   70 1    
   136   69  190 1    
   137   70   71 1    
   138   70   72 1    
   139   70  191 1    
   140   71  192 1    
   141   71  193 1    
   142   71  194 1    
   143   72   73 2    
   144   72   74 am   BACKBONE|DICT|INTERRES
   145   74   75 1    
   146   74  195 1    
   147   75   76 1    
   148   75   77 1    
   149   75  196 1    
   150   76  197 1    
   151   76  198 1    
   152   76  199 1    
   153   77   78 2    
   154   77   79 am   BACKBONE|DICT|INTERRES
   155   79   80 1    
   156   79  200 1    
   157   80   81 1    
   158   80   82 1    
   159   80  201 1    
   160   81  202 1    
   161   81  203 1    
   162   81  204 1    
   163   82   83 2    
   164   82   84 am   BACKBONE|DICT|INTERRES
   165   84   85 1    
   166   84  205 1    
   167   85   86 1    
   168   85   87 1    
   169   85  206 1    
   170   86  207 1    
   171   86  208 1    
   172   86  209 1    
   173   87   88 2    
   174   87   89 am   BACKBONE|DICT|INTERRES
   175   89   90 1    
   176   89  210 1    
   177   90   91 1    
   178   90   92 1    
   179   90  211 1    
   180   91  212 1    
   181   91  213 1    
   182   91  214 1    
   183   92   93 2    
   184   92   94 am   BACKBONE|DICT|INTERRES
   185   94   95 1    
   186   94  215 1    
   187   95   96 1    
   188   95   97 1    
   189   95  216 1    
   190   96  217 1    
   191   96  218 1    
   192   96  219 1    
   193   97   98 2    
   194   97   99 am   BACKBONE|DICT|INTERRES
   195   99  100 1    
   196   99  220 1    
   197  100  101 1    
   198  100  102 1    
   199  100  221 1    
   200  101  222 1    
   201  101  223 1    
   202  101  224 1    
   203  102  103 2    
   204  102  104 am   BACKBONE|DICT|INTERRES
   205  104  105 1    
   206  104  225 1    
   207  105  106 1    
   208  105  107 1    
   209  105  226 1    
   210  106  227 1    
   211  106  228 1    
   212  106  229 1    
   213  107  108 2    
   214  107  109 am   BACKBONE|DICT|INTERRES
   215  109  110 1    
   216  109  230 1    
   217  110  111 1    
   218  110  112 1    
   219  110  231 1    
   220  111  232 1    
   221  111  233 1    
   222  111  234 1    
   223  112  113 2    
   224  112  114 am   BACKBONE|DICT|INTERRES
   225  114  115 1    
   226  114  235 1    
   227  115  116 1    
   228  115  117 1    
   229  115  236 1    
   230  116  237 1    
   231  116  238 1    
   232  116  239 1    
   233  117  118 2    
   234  117  119 am   BACKBONE|DICT|INTERRES
   235  119  120 1    
   236  119  240 1    
   237  120  121 1    
   238  120  124 1    
   239  120  241 1    
   240  121  122 am   BACKBONE|DICT|INTERRES
   241  121  123 2    
   242  122  242 1    
   243  122  243 1    
   244  124  125 1    
   245  124  244 1    
   246  124  245 1    
   247  125  126 1    
   248  126  246 1    
   249  126  247 1    
@<TRIPOS>SUBSTRUCTURE
     1 UNK         1 GROUP             0       ****    0 ROOT    
