@<TRIPOS>MOLECULE
3R540
247   249    1
SMALL
USER_CHARGES


@<TRIPOS>ATOM
      1 CA          3.6195  -10.3030  -49.1634 C.3       0 UNK        -0.1800 
      2 C           2.8764  -11.0767  -48.0853 C.2       0 UNK         0.5000 
      3 O           2.9384  -10.7080  -46.9122 O.2       0 UNK        -0.5000 
      4 N           2.1529  -12.1348  -48.4746 N.am      1 UNK        -0.5000 
      5 CA          1.4311  -13.0555  -47.5802 C.3       1 UNK         0.1400 
      6 C6          0.9446  -14.3298  -48.3087 C.3       23 UNK        -0.0398 
      7 S7          2.2793  -15.2006  -49.1973 S.3       23 UNK        -0.2404 
      8 C8          1.4599  -15.5999  -50.7709 C.3       23 UNK        -0.0205 
      9 C9          0.4809  -16.7547  -50.6197 C.ar      23 UNK        -0.0193 
     10 C10        -0.8693  -16.5136  -50.3479 C.ar      23 UNK        -0.1150 
     11 C11        -1.7758  -17.5734  -50.2465 C.ar      23 UNK        -0.0193 
     12 C12        -1.3200  -18.8825  -50.4235 C.ar      23 UNK        -0.1150 
     13 C13         0.0261  -19.1365  -50.7001 C.ar      23 UNK        -0.0193 
     14 C14         0.9233  -18.0694  -50.7867 C.ar      23 UNK        -0.1150 
     15 C15         0.5044  -20.5576  -50.9479 C.3       23 UNK        -0.0205 
     16 S16         0.9222  -21.4158  -49.4003 S.3       23 UNK        -0.2404 
     17 C17        -0.7401  -21.7310  -48.7243 C.3       23 UNK        -0.0398 
     18 CA         -0.7319  -22.8598  -47.6730 C.3       11 UNK         0.1400 
     19 N          -0.0401  -22.4733  -46.4388 N.am      11 UNK        -0.5000 
     20 C           0.2682  -23.3239  -45.4504 C.2       10 UNK         0.5000 
     21 O           0.0367  -24.5310  -45.4930 O.2       10 UNK        -0.5000 
     22 CA          0.8773  -22.7238  -44.1726 C.3       10 UNK         0.1400 
     23 CB          2.3722  -22.4271  -44.3611 C.3       10 UNK        -0.1800 
     24 N           0.1709  -21.5196  -43.7342 N.am      10 UNK        -0.5000 
     25 C          -1.1132  -21.4991  -43.3471 C.2       9 UNK         0.5000 
     26 O          -1.8142  -22.5072  -43.2640 O.2       9 UNK        -0.5000 
     27 CA         -1.7357  -20.1241  -43.0431 C.3       9 UNK         0.1400 
     28 CB         -1.3930  -19.6764  -41.6152 C.3       9 UNK        -0.1800 
     29 N          -1.3306  -19.0905  -43.9964 N.am      9 UNK        -0.5000 
     30 C          -1.6069  -19.1095  -45.3089 C.2       8 UNK         0.5000 
     31 O          -2.2694  -19.9896  -45.8564 O.2       8 UNK        -0.5000 
     32 CA         -0.9914  -17.9867  -46.1630 C.3       8 UNK         0.1400 
     33 CB         -1.8244  -16.6994  -46.0671 C.3       8 UNK        -0.1800 
     34 N           0.3967  -17.7144  -45.7894 N.am      8 UNK        -0.5000 
     35 C           1.3969  -18.5955  -45.9374 C.2       7 UNK         0.5000 
     36 O           1.2581  -19.7116  -46.4372 O.2       7 UNK        -0.5000 
     37 CA          2.7643  -18.1832  -45.3680 C.3       7 UNK         0.1400 
     38 CB          3.4891  -17.2185  -46.3173 C.3       7 UNK        -0.1800 
     39 N           2.6387  -17.5755  -44.0421 N.am      7 UNK        -0.5000 
     40 C           2.3118  -18.2613  -42.9357 C.2       6 UNK         0.5000 
     41 O           2.1150  -19.4753  -42.9245 O.2       6 UNK        -0.5000 
     42 CA          2.1403  -17.4669  -41.6255 C.3       6 UNK         0.1400 
     43 CB          3.4758  -17.3814  -40.8722 C.3       6 UNK        -0.1800 
     44 N           1.6163  -16.1170  -41.8245 N.am      6 UNK        -0.5000 
     45 C           0.4396  -15.8188  -42.3919 C.2       5 UNK         0.5000 
     46 O          -0.3809  -16.6651  -42.7462 O.2       5 UNK        -0.5000 
     47 CA          0.1524  -14.3289  -42.6569 C.3       5 UNK         0.1400 
     48 CB         -0.7320  -13.7446  -41.5463 C.3       5 UNK        -0.1800 
     49 N           1.3470  -13.4894  -42.8065 N.am      5 UNK        -0.5000 
     50 C           2.3328  -13.6663  -43.6970 C.2       4 UNK         0.5000 
     51 O           2.3978  -14.6324  -44.4593 O.2       4 UNK        -0.5000 
     52 CA          3.4123  -12.5676  -43.7381 C.3       4 UNK         0.1400 
     53 CB          4.5687  -12.9059  -44.6964 C.3       4 UNK        -0.1800 
     54 N           2.8312  -11.2853  -44.1314 N.am      4 UNK        -0.5000 
     55 C           2.1764  -10.4436  -43.3201 C.2       3 UNK         0.5000 
     56 O           2.0084  -10.6499  -42.1173 O.2       3 UNK        -0.5000 
     57 CA          1.5702   -9.1928  -43.9740 C.3       3 UNK         0.1400 
     58 CB          2.6661   -8.1882  -44.3644 C.3       3 UNK        -0.1800 
     59 N           0.8093   -9.5716  -45.1626 N.am      3 UNK        -0.5000 
     60 C          -0.5113   -9.8022  -45.1831 C.2       2 UNK         0.5000 
     61 O          -1.2554   -9.6173  -44.2195 O.2       2 UNK        -0.5000 
     62 CA         -1.1019  -10.3470  -46.5001 C.3       2 UNK         0.1400 
     63 CB         -1.5505   -9.1932  -47.4095 C.3       2 UNK        -0.1800 
     64 N          -0.1555  -11.1921  -47.2294 N.am      2 UNK        -0.5000 
     65 C           0.2585  -12.3985  -46.8159 C.2       1 UNK         0.5000 
     66 O          -0.2403  -12.9871  -45.8585 O.2       1 UNK        -0.5000 
     67 C          -2.1664  -23.3581  -47.4067 C.2       11 UNK         0.5000 
     68 O          -2.5861  -24.3335  -48.0296 O.2       11 UNK        -0.5000 
     69 N          -2.8884  -22.7134  -46.4804 N.am      12 UNK        -0.5000 
     70 CA         -4.2221  -23.1281  -46.0414 C.3       12 UNK         0.1400 
     71 CB         -4.8343  -22.0486  -45.1378 C.3       12 UNK        -0.1800 
     72 C          -4.2261  -24.5009  -45.3449 C.2       12 UNK         0.5000 
     73 O          -5.1643  -25.2726  -45.5390 O.2       12 UNK        -0.5000 
     74 N          -3.1756  -24.7885  -44.5677 N.am      13 UNK        -0.5000 
     75 CA         -2.9822  -26.0636  -43.8855 C.3       13 UNK         0.1400 
     76 CB         -1.9847  -25.8771  -42.7306 C.3       13 UNK        -0.1800 
     77 C          -2.5185  -27.1785  -44.8403 C.2       13 UNK         0.5000 
     78 O          -3.1399  -28.2411  -44.8796 O.2       13 UNK        -0.5000 
     79 N          -1.4193  -26.9342  -45.5656 N.am      14 UNK        -0.5000 
     80 CA         -0.7014  -27.9580  -46.3261 C.3       14 UNK         0.1400 
     81 CB          0.7808  -27.5640  -46.4236 C.3       14 UNK        -0.1800 
     82 C          -1.2708  -28.2068  -47.7314 C.2       14 UNK         0.5000 
     83 O          -1.2187  -29.3443  -48.2015 O.2       14 UNK        -0.5000 
     84 N          -1.7726  -27.1529  -48.3868 N.am      15 UNK        -0.5000 
     85 CA         -2.2072  -27.1774  -49.7865 C.3       15 UNK         0.1400 
     86 CB         -1.3244  -26.2069  -50.5946 C.3       15 UNK        -0.1800 
     87 C          -3.6976  -26.8324  -49.9445 C.2       15 UNK         0.5000 
     88 O          -4.1450  -26.6296  -51.0730 O.2       15 UNK        -0.5000 
     89 N          -4.4365  -26.7221  -48.8285 N.am      16 UNK        -0.5000 
     90 CA         -5.8582  -26.3522  -48.7423 C.3       16 UNK         0.1400 
     91 CB         -6.7369  -27.4715  -49.3394 C.3       16 UNK        -0.1800 
     92 C          -6.1832  -24.9667  -49.3509 C.2       16 UNK         0.5000 
     93 O          -7.3266  -24.7230  -49.7387 O.2       16 UNK        -0.5000 
     94 N          -5.1610  -24.1020  -49.4569 N.am      17 UNK        -0.5000 
     95 CA         -5.1412  -22.8167  -50.1647 C.3       17 UNK         0.1400 
     96 CB         -6.0557  -21.7832  -49.4742 C.3       17 UNK        -0.1800 
     97 C          -5.4088  -22.9364  -51.6844 C.2       17 UNK         0.5000 
     98 O          -5.8043  -21.9525  -52.3104 O.2       17 UNK        -0.5000 
     99 N          -5.1771  -24.1258  -52.2636 N.am      18 UNK        -0.5000 
    100 CA        -5.2877  -24.3774  -53.7031 C.3       18 UNK         0.1400 
    101 CB        -5.5583  -25.8713  -53.9395 C.3       18 UNK        -0.1800 
    102 C         -4.0303  -23.9257  -54.4705 C.2       18 UNK         0.5000 
    103 O         -4.1001  -23.7274  -55.6840 O.2       18 UNK        -0.5000 
    104 N         -2.9070  -23.7736  -53.7558 N.am      19 UNK        -0.5000 
    105 CA        -1.6775  -23.1649  -54.2535 C.3       19 UNK         0.1400 
    106 CB        -0.5206  -23.5346  -53.3115 C.3       19 UNK        -0.1800 
    107 C         -1.8486  -21.6382  -54.3577 C.2       19 UNK         0.5000 
    108 O         -2.3408  -21.0228  -53.4096 O.2       19 UNK        -0.5000 
    109 N         -1.4322  -21.0730  -55.5001 N.am      20 UNK        -0.5000 
    110 CA        -1.6090  -19.6752  -55.9174 C.3       20 UNK         0.1400 
    111 CB        -0.8255  -18.7150  -54.9915 C.3       20 UNK        -0.1800 
    112 C         -3.0946  -19.2889  -56.1321 C.2       20 UNK         0.5000 
    113 O         -3.9611  -20.1651  -56.1696 O.2       20 UNK        -0.5000 
    114 N         -3.3610  -17.9933  -56.3514 N.am      21 UNK        -0.5000 
    115 CA        -4.6894  -17.4593  -56.6770 C.3       21 UNK         0.1400 
    116 CB        -4.5841  -16.0142  -57.1976 C.3       21 UNK        -0.1800 
    117 C         -5.7645  -17.6072  -55.5703 C.2       21 UNK         0.5000 
    118 O         -6.8497  -18.0939  -55.8849 O.2       21 UNK        -0.5000 
    119 N         -5.5359  -17.2298  -54.3030 N.am      22 UNK        -0.5000 
    120 CA        -4.3697  -16.5440  -53.7247 C.3       22 UNK         0.1400 
    121 C         -4.7120  -15.1891  -53.0382 C.2       22 UNK         0.5000 
    122 N         -5.9378  -14.6875  -53.1339 N.am      22 UNK        -0.7600 
    123 O         -3.8449  -14.5638  -52.4347 O.2       22 UNK        -0.5000 
    124 C124       -3.5462  -17.4972  -52.8272 C.3       23 UNK        -0.0398 
    125 S125       -4.3493  -18.0238  -51.2685 S.3       23 UNK        -0.2404 
    126 C126       -3.2547  -17.2919  -50.0007 C.3       23 UNK        -0.0205 
    127 H127        3.2781   -9.2681  -49.1844 H         1 UNK         0.0600 
    128 H128        3.4639  -10.7344  -50.1524 H         1 UNK         0.0600 
    129 H129        4.6892  -10.3061  -48.9544 H         1 UNK         0.0600 
    130 H130        2.1456  -12.3914  -49.4516 H         1 UNK         0.3000 
    131 H131        2.1457  -13.3741  -46.8206 H         1 UNK         0.0600 
    132 H132        0.5199  -15.0371  -47.5953 H         1 UNK         0.0800 
    133 H133        0.1450  -14.0734  -49.0042 H         1 UNK         0.0800 
    134 H134        2.2241  -15.8627  -51.5038 H         1 UNK         0.0800 
    135 H135        0.9561  -14.7173  -51.1676 H         1 UNK         0.0800 
    136 H136       -1.2218  -15.4982  -50.2388 H         1 UNK         0.1150 
    137 H137       -2.0236  -19.7015  -50.3781 H         1 UNK         0.1150 
    138 H138        1.9651  -18.2606  -51.0027 H         1 UNK         0.1150 
    139 H139       -0.2584  -21.1135  -51.4925 H         1 UNK         0.0800 
    140 H140        1.3852  -20.5473  -51.5916 H         1 UNK         0.0800 
    141 H141       -1.3964  -21.9902  -49.5575 H         1 UNK         0.0800 
    142 H142       -1.1294  -20.8076  -48.2925 H         1 UNK         0.0800 
    143 H143       -0.1883  -23.7077  -48.0963 H         1 UNK         0.0600 
    144 H144        0.2230  -21.4965  -46.3502 H         1 UNK         0.3000 
    145 H145        0.7816  -23.4699  -43.3810 H         1 UNK         0.0600 
    146 H146        2.8285  -22.0988  -43.4273 H         1 UNK         0.0600 
    147 H147        2.9085  -23.3188  -44.6880 H         1 UNK         0.0600 
    148 H148        2.5412  -21.6508  -45.1071 H         1 UNK         0.0600 
    149 H149        0.7069  -20.6580  -43.7210 H         1 UNK         0.3000 
    150 H150       -2.8201  -20.2274  -43.1127 H         1 UNK         0.0600 
    151 H151       -1.7402  -20.4075  -40.8840 H         1 UNK         0.0600 
    152 H152       -1.8663  -18.7243  -41.3746 H         1 UNK         0.0600 
    153 H153       -0.3183  -19.5614  -41.4782 H         1 UNK         0.0600 
    154 H154       -0.8223  -18.2959  -43.6168 H         1 UNK         0.3000 
    155 H155       -1.0001  -18.3184  -47.2038 H         1 UNK         0.0600 
    156 H156       -1.8041  -16.2759  -45.0626 H         1 UNK         0.0600 
    157 H157       -2.8675  -16.8923  -46.3210 H         1 UNK         0.0600 
    158 H158       -1.4622  -15.9399  -46.7586 H         1 UNK         0.0600 
    159 H159        0.5871  -16.8381  -45.3255 H         1 UNK         0.3000 
    160 H160        3.3738  -19.0848  -45.2759 H         1 UNK         0.0600 
    161 H161        2.9346  -16.2895  -46.4488 H         1 UNK         0.0600 
    162 H162        3.6158  -17.6647  -47.3046 H         1 UNK         0.0600 
    163 H163        4.4808  -16.9651  -45.9427 H         1 UNK         0.0600 
    164 H164        2.7231  -16.5648  -43.9968 H         1 UNK         0.3000 
    165 H165        1.4296  -18.0083  -40.9989 H         1 UNK         0.0600 
    166 H166        3.3529  -16.8963  -39.9037 H         1 UNK         0.0600 
    167 H167        3.8833  -18.3762  -40.6865 H         1 UNK         0.0600 
    168 H168        4.2217  -16.8212  -41.4376 H         1 UNK         0.0600 
    169 H169        2.2245  -15.3528  -41.5716 H         1 UNK         0.3000 
    170 H170       -0.4032  -14.2782  -43.5941 H         1 UNK         0.0600 
    171 H171       -1.6446  -14.3297  -41.4237 H         1 UNK         0.0600 
    172 H172       -0.2158  -13.7339  -40.5856 H         1 UNK         0.0600 
    173 H173       -1.0318  -12.7224  -41.7791 H         1 UNK         0.0600 
    174 H174        1.3772  -12.6445  -42.2469 H         1 UNK         0.3000 
    175 H175        3.8304  -12.4804  -42.7331 H         1 UNK         0.0600 
    176 H176        4.2292  -12.9979  -45.7282 H         1 UNK         0.0600 
    177 H177        5.3398  -12.1361  -44.6681 H         1 UNK         0.0600 
    178 H178        5.0416  -13.8495  -44.4212 H         1 UNK         0.0600 
    179 H179        2.9028  -11.0510  -45.1193 H         1 UNK         0.3000 
    180 H180        0.9166   -8.7100  -43.2443 H         1 UNK         0.0600 
    181 H181        3.3556   -8.6013  -45.1017 H         1 UNK         0.0600 
    182 H182        3.2533   -7.8944  -43.4935 H         1 UNK         0.0600 
    183 H183        2.2330   -7.2809  -44.7856 H         1 UNK         0.0600 
    184 H184        1.3560   -9.8004  -45.9848 H         1 UNK         0.3000 
    185 H185       -1.9788  -10.9481  -46.2500 H         1 UNK         0.0600 
    186 H186       -2.2754   -8.5557  -46.9014 H         1 UNK         0.0600 
    187 H187       -0.7107   -8.5635  -47.7062 H         1 UNK         0.0600 
    188 H188       -2.0272   -9.5674  -48.3156 H         1 UNK         0.0600 
    189 H189        0.2941  -10.7846  -48.0361 H         1 UNK         0.3000 
    190 H190       -2.5118  -21.8680  -46.0594 H         1 UNK         0.3000 
    191 H191       -4.8530  -23.2141  -46.9249 H         1 UNK         0.0600 
    192 H192       -4.2538  -21.9078  -44.2268 H         1 UNK         0.0600 
    193 H193       -5.8487  -22.3182  -44.8415 H         1 UNK         0.0600 
    194 H194       -4.8899  -21.0891  -45.6523 H         1 UNK         0.0600 
    195 H195       -2.4763  -24.0710  -44.4077 H         1 UNK         0.3000 
    196 H196       -3.9358  -26.3721  -43.4514 H         1 UNK         0.0600 
    197 H197       -1.8192  -26.8158  -42.2005 H         1 UNK         0.0600 
    198 H198       -2.3570  -25.1542  -42.0045 H         1 UNK         0.0600 
    199 H199       -1.0157  -25.5224  -43.0834 H         1 UNK         0.0600 
    200 H200       -0.9626  -26.0262  -45.4894 H         1 UNK         0.3000 
    201 H201       -0.7545  -28.9014  -45.7780 H         1 UNK         0.0600 
    202 H202        1.2172  -27.4198  -45.4350 H         1 UNK         0.0600 
    203 H203        0.9157  -26.6398  -46.9871 H         1 UNK         0.0600 
    204 H204        1.3597  -28.3406  -46.9250 H         1 UNK         0.0600 
    205 H205       -1.8143  -26.2488  -47.9290 H         1 UNK         0.3000 
    206 H206       -2.0817  -28.1739  -50.2139 H         1 UNK         0.0600 
    207 H207       -0.2687  -26.4584  -50.4927 H         1 UNK         0.0600 
    208 H208       -1.5631  -26.2498  -51.6580 H         1 UNK         0.0600 
    209 H209       -1.4533  -25.1736  -50.2725 H         1 UNK         0.0600 
    210 H210       -3.9702  -26.8760  -47.9458 H         1 UNK         0.3000 
    211 H211       -6.0999  -26.2842  -47.6829 H         1 UNK         0.0600 
    212 H212       -6.6128  -27.5514  -50.4198 H         1 UNK         0.0600 
    213 H213       -7.7940  -27.2866  -49.1452 H         1 UNK         0.0600 
    214 H214       -6.4940  -28.4395  -48.9011 H         1 UNK         0.0600 
    215 H215       -4.2662  -24.3969  -49.0763 H         1 UNK         0.3000 
    216 H216       -4.1179  -22.4486  -50.0777 H         1 UNK         0.0600 
    217 H217       -5.9367  -20.7956  -49.9218 H         1 UNK         0.0600 
    218 H218       -5.8163  -21.6820  -48.4165 H         1 UNK         0.0600 
    219 H219       -7.1085  -22.0531  -49.5573 H         1 UNK         0.0600 
    220 H220       -4.8740  -24.9116  -51.6950 H         1 UNK         0.3000 
    221 H221       -6.1377  -23.8160  -54.0968 H         1 UNK         0.0600 
    222 H222       -4.7056  -26.4868  -53.6517 H         1 UNK         0.0600 
    223 H223       -6.4254  -26.2118  -53.3732 H         1 UNK         0.0600 
    224 H224       -5.7591  -26.0670  -54.9934 H         1 UNK         0.0600 
    225 H225       -2.9603  -23.9327  -52.7619 H         1 UNK         0.3000 
    226 H226       -1.4583  -23.5711  -55.2433 H         1 UNK         0.0600 
    227 H227       -0.3254  -24.6069  -53.3340 H         1 UNK         0.0600 
    228 H228        0.4014  -23.0302  -53.6037 H         1 UNK         0.0600 
    229 H229       -0.7359  -23.2596  -52.2788 H         1 UNK         0.0600 
    230 H230       -1.0632  -21.6821  -56.2165 H         1 UNK         0.3000 
    231 H231       -1.1528  -19.6062  -56.9059 H         1 UNK         0.0600 
    232 H232        0.2344  -18.9693  -54.9870 H         1 UNK         0.0600 
    233 H233       -1.1663  -18.7563  -53.9586 H         1 UNK         0.0600 
    234 H234       -0.8973  -17.6788  -55.3214 H         1 UNK         0.0600 
    235 H235       -2.5995  -17.3313  -56.3432 H         1 UNK         0.3000 
    236 H236       -5.0506  -18.0531  -57.5199 H         1 UNK         0.0600 
    237 H237       -5.5699  -15.6206  -57.4488 H         1 UNK         0.0600 
    238 H238       -4.1390  -15.3320  -56.4753 H         1 UNK         0.0600 
    239 H239       -3.9824  -15.9709  -58.1055 H         1 UNK         0.0600 
    240 H240       -6.2680  -17.4028  -53.6304 H         1 UNK         0.3000 
    241 H241       -3.6992  -16.2357  -54.5209 H         1 UNK         0.0600 
    242 H242       -6.1444  -13.8045  -52.6937 H         1 UNK         0.3800 
    243 H243       -6.6562  -15.1640  -53.6557 H         1 UNK         0.3800 
    244 H244       -3.3315  -18.4118  -53.3768 H         1 UNK         0.0800 
    245 H245       -2.5753  -17.0441  -52.6323 H         1 UNK         0.0800 
    246 H246       -3.5321  -17.6856  -49.0222 H         1 UNK         0.0800 
    247 H247       -3.4408  -16.2173  -49.9659 H         1 UNK         0.0800 
@<TRIPOS>BOND
     1    1    2 1    
     2    1  127 1    
     3    1  128 1    
     4    1  129 1    
     5    2    3 2    
     6    2    4 am   BACKBONE|DICT|INTERRES
     7    4    5 1    
     8    4  130 1    
     9    5    6 1    
    10    5   65 1    
    11    5  131 1    
    12    6    7 1    
    13    6  132 1    
    14    6  133 1    
    15    7    8 1    
    16    8    9 1    
    17    8  134 1    
    18    8  135 1    
    19    9   10 ar   
    20    9   14 ar   
    21   10   11 ar   
    22   10  136 1    
    23   11   12 ar   
    24   11  126 1    
    25   12   13 ar   
    26   12  137 1    
    27   13   14 ar   
    28   13   15 1    
    29   14  138 1    
    30   15   16 1    
    31   15  139 1    
    32   15  140 1    
    33   16   17 1    
    34   17   18 1    
    35   17  141 1    
    36   17  142 1    
    37   18   19 1    
    38   18   67 1    
    39   18  143 1    
    40   19   20 am   BACKBONE|DICT|INTERRES
    41   19  144 1    
    42   20   21 2    
    43   20   22 1    
    44   22   23 1    
    45   22   24 1    
    46   22  145 1    
    47   23  146 1    
    48   23  147 1    
    49   23  148 1    
    50   24   25 am   BACKBONE|DICT|INTERRES
    51   24  149 1    
    52   25   26 2    
    53   25   27 1    
    54   27   28 1    
    55   27   29 1    
    56   27  150 1    
    57   28  151 1    
    58   28  152 1    
    59   28  153 1    
    60   29   30 am   BACKBONE|DICT|INTERRES
    61   29  154 1    
    62   30   31 2    
    63   30   32 1    
    64   32   33 1    
    65   32   34 1    
    66   32  155 1    
    67   33  156 1    
    68   33  157 1    
    69   33  158 1    
    70   34   35 am   BACKBONE|DICT|INTERRES
    71   34  159 1    
    72   35   36 2    
    73   35   37 1    
    74   37   38 1    
    75   37   39 1    
    76   37  160 1    
    77   38  161 1    
    78   38  162 1    
    79   38  163 1    
    80   39   40 am   BACKBONE|DICT|INTERRES
    81   39  164 1    
    82   40   41 2    
    83   40   42 1    
    84   42   43 1    
    85   42   44 1    
    86   42  165 1    
    87   43  166 1    
    88   43  167 1    
    89   43  168 1    
    90   44   45 am   BACKBONE|DICT|INTERRES
    91   44  169 1    
    92   45   46 2    
    93   45   47 1    
    94   47   48 1    
    95   47   49 1    
    96   47  170 1    
    97   48  171 1    
    98   48  172 1    
    99   48  173 1    
   100   49   50 am   BACKBONE|DICT|INTERRES
   101   49  174 1    
   102   50   51 2    
   103   50   52 1    
   104   52   53 1    
   105   52   54 1    
   106   52  175 1    
   107   53  176 1    
   108   53  177 1    
   109   53  178 1    
   110   54   55 am   BACKBONE|DICT|INTERRES
   111   54  179 1    
   112   55   56 2    
   113   55   57 1    
   114   57   58 1    
   115   57   59 1    
   116   57  180 1    
   117   58  181 1    
   118   58  182 1    
   119   58  183 1    
   120   59   60 am   BACKBONE|DICT|INTERRES
   121   59  184 1    
   122   60   61 2    
   123   60   62 1    
   124   62   63 1    
   125   62   64 1    
   126   62  185 1    
   127   63  186 1    
   128   63  187 1    
   129   63  188 1    
   130   64   65 am   BACKBONE|DICT|INTERRES
   131   64  189 1    
   132   65   66 2    
   133   67   68 2    
   134   67   69 am   BACKBONE|DICT|INTERRES
   135   69   70 1    
   136   69  190 1    
   137   70   71 1    
   138   70   72 1    
   139   70  191 1    
   140   71  192 1    
   141   71  193 1    
   142   71  194 1    
   143   72   73 2    
   144   72   74 am   BACKBONE|DICT|INTERRES
   145   74   75 1    
   146   74  195 1    
   147   75   76 1    
   148   75   77 1    
   149   75  196 1    
   150   76  197 1    
   151   76  198 1    
   152   76  199 1    
   153   77   78 2    
   154   77   79 am   BACKBONE|DICT|INTERRES
   155   79   80 1    
   156   79  200 1    
   157   80   81 1    
   158   80   82 1    
   159   80  201 1    
   160   81  202 1    
   161   81  203 1    
   162   81  204 1    
   163   82   83 2    
   164   82   84 am   BACKBONE|DICT|INTERRES
   165   84   85 1    
   166   84  205 1    
   167   85   86 1    
   168   85   87 1    
   169   85  206 1    
   170   86  207 1    
   171   86  208 1    
   172   86  209 1    
   173   87   88 2    
   174   87   89 am   BACKBONE|DICT|INTERRES
   175   89   90 1    
   176   89  210 1    
   177   90   91 1    
   178   90   92 1    
   179   90  211 1    
   180   91  212 1    
   181   91  213 1    
   182   91  214 1    
   183   92   93 2    
   184   92   94 am   BACKBONE|DICT|INTERRES
   185   94   95 1    
   186   94  215 1    
   187   95   96 1    
   188   95   97 1    
   189   95  216 1    
   190   96  217 1    
   191   96  218 1    
   192   96  219 1    
   193   97   98 2    
   194   97   99 am   BACKBONE|DICT|INTERRES
   195   99  100 1    
   196   99  220 1    
   197  100  101 1    
   198  100  102 1    
   199  100  221 1    
   200  101  222 1    
   201  101  223 1    
   202  101  224 1    
   203  102  103 2    
   204  102  104 am   BACKBONE|DICT|INTERRES
   205  104  105 1    
   206  104  225 1    
   207  105  106 1    
   208  105  107 1    
   209  105  226 1    
   210  106  227 1    
   211  106  228 1    
   212  106  229 1    
   213  107  108 2    
   214  107  109 am   BACKBONE|DICT|INTERRES
   215  109  110 1    
   216  109  230 1    
   217  110  111 1    
   218  110  112 1    
   219  110  231 1    
   220  111  232 1    
   221  111  233 1    
   222  111  234 1    
   223  112  113 2    
   224  112  114 am   BACKBONE|DICT|INTERRES
   225  114  115 1    
   226  114  235 1    
   227  115  116 1    
   228  115  117 1    
   229  115  236 1    
   230  116  237 1    
   231  116  238 1    
   232  116  239 1    
   233  117  118 2    
   234  117  119 am   BACKBONE|DICT|INTERRES
   235  119  120 1    
   236  119  240 1    
   237  120  121 1    
   238  120  124 1    
   239  120  241 1    
   240  121  122 am   BACKBONE|DICT|INTERRES
   241  121  123 2    
   242  122  242 1    
   243  122  243 1    
   244  124  125 1    
   245  124  244 1    
   246  124  245 1    
   247  125  126 1    
   248  126  246 1    
   249  126  247 1    
@<TRIPOS>SUBSTRUCTURE
     1 UNK         1 GROUP             0       ****    0 ROOT    
