@<TRIPOS>MOLECULE
3R540
247   249    1
SMALL
USER_CHARGES


@<TRIPOS>ATOM
      1 CA          6.5511  -11.1997  -49.6398 C.3       0 UNK        -0.1800 
      2 C           6.2492  -12.6883  -49.5424 C.2       0 UNK         0.5000 
      3 O           7.1742  -13.4988  -49.4919 O.2       0 UNK        -0.5000 
      4 N           4.9589  -13.0452  -49.5134 N.am      1 UNK        -0.5000 
      5 CA          4.4692  -14.4240  -49.4217 C.3       1 UNK         0.1400 
      6 C6          2.9696  -14.5571  -49.7866 C.3       23 UNK        -0.0398 
      7 S7          2.5992  -14.0129  -51.4894 S.3       23 UNK        -0.2404 
      8 C8          3.1222  -15.4516  -52.4791 C.3       23 UNK        -0.0205 
      9 C9          2.2934  -16.6935  -52.1878 C.ar      23 UNK        -0.0193 
     10 C10         1.0216  -16.8367  -52.7494 C.ar      23 UNK        -0.1150 
     11 C11         0.2586  -17.9785  -52.4906 C.ar      23 UNK        -0.0193 
     12 C12         0.7826  -18.9871  -51.6775 C.ar      23 UNK        -0.1150 
     13 C13         2.0466  -18.8492  -51.0961 C.ar      23 UNK        -0.0193 
     14 C14         2.8004  -17.7028  -51.3629 C.ar      23 UNK        -0.1150 
     15 C15         2.6063  -19.9344  -50.1860 C.3       23 UNK        -0.0205 
     16 S16         2.2147  -19.6224  -48.4327 S.3       23 UNK        -0.2404 
     17 C17         0.5022  -20.2403  -48.3232 C.3       23 UNK        -0.0398 
     18 CA          0.4145  -21.5813  -47.5555 C.3       11 UNK         0.1400 
     19 N           0.5019  -21.4030  -46.1026 N.am      11 UNK        -0.5000 
     20 C           0.5550  -22.4003  -45.2079 C.2       10 UNK         0.5000 
     21 O           0.6070  -23.5918  -45.5120 O.2       10 UNK        -0.5000 
     22 CA          0.4734  -22.0073  -43.7217 C.3       10 UNK         0.1400 
     23 CB          1.8323  -21.5144  -43.2029 C.3       10 UNK        -0.1800 
     24 N          -0.5597  -21.0018  -43.4639 N.am      10 UNK        -0.5000 
     25 C          -1.8712  -21.2022  -43.6617 C.2       9 UNK         0.5000 
     26 O          -2.3481  -22.2731  -44.0340 O.2       9 UNK        -0.5000 
     27 CA         -2.8085  -20.0006  -43.4517 C.3       9 UNK         0.1400 
     28 CB         -3.1340  -19.8183  -41.9621 C.3       9 UNK        -0.1800 
     29 N          -2.2689  -18.7572  -44.0019 N.am      9 UNK        -0.5000 
     30 C          -2.0220  -18.5443  -45.3030 C.2       8 UNK         0.5000 
     31 O          -2.2696  -19.3629  -46.1885 O.2       8 UNK        -0.5000 
     32 CA         -1.3266  -17.2199  -45.6711 C.3       8 UNK         0.1400 
     33 CB         -2.3280  -16.0560  -45.6934 C.3       8 UNK        -0.1800 
     34 N          -0.2219  -16.9003  -44.7674 N.am      8 UNK        -0.5000 
     35 C           0.8683  -17.6622  -44.6014 C.2       7 UNK         0.5000 
     36 O           1.0820  -18.6970  -45.2314 O.2       7 UNK        -0.5000 
     37 CA          1.8483  -17.2351  -43.4967 C.3       7 UNK         0.1400 
     38 CB          2.7804  -16.1139  -43.9750 C.3       7 UNK        -0.1800 
     39 N           1.1477  -16.8104  -42.2855 N.am      7 UNK        -0.5000 
     40 C           0.4893  -17.6413  -41.4659 C.2       6 UNK         0.5000 
     41 O           0.4338  -18.8600  -41.6284 O.2       6 UNK        -0.5000 
     42 CA         -0.2613  -16.9957  -40.2868 C.3       6 UNK         0.1400 
     43 CB          0.6937  -16.7388  -39.1115 C.3       6 UNK        -0.1800 
     44 N          -0.9238  -15.7438  -40.6570 N.am      6 UNK        -0.5000 
     45 C          -1.9600  -15.6611  -41.5031 C.2       5 UNK         0.5000 
     46 O          -2.4795  -16.6355  -42.0444 O.2       5 UNK        -0.5000 
     47 CA         -2.4747  -14.2489  -41.8363 C.3       5 UNK         0.1400 
     48 CB         -3.4944  -13.7848  -40.7856 C.3       5 UNK        -0.1800 
     49 N          -1.4137  -13.2450  -41.9621 N.am      5 UNK        -0.5000 
     50 C          -0.4088  -13.3030  -42.8457 C.2       4 UNK         0.5000 
     51 O          -0.2133  -14.2597  -43.5983 O.2       4 UNK        -0.5000 
     52 CA          0.5674  -12.1121  -42.8519 C.3       4 UNK         0.1400 
     53 CB          1.7399  -12.3881  -41.8975 C.3       4 UNK        -0.1800 
     54 N           1.1052  -11.8387  -44.1845 N.am      4 UNK        -0.5000 
     55 C           0.3893  -11.4852  -45.2618 C.2       3 UNK         0.5000 
     56 O          -0.8222  -11.2628  -45.2300 O.2       3 UNK        -0.5000 
     57 CA          1.1483  -11.3266  -46.5984 C.3       3 UNK         0.1400 
     58 CB          1.1073   -9.8663  -47.0776 C.3       3 UNK        -0.1800 
     59 N           2.5495  -11.7576  -46.5453 N.am      3 UNK        -0.5000 
     60 C           2.9566  -13.0320  -46.5390 C.2       2 UNK         0.5000 
     61 O           2.1903  -13.9951  -46.5710 O.2       2 UNK        -0.5000 
     62 CA          4.4766  -13.2507  -46.4519 C.3       2 UNK         0.1400 
     63 CB          4.9447  -13.0729  -44.9982 C.3       2 UNK        -0.1800 
     64 N           4.8878  -14.5838  -46.9022 N.am      2 UNK        -0.5000 
     65 C           4.8194  -15.1784  -48.1085 C.2       1 UNK         0.5000 
     66 O           5.0856  -16.3753  -48.2064 O.2       1 UNK        -0.5000 
     67 C          -0.8532  -22.3585  -47.9618 C.2       11 UNK         0.5000 
     68 O          -0.7509  -23.3111  -48.7349 O.2       11 UNK        -0.5000 
     69 N          -2.0136  -21.9683  -47.4149 N.am      12 UNK        -0.5000 
     70 CA         -3.2947  -22.6358  -47.6455 C.3       12 UNK         0.1400 
     71 CB         -4.4317  -21.8276  -47.0051 C.3       12 UNK        -0.1800 
     72 C          -3.3079  -24.0933  -47.1547 C.2       12 UNK         0.5000 
     73 O          -3.7967  -24.9623  -47.8753 O.2       12 UNK        -0.5000 
     74 N          -2.7401  -24.3443  -45.9676 N.am      13 UNK        -0.5000 
     75 CA         -2.5818  -25.6790  -45.3908 C.3       13 UNK         0.1400 
     76 CB         -2.0785  -25.5642  -43.9441 C.3       13 UNK        -0.1800 
     77 C          -1.6535  -26.5784  -46.2259 C.2       13 UNK         0.5000 
     78 O          -2.0068  -27.7279  -46.4903 O.2       13 UNK        -0.5000 
     79 N          -0.5073  -26.0322  -46.6573 N.am      14 UNK        -0.5000 
     80 CA          0.4749  -26.7148  -47.5029 C.3       14 UNK         0.1400 
     81 CB          1.7430  -25.8548  -47.6124 C.3       14 UNK        -0.1800 
     82 C          -0.0687  -27.0588  -48.9019 C.2       14 UNK         0.5000 
     83 O           0.2066  -28.1455  -49.4118 O.2       14 UNK        -0.5000 
     84 N          -0.8477  -26.1388  -49.4849 N.am      15 UNK        -0.5000 
     85 CA         -1.4999  -26.3021  -50.7845 C.3       15 UNK         0.1400 
     86 CB         -1.8411  -24.9108  -51.3375 C.3       15 UNK        -0.1800 
     87 C          -2.7696  -27.1744  -50.7373 C.2       15 UNK         0.5000 
     88 O          -3.2903  -27.5176  -51.7977 O.2       15 UNK        -0.5000 
     89 N          -3.2727  -27.4803  -49.5320 N.am      16 UNK        -0.5000 
     90 CA         -4.5447  -28.1571  -49.2523 C.3       16 UNK         0.1400 
     91 CB         -4.5064  -29.6269  -49.7197 C.3       16 UNK        -0.1800 
     92 C          -5.7459  -27.3643  -49.8125 C.2       16 UNK         0.5000 
     93 O          -6.5978  -27.9185  -50.5083 O.2       16 UNK        -0.5000 
     94 N          -5.7474  -26.0567  -49.5178 N.am      17 UNK        -0.5000 
     95 CA         -6.7041  -25.0138  -49.9049 C.3       17 UNK         0.1400 
     96 CB         -8.1404  -25.3718  -49.4740 C.3       17 UNK        -0.1800 
     97 C          -6.6399  -24.5804  -51.3843 C.2       17 UNK         0.5000 
     98 O          -7.3044  -23.6068  -51.7425 O.2       17 UNK        -0.5000 
     99 N          -5.8193  -25.2449  -52.2132 N.am      18 UNK        -0.5000 
    100 CA        -5.6657  -24.9625  -53.6474 C.3       18 UNK         0.1400 
    101 CB        -4.8667  -26.0960  -54.3068 C.3       18 UNK        -0.1800 
    102 C         -5.0202  -23.5962  -53.9603 C.2       18 UNK         0.5000 
    103 O         -5.1359  -23.1172  -55.0888 O.2       18 UNK        -0.5000 
    104 N         -4.3706  -22.9882  -52.9578 N.am      19 UNK        -0.5000 
    105 CA        -3.8218  -21.6319  -52.9975 C.3       19 UNK         0.1400 
    106 CB        -2.9948  -21.4038  -51.7214 C.3       19 UNK        -0.1800 
    107 C         -4.9057  -20.5421  -53.1354 C.2       19 UNK         0.5000 
    108 O         -4.6339  -19.4905  -53.7164 O.2       19 UNK        -0.5000 
    109 N         -6.1106  -20.8221  -52.6120 N.am      20 UNK        -0.5000 
    110 CA        -7.2731  -19.9340  -52.5522 C.3       20 UNK         0.1400 
    111 CB        -7.8621  -19.7208  -53.9655 C.3       20 UNK        -0.1800 
    112 C         -6.9593  -18.6292  -51.7846 C.2       20 UNK         0.5000 
    113 O         -6.3458  -18.6908  -50.7171 O.2       20 UNK        -0.5000 
    114 N         -7.3928  -17.4812  -52.3201 N.am      21 UNK        -0.5000 
    115 CA        -7.1702  -16.1545  -51.7409 C.3       21 UNK         0.1400 
    116 CB        -8.2895  -15.2182  -52.2252 C.3       21 UNK        -0.1800 
    117 C         -5.7878  -15.5584  -52.0792 C.2       21 UNK         0.5000 
    118 O         -5.4009  -14.5675  -51.4586 O.2       21 UNK        -0.5000 
    119 N         -5.0866  -16.1418  -53.0627 N.am      22 UNK        -0.5000 
    120 CA        -3.7788  -15.6998  -53.5887 C.3       22 UNK         0.1400 
    121 C         -3.7996  -14.3256  -54.3295 C.2       22 UNK         0.5000 
    122 N         -4.9528  -13.8113  -54.7398 N.am      22 UNK        -0.7600 
    123 O         -2.7549  -13.7275  -54.5724 O.2       22 UNK        -0.5000 
    124 C124       -2.6266  -15.7992  -52.5464 C.3       23 UNK        -0.0398 
    125 S125       -2.4041  -17.5018  -51.9334 S.3       23 UNK        -0.2404 
    126 C126       -1.1343  -18.1300  -53.0787 C.3       23 UNK        -0.0205 
    127 H127        7.1298  -10.9925  -50.5400 H         1 UNK         0.0600 
    128 H128        7.1340  -10.8781  -48.7766 H         1 UNK         0.0600 
    129 H129        5.6399  -10.6019  -49.6764 H         1 UNK         0.0600 
    130 H130        4.2473  -12.3342  -49.6011 H         1 UNK         0.3000 
    131 H131        5.0142  -14.9689  -50.1953 H         1 UNK         0.0600 
    132 H132        2.6179  -15.5799  -49.6494 H         1 UNK         0.0800 
    133 H133        2.3557  -13.9486  -49.1264 H         1 UNK         0.0800 
    134 H134        4.1818  -15.6481  -52.3118 H         1 UNK         0.0800 
    135 H135        3.0294  -15.1987  -53.5363 H         1 UNK         0.0800 
    136 H136        0.6259  -16.0546  -53.3817 H         1 UNK         0.1150 
    137 H137        0.1952  -19.8747  -51.4933 H         1 UNK         0.1150 
    138 H138        3.7798  -17.5928  -50.9181 H         1 UNK         0.1150 
    139 H139        2.2339  -20.9162  -50.4829 H         1 UNK         0.0800 
    140 H140        3.6908  -19.9784  -50.2967 H         1 UNK         0.0800 
    141 H141        0.1019  -20.3435  -49.3304 H         1 UNK         0.0800 
    142 H142       -0.1118  -19.4780  -47.8426 H         1 UNK         0.0800 
    143 H143        1.2614  -22.2031  -47.8542 H         1 UNK         0.0600 
    144 H144        0.5212  -20.4433  -45.7661 H         1 UNK         0.3000 
    145 H145        0.2067  -22.9041  -43.1587 H         1 UNK         0.0600 
    146 H146        1.7930  -21.3044  -42.1340 H         1 UNK         0.0600 
    147 H147        2.6046  -22.2686  -43.3581 H         1 UNK         0.0600 
    148 H148        2.1556  -20.6060  -43.7102 H         1 UNK         0.0600 
    149 H149       -0.2457  -20.1048  -43.1092 H         1 UNK         0.3000 
    150 H150       -3.7420  -20.2151  -43.9758 H         1 UNK         0.0600 
    151 H151       -3.5410  -20.7359  -41.5356 H         1 UNK         0.0600 
    152 H152       -3.8774  -19.0348  -41.8150 H         1 UNK         0.0600 
    153 H153       -2.2482  -19.5518  -41.3852 H         1 UNK         0.0600 
    154 H154       -2.0886  -18.0098  -43.3374 H         1 UNK         0.3000 
    155 H155       -0.9104  -17.3289  -46.6746 H         1 UNK         0.0600 
    156 H156       -2.7779  -15.8925  -44.7143 H         1 UNK         0.0600 
    157 H157       -3.1365  -16.2511  -46.3989 H         1 UNK         0.0600 
    158 H158       -1.8450  -15.1270  -45.9979 H         1 UNK         0.0600 
    159 H159       -0.2942  -16.0326  -44.2416 H         1 UNK         0.3000 
    160 H160        2.4663  -18.1010  -43.2498 H         1 UNK         0.0600 
    161 H161        2.2335  -15.1914  -44.1680 H         1 UNK         0.0600 
    162 H162        3.2865  -16.3940  -44.8998 H         1 UNK         0.0600 
    163 H163        3.5489  -15.8990  -43.2327 H         1 UNK         0.0600 
    164 H164        1.0862  -15.8168  -42.1214 H         1 UNK         0.3000 
    165 H165       -1.0273  -17.7001  -39.9554 H         1 UNK         0.0600 
    166 H166        0.1564  -16.3560  -38.2436 H         1 UNK         0.0600 
    167 H167        1.1904  -17.6601  -38.8045 H         1 UNK         0.0600 
    168 H168        1.4699  -16.0179  -39.3712 H         1 UNK         0.0600 
    169 H169       -0.5562  -14.8926  -40.2586 H         1 UNK         0.3000 
    170 H170       -2.9848  -14.3071  -42.7998 H         1 UNK         0.0600 
    171 H171       -4.3067  -14.5059  -40.6848 H         1 UNK         0.0600 
    172 H172       -3.0362  -13.6668  -39.8029 H         1 UNK         0.0600 
    173 H173       -3.9424  -12.8309  -41.0647 H         1 UNK         0.0600 
    174 H174       -1.4938  -12.4338  -41.3660 H         1 UNK         0.3000 
    175 H175        0.0369  -11.2195  -42.5141 H         1 UNK         0.0600 
    176 H176        2.3156  -13.2610  -42.2089 H         1 UNK         0.0600 
    177 H177        2.4201  -11.5374  -41.8515 H         1 UNK         0.0600 
    178 H178        1.3858  -12.5733  -40.8826 H         1 UNK         0.0600 
    179 H179        2.0879  -12.0174  -44.3159 H         1 UNK         0.3000 
    180 H180        0.6264  -11.9396  -47.3364 H         1 UNK         0.0600 
    181 H181        1.6136   -9.1994  -46.3787 H         1 UNK         0.0600 
    182 H182        0.0797   -9.5149  -47.1802 H         1 UNK         0.0600 
    183 H183        1.5831   -9.7571  -48.0524 H         1 UNK         0.0600 
    184 H184        3.2370  -11.0190  -46.4963 H         1 UNK         0.3000 
    185 H185        4.9799  -12.4865  -47.0396 H         1 UNK         0.0600 
    186 H186        4.7112  -12.0748  -44.6253 H         1 UNK         0.0600 
    187 H187        4.4717  -13.7903  -44.3275 H         1 UNK         0.0600 
    188 H188        6.0244  -13.1996  -44.9141 H         1 UNK         0.0600 
    189 H189        5.1578  -15.1888  -46.1427 H         1 UNK         0.3000 
    190 H190       -2.0288  -21.1468  -46.8155 H         1 UNK         0.3000 
    191 H191       -3.4644  -22.6571  -48.7231 H         1 UNK         0.0600 
    192 H192       -4.3077  -21.7436  -45.9254 H         1 UNK         0.0600 
    193 H193       -5.3982  -22.2979  -47.1902 H         1 UNK         0.0600 
    194 H194       -4.4764  -20.8187  -47.4158 H         1 UNK         0.0600 
    195 H195       -2.4081  -23.5637  -45.4063 H         1 UNK         0.3000 
    196 H196       -3.5670  -26.1496  -45.3687 H         1 UNK         0.0600 
    197 H197       -1.9626  -26.5493  -43.4906 H         1 UNK         0.0600 
    198 H198       -2.7802  -25.0026  -43.3273 H         1 UNK         0.0600 
    199 H199       -1.1124  -25.0615  -43.8915 H         1 UNK         0.0600 
    200 H200       -0.2735  -25.0863  -46.3662 H         1 UNK         0.3000 
    201 H201        0.7423  -27.6528  -47.0121 H         1 UNK         0.0600 
    202 H202        2.1879  -25.6832  -46.6321 H         1 UNK         0.0600 
    203 H203        1.5317  -24.8819  -48.0578 H         1 UNK         0.0600 
    204 H204        2.4966  -26.3440  -48.2307 H         1 UNK         0.0600 
    205 H205       -0.9721  -25.2403  -49.0261 H         1 UNK         0.3000 
    206 H206       -0.7990  -26.7797  -51.4721 H         1 UNK         0.0600 
    207 H207       -0.9484  -24.2902  -51.4171 H         1 UNK         0.0600 
    208 H208       -2.2765  -24.9782  -52.3348 H         1 UNK         0.0600 
    209 H209       -2.5545  -24.3920  -50.6960 H         1 UNK         0.0600 
    210 H210       -2.7829  -27.1264  -48.7206 H         1 UNK         0.3000 
    211 H211       -4.6569  -28.1596  -48.1671 H         1 UNK         0.0600 
    212 H212       -4.4421  -29.7101  -50.8048 H         1 UNK         0.0600 
    213 H213       -5.4055  -30.1579  -49.4052 H         1 UNK         0.0600 
    214 H214       -3.6526  -30.1525  -49.2920 H         1 UNK         0.0600 
    215 H215       -4.9756  -25.7175  -48.9420 H         1 UNK         0.3000 
    216 H216       -6.4084  -24.1339  -49.3316 H         1 UNK         0.0600 
    217 H217       -8.8115  -24.5235  -49.6137 H         1 UNK         0.0600 
    218 H218       -8.1800  -25.6449  -48.4196 H         1 UNK         0.0600 
    219 H219       -8.5458  -26.2016  -50.0532 H         1 UNK         0.0600 
    220 H220       -5.3084  -26.0399  -51.8529 H         1 UNK         0.3000 
    221 H221       -6.6648  -24.9544  -54.0880 H         1 UNK         0.0600 
    222 H222       -3.8304  -26.1066  -53.9691 H         1 UNK         0.0600 
    223 H223       -5.3029  -27.0709  -54.0878 H         1 UNK         0.0600 
    224 H224       -4.8528  -25.9823  -55.3915 H         1 UNK         0.0600 
    225 H225       -4.3233  -23.4698  -52.0737 H         1 UNK         0.3000 
    226 H226       -3.1589  -21.5536  -53.8616 H         1 UNK         0.0600 
    227 H227       -2.1421  -22.0796  -51.6720 H         1 UNK         0.0600 
    228 H228       -2.5992  -20.3909  -51.6814 H         1 UNK         0.0600 
    229 H229       -3.5959  -21.5467  -50.8236 H         1 UNK         0.0600 
    230 H230       -6.2434  -21.7279  -52.1795 H         1 UNK         0.3000 
    231 H231       -8.0233  -20.4592  -51.9596 H         1 UNK         0.0600 
    232 H232       -8.0514  -20.6771  -54.4535 H         1 UNK         0.0600 
    233 H233       -7.1909  -19.1518  -54.6098 H         1 UNK         0.0600 
    234 H234       -8.8158  -19.1935  -53.9236 H         1 UNK         0.0600 
    235 H235       -7.8933  -17.5144  -53.1965 H         1 UNK         0.3000 
    236 H236       -7.2366  -16.2246  -50.6530 H         1 UNK         0.0600 
    237 H237       -8.1827  -14.2225  -51.7928 H         1 UNK         0.0600 
    238 H238       -8.2817  -15.1073  -53.3102 H         1 UNK         0.0600 
    239 H239       -9.2706  -15.5928  -51.9328 H         1 UNK         0.0600 
    240 H240       -5.4630  -16.9783  -53.4856 H         1 UNK         0.3000 
    241 H241       -3.5449  -16.4126  -54.3801 H         1 UNK         0.0600 
    242 H242       -4.9565  -12.9294  -55.2282 H         1 UNK         0.3800 
    243 H243       -5.8203  -14.2921  -54.5659 H         1 UNK         0.3800 
    244 H244       -1.6812  -15.4595  -52.9703 H         1 UNK         0.0800 
    245 H245       -2.8191  -15.1459  -51.6950 H         1 UNK         0.0800 
    246 H246       -1.2037  -17.6210  -54.0412 H         1 UNK         0.0800 
    247 H247       -1.3336  -19.1818  -53.2865 H         1 UNK         0.0800 
@<TRIPOS>BOND
     1    1    2 1    
     2    1  127 1    
     3    1  128 1    
     4    1  129 1    
     5    2    3 2    
     6    2    4 am   BACKBONE|DICT|INTERRES
     7    4    5 1    
     8    4  130 1    
     9    5    6 1    
    10    5   65 1    
    11    5  131 1    
    12    6    7 1    
    13    6  132 1    
    14    6  133 1    
    15    7    8 1    
    16    8    9 1    
    17    8  134 1    
    18    8  135 1    
    19    9   10 ar   
    20    9   14 ar   
    21   10   11 ar   
    22   10  136 1    
    23   11   12 ar   
    24   11  126 1    
    25   12   13 ar   
    26   12  137 1    
    27   13   14 ar   
    28   13   15 1    
    29   14  138 1    
    30   15   16 1    
    31   15  139 1    
    32   15  140 1    
    33   16   17 1    
    34   17   18 1    
    35   17  141 1    
    36   17  142 1    
    37   18   19 1    
    38   18   67 1    
    39   18  143 1    
    40   19   20 am   BACKBONE|DICT|INTERRES
    41   19  144 1    
    42   20   21 2    
    43   20   22 1    
    44   22   23 1    
    45   22   24 1    
    46   22  145 1    
    47   23  146 1    
    48   23  147 1    
    49   23  148 1    
    50   24   25 am   BACKBONE|DICT|INTERRES
    51   24  149 1    
    52   25   26 2    
    53   25   27 1    
    54   27   28 1    
    55   27   29 1    
    56   27  150 1    
    57   28  151 1    
    58   28  152 1    
    59   28  153 1    
    60   29   30 am   BACKBONE|DICT|INTERRES
    61   29  154 1    
    62   30   31 2    
    63   30   32 1    
    64   32   33 1    
    65   32   34 1    
    66   32  155 1    
    67   33  156 1    
    68   33  157 1    
    69   33  158 1    
    70   34   35 am   BACKBONE|DICT|INTERRES
    71   34  159 1    
    72   35   36 2    
    73   35   37 1    
    74   37   38 1    
    75   37   39 1    
    76   37  160 1    
    77   38  161 1    
    78   38  162 1    
    79   38  163 1    
    80   39   40 am   BACKBONE|DICT|INTERRES
    81   39  164 1    
    82   40   41 2    
    83   40   42 1    
    84   42   43 1    
    85   42   44 1    
    86   42  165 1    
    87   43  166 1    
    88   43  167 1    
    89   43  168 1    
    90   44   45 am   BACKBONE|DICT|INTERRES
    91   44  169 1    
    92   45   46 2    
    93   45   47 1    
    94   47   48 1    
    95   47   49 1    
    96   47  170 1    
    97   48  171 1    
    98   48  172 1    
    99   48  173 1    
   100   49   50 am   BACKBONE|DICT|INTERRES
   101   49  174 1    
   102   50   51 2    
   103   50   52 1    
   104   52   53 1    
   105   52   54 1    
   106   52  175 1    
   107   53  176 1    
   108   53  177 1    
   109   53  178 1    
   110   54   55 am   BACKBONE|DICT|INTERRES
   111   54  179 1    
   112   55   56 2    
   113   55   57 1    
   114   57   58 1    
   115   57   59 1    
   116   57  180 1    
   117   58  181 1    
   118   58  182 1    
   119   58  183 1    
   120   59   60 am   BACKBONE|DICT|INTERRES
   121   59  184 1    
   122   60   61 2    
   123   60   62 1    
   124   62   63 1    
   125   62   64 1    
   126   62  185 1    
   127   63  186 1    
   128   63  187 1    
   129   63  188 1    
   130   64   65 am   BACKBONE|DICT|INTERRES
   131   64  189 1    
   132   65   66 2    
   133   67   68 2    
   134   67   69 am   BACKBONE|DICT|INTERRES
   135   69   70 1    
   136   69  190 1    
   137   70   71 1    
   138   70   72 1    
   139   70  191 1    
   140   71  192 1    
   141   71  193 1    
   142   71  194 1    
   143   72   73 2    
   144   72   74 am   BACKBONE|DICT|INTERRES
   145   74   75 1    
   146   74  195 1    
   147   75   76 1    
   148   75   77 1    
   149   75  196 1    
   150   76  197 1    
   151   76  198 1    
   152   76  199 1    
   153   77   78 2    
   154   77   79 am   BACKBONE|DICT|INTERRES
   155   79   80 1    
   156   79  200 1    
   157   80   81 1    
   158   80   82 1    
   159   80  201 1    
   160   81  202 1    
   161   81  203 1    
   162   81  204 1    
   163   82   83 2    
   164   82   84 am   BACKBONE|DICT|INTERRES
   165   84   85 1    
   166   84  205 1    
   167   85   86 1    
   168   85   87 1    
   169   85  206 1    
   170   86  207 1    
   171   86  208 1    
   172   86  209 1    
   173   87   88 2    
   174   87   89 am   BACKBONE|DICT|INTERRES
   175   89   90 1    
   176   89  210 1    
   177   90   91 1    
   178   90   92 1    
   179   90  211 1    
   180   91  212 1    
   181   91  213 1    
   182   91  214 1    
   183   92   93 2    
   184   92   94 am   BACKBONE|DICT|INTERRES
   185   94   95 1    
   186   94  215 1    
   187   95   96 1    
   188   95   97 1    
   189   95  216 1    
   190   96  217 1    
   191   96  218 1    
   192   96  219 1    
   193   97   98 2    
   194   97   99 am   BACKBONE|DICT|INTERRES
   195   99  100 1    
   196   99  220 1    
   197  100  101 1    
   198  100  102 1    
   199  100  221 1    
   200  101  222 1    
   201  101  223 1    
   202  101  224 1    
   203  102  103 2    
   204  102  104 am   BACKBONE|DICT|INTERRES
   205  104  105 1    
   206  104  225 1    
   207  105  106 1    
   208  105  107 1    
   209  105  226 1    
   210  106  227 1    
   211  106  228 1    
   212  106  229 1    
   213  107  108 2    
   214  107  109 am   BACKBONE|DICT|INTERRES
   215  109  110 1    
   216  109  230 1    
   217  110  111 1    
   218  110  112 1    
   219  110  231 1    
   220  111  232 1    
   221  111  233 1    
   222  111  234 1    
   223  112  113 2    
   224  112  114 am   BACKBONE|DICT|INTERRES
   225  114  115 1    
   226  114  235 1    
   227  115  116 1    
   228  115  117 1    
   229  115  236 1    
   230  116  237 1    
   231  116  238 1    
   232  116  239 1    
   233  117  118 2    
   234  117  119 am   BACKBONE|DICT|INTERRES
   235  119  120 1    
   236  119  240 1    
   237  120  121 1    
   238  120  124 1    
   239  120  241 1    
   240  121  122 am   BACKBONE|DICT|INTERRES
   241  121  123 2    
   242  122  242 1    
   243  122  243 1    
   244  124  125 1    
   245  124  244 1    
   246  124  245 1    
   247  125  126 1    
   248  126  246 1    
   249  126  247 1    
@<TRIPOS>SUBSTRUCTURE
     1 UNK         1 GROUP             0       ****    0 ROOT    
