@<TRIPOS>MOLECULE
3R540
247   249    1
SMALL
USER_CHARGES


@<TRIPOS>ATOM
      1 CA          0.7410  -14.9683  -47.4560 C.3       0 UNK        -0.1800 
      2 C           0.9167  -16.2340  -48.2883 C.2       0 UNK         0.5000 
      3 O          -0.0810  -16.8549  -48.6424 O.2       0 UNK        -0.5000 
      4 N           2.1422  -16.6899  -48.5721 N.am      1 UNK        -0.5000 
      5 CA          3.4220  -16.1803  -48.0788 C.3       1 UNK         0.1400 
      6 C6          4.2354  -15.4122  -49.1548 C.3       23 UNK        -0.0398 
      7 S7          3.4278  -13.8922  -49.7650 S.3       23 UNK        -0.2404 
      8 C8          3.1584  -14.2721  -51.5270 C.3       23 UNK        -0.0205 
      9 C9          2.0289  -15.2698  -51.7344 C.ar      23 UNK        -0.0193 
     10 C10         0.7040  -14.8290  -51.8133 C.ar      23 UNK        -0.1150 
     11 C11        -0.3390  -15.7406  -52.0083 C.ar      23 UNK        -0.0193 
     12 C12        -0.0438  -17.1019  -52.1269 C.ar      23 UNK        -0.1150 
     13 C13         1.2719  -17.5577  -52.0129 C.ar      23 UNK        -0.0193 
     14 C14         2.3063  -16.6350  -51.8444 C.ar      23 UNK        -0.1150 
     15 C15         1.5796  -19.0458  -52.0337 C.3       23 UNK        -0.0205 
     16 S16         1.5468  -19.7431  -50.3504 S.3       23 UNK        -0.2404 
     17 C17        -0.2468  -19.9441  -50.1088 C.3       23 UNK        -0.0398 
     18 CA         -0.6022  -20.4879  -48.7095 C.3       11 UNK         0.1400 
     19 N          -0.3704  -19.5048  -47.6457 N.am      11 UNK        -0.5000 
     20 C          -0.3011  -19.8167  -46.3450 C.2       10 UNK         0.5000 
     21 O          -0.4053  -20.9657  -45.9216 O.2       10 UNK        -0.5000 
     22 CA         -0.1483  -18.6628  -45.3383 C.3       10 UNK         0.1400 
     23 CB          1.3233  -18.2743  -45.1542 C.3       10 UNK        -0.1800 
     24 N          -0.9274  -17.4683  -45.6574 N.am      10 UNK        -0.5000 
     25 C          -2.2548  -17.4312  -45.8157 C.2       9 UNK         0.5000 
     26 O          -2.9687  -18.4349  -45.7953 O.2       9 UNK        -0.5000 
     27 CA         -2.8699  -16.0337  -45.9823 C.3       9 UNK         0.1400 
     28 CB         -4.4120  -16.0584  -46.0260 C.3       9 UNK        -0.1800 
     29 N          -2.3977  -15.1672  -44.9006 N.am      9 UNK        -0.5000 
     30 C          -2.4247  -13.8272  -44.9227 C.2       8 UNK         0.5000 
     31 O          -2.8177  -13.1703  -45.8874 O.2       8 UNK        -0.5000 
     32 CA         -1.9418  -13.0826  -43.6598 C.3       8 UNK         0.1400 
     33 CB         -3.1279  -12.7838  -42.7300 C.3       8 UNK        -0.1800 
     34 N          -0.9217  -13.8109  -42.9057 N.am      8 UNK        -0.5000 
     35 C           0.3303  -14.0245  -43.3283 C.2       7 UNK         0.5000 
     36 O           0.7842  -13.5400  -44.3644 O.2       7 UNK        -0.5000 
     37 CA          1.2371  -14.9327  -42.4708 C.3       7 UNK         0.1400 
     38 CB          2.3065  -14.0946  -41.7533 C.3       7 UNK        -0.1800 
     39 N           0.5738  -15.7843  -41.4757 N.am      7 UNK        -0.5000 
     40 C          -0.4123  -16.6671  -41.6796 C.2       6 UNK         0.5000 
     41 O          -1.0236  -16.7738  -42.7421 O.2       6 UNK        -0.5000 
     42 CA         -0.7462  -17.5969  -40.4948 C.3       6 UNK         0.1400 
     43 CB         -2.0027  -18.4462  -40.7543 C.3       6 UNK        -0.1800 
     44 N           0.3695  -18.4972  -40.1997 N.am      6 UNK        -0.5000 
     45 C           1.5073  -18.1639  -39.5748 C.2       5 UNK         0.5000 
     46 O           1.7220  -17.0428  -39.1104 O.2       5 UNK        -0.5000 
     47 CA          2.5928  -19.2538  -39.4585 C.3       5 UNK         0.1400 
     48 CB          2.5835  -19.8698  -38.0510 C.3       5 UNK        -0.1800 
     49 N           2.4643  -20.3289  -40.4486 N.am      5 UNK        -0.5000 
     50 C           2.6896  -20.1887  -41.7613 C.2       4 UNK         0.5000 
     51 O           3.0285  -19.1266  -42.2913 O.2       4 UNK        -0.5000 
     52 CA          2.4736  -21.4409  -42.6239 C.3       4 UNK         0.1400 
     53 CB          0.9740  -21.7664  -42.7600 C.3       4 UNK        -0.1800 
     54 N           3.0491  -21.1972  -43.9397 N.am      4 UNK        -0.5000 
     55 C           3.4564  -22.1165  -44.8185 C.2       3 UNK         0.5000 
     56 O           3.3932  -23.3287  -44.6105 O.2       3 UNK        -0.5000 
     57 CA          4.0339  -21.6099  -46.1591 C.3       3 UNK         0.1400 
     58 CB          3.0372  -21.8535  -47.3031 C.3       3 UNK        -0.1800 
     59 N           4.4287  -20.1961  -46.1837 N.am      3 UNK        -0.5000 
     60 C           5.4323  -19.6524  -45.4860 C.2       2 UNK         0.5000 
     61 O           6.0770  -20.2773  -44.6431 O.2       2 UNK        -0.5000 
     62 CA          5.8095  -18.1774  -45.7598 C.3       2 UNK         0.1400 
     63 CB          7.1255  -18.1058  -46.5588 C.3       2 UNK        -0.1800 
     64 N           4.7968  -17.3048  -46.3830 N.am      2 UNK        -0.5000 
     65 C           4.2321  -17.3964  -47.5960 C.2       1 UNK         0.5000 
     66 O           4.3421  -18.3746  -48.3362 O.2       1 UNK        -0.5000 
     67 C          -2.0462  -21.0276  -48.7103 C.2       11 UNK         0.5000 
     68 O          -2.2642  -22.1284  -49.2188 O.2       11 UNK        -0.5000 
     69 N          -3.0034  -20.2776  -48.1476 N.am      12 UNK        -0.5000 
     70 CA         -4.3740  -20.7442  -47.9550 C.3       12 UNK         0.1400 
     71 CB         -5.3374  -19.5535  -47.8509 C.3       12 UNK        -0.1800 
     72 C          -4.4626  -21.6502  -46.7180 C.2       12 UNK         0.5000 
     73 O          -5.0732  -22.7155  -46.7913 O.2       12 UNK        -0.5000 
     74 N          -3.8018  -21.2387  -45.6261 N.am      13 UNK        -0.5000 
     75 CA         -3.6904  -21.9903  -44.3739 C.3       13 UNK         0.1400 
     76 CB         -3.0014  -21.1137  -43.3187 C.3       13 UNK        -0.1800 
     77 C          -2.9534  -23.3338  -44.5392 C.2       13 UNK         0.5000 
     78 O          -3.3805  -24.3371  -43.9674 O.2       13 UNK        -0.5000 
     79 N          -1.8868  -23.3366  -45.3502 N.am      14 UNK        -0.5000 
     80 CA         -1.1237  -24.5266  -45.7322 C.3       14 UNK         0.1400 
     81 CB          0.2265  -24.0774  -46.3123 C.3       14 UNK        -0.1800 
     82 C          -1.8480  -25.4268  -46.7536 C.2       14 UNK         0.5000 
     83 O          -1.4079  -26.5571  -46.9665 O.2       14 UNK        -0.5000 
     84 N          -2.9081  -24.9040  -47.3908 N.am      15 UNK        -0.5000 
     85 CA         -3.6571  -25.4945  -48.5064 C.3       15 UNK         0.1400 
     86 CB         -4.4096  -26.7654  -48.0623 C.3       15 UNK        -0.1800 
     87 C          -2.7846  -25.7072  -49.7637 C.2       15 UNK         0.5000 
     88 O          -2.9911  -26.6625  -50.5138 O.2       15 UNK        -0.5000 
     89 N          -1.8200  -24.8016  -49.9647 N.am      16 UNK        -0.5000 
     90 CA         -0.8808  -24.7944  -51.0815 C.3       16 UNK         0.1400 
     91 CB          0.4236  -24.1172  -50.6302 C.3       16 UNK        -0.1800 
     92 C          -1.4633  -24.0759  -52.3094 C.2       16 UNK         0.5000 
     93 O          -1.1943  -24.4968  -53.4351 O.2       16 UNK        -0.5000 
     94 N          -2.2503  -23.0153  -52.0779 N.am      17 UNK        -0.5000 
     95 CA         -2.8734  -22.2052  -53.1274 C.3       17 UNK         0.1400 
     96 CB         -1.8858  -21.1390  -53.6384 C.3       17 UNK        -0.1800 
     97 C          -4.2102  -21.6021  -52.6614 C.2       17 UNK         0.5000 
     98 O          -4.5788  -20.5135  -53.1135 O.2       17 UNK        -0.5000 
     99 N          -4.9133  -22.3275  -51.7780 N.am      18 UNK        -0.5000 
    100 CA        -6.2159  -21.9760  -51.2083 C.3       18 UNK         0.1400 
    101 CB        -6.6590  -23.0803  -50.2344 C.3       18 UNK        -0.1800 
    102 C         -7.2832  -21.7417  -52.2913 C.2       18 UNK         0.5000 
    103 O         -7.6870  -22.6903  -52.9658 O.2       18 UNK        -0.5000 
    104 N         -7.6669  -20.4703  -52.4582 N.am      19 UNK        -0.5000 
    105 CA        -8.5881  -19.9124  -53.4556 C.3       19 UNK         0.1400 
    106 CB        -9.9881  -20.5504  -53.3470 C.3       19 UNK        -0.1800 
    107 C         -8.0526  -19.9328  -54.9042 C.2       19 UNK         0.5000 
    108 O         -8.7398  -19.4439  -55.8023 O.2       19 UNK        -0.5000 
    109 N         -6.8395  -20.4597  -55.1138 N.am      20 UNK        -0.5000 
    110 CA        -6.1352  -20.4530  -56.3933 C.3       20 UNK         0.1400 
    111 CB        -5.2241  -21.6868  -56.4861 C.3       20 UNK        -0.1800 
    112 C         -5.3224  -19.1594  -56.5513 C.2       20 UNK         0.5000 
    113 O         -5.3266  -18.5715  -57.6335 O.2       20 UNK        -0.5000 
    114 N         -4.6641  -18.7345  -55.4644 N.am      21 UNK        -0.5000 
    115 CA        -3.9130  -17.4835  -55.3837 C.3       21 UNK         0.1400 
    116 CB        -2.4516  -17.7856  -55.0188 C.3       21 UNK        -0.1800 
    117 C         -4.5443  -16.5346  -54.3547 C.2       21 UNK         0.5000 
    118 O         -4.6818  -15.3446  -54.6401 O.2       21 UNK        -0.5000 
    119 N         -4.9209  -17.0643  -53.1851 N.am      22 UNK        -0.5000 
    120 CA        -5.4965  -16.3109  -52.0624 C.3       22 UNK         0.1400 
    121 C         -6.2029  -17.2495  -51.0472 C.2       22 UNK         0.5000 
    122 N         -6.8723  -16.7060  -50.0399 N.am      22 UNK        -0.7600 
    123 O         -6.1797  -18.4710  -51.1731 O.2       22 UNK        -0.5000 
    124 C124       -4.4916  -15.3212  -51.3978 C.3       23 UNK        -0.0398 
    125 S125       -2.8901  -16.0577  -50.9075 S.3       23 UNK        -0.2404 
    126 C126       -1.7778  -15.2525  -52.1101 C.3       23 UNK        -0.0205 
    127 H127        1.3283  -14.1424  -47.8518 H         1 UNK         0.0600 
    128 H128        1.0425  -15.1498  -46.4258 H         1 UNK         0.0600 
    129 H129       -0.3023  -14.6530  -47.4521 H         1 UNK         0.0600 
    130 H130        2.2252  -17.5379  -49.1196 H         1 UNK         0.3000 
    131 H131        3.2684  -15.5202  -47.2242 H         1 UNK         0.0600 
    132 H132        5.1994  -15.1089  -48.7422 H         1 UNK         0.0800 
    133 H133        4.4723  -16.0636  -49.9963 H         1 UNK         0.0800 
    134 H134        4.0841  -14.6412  -51.9713 H         1 UNK         0.0800 
    135 H135        2.9231  -13.3447  -52.0512 H         1 UNK         0.0800 
    136 H136        0.4880  -13.7739  -51.7213 H         1 UNK         0.1150 
    137 H137       -0.8468  -17.8094  -52.2707 H         1 UNK         0.1150 
    138 H138        3.3250  -16.9867  -51.7697 H         1 UNK         0.1150 
    139 H139        0.8748  -19.5764  -52.6757 H         1 UNK         0.0800 
    140 H140        2.5682  -19.2126  -52.4638 H         1 UNK         0.0800 
    141 H141       -0.5904  -20.6265  -50.8872 H         1 UNK         0.0800 
    142 H142       -0.7534  -18.9937  -50.2771 H         1 UNK         0.0800 
    143 H143        0.0412  -21.3480  -48.5140 H         1 UNK         0.0600 
    144 H144       -0.2934  -18.5318  -47.9383 H         1 UNK         0.3000 
    145 H145       -0.5149  -19.0320  -44.3789 H         1 UNK         0.0600 
    146 H146        1.7037  -17.7028  -45.9957 H         1 UNK         0.0600 
    147 H147        1.4618  -17.6813  -44.2511 H         1 UNK         0.0600 
    148 H148        1.9509  -19.1552  -45.0614 H         1 UNK         0.0600 
    149 H149       -0.4287  -16.5930  -45.6601 H         1 UNK         0.3000 
    150 H150       -2.5061  -15.6434  -46.9351 H         1 UNK         0.0600 
    151 H151       -4.7669  -16.6674  -46.8577 H         1 UNK         0.0600 
    152 H152       -4.8269  -15.0605  -46.1655 H         1 UNK         0.0600 
    153 H153       -4.8320  -16.4709  -45.1079 H         1 UNK         0.0600 
    154 H154       -2.0253  -15.6465  -44.0840 H         1 UNK         0.3000 
    155 H155       -1.5129  -12.1311  -43.9813 H         1 UNK         0.0600 
    156 H156       -3.8999  -12.2167  -43.2518 H         1 UNK         0.0600 
    157 H157       -2.8161  -12.1907  -41.8701 H         1 UNK         0.0600 
    158 H158       -3.5884  -13.7001  -42.3584 H         1 UNK         0.0600 
    159 H159       -1.2162  -14.2565  -42.0496 H         1 UNK         0.3000 
    160 H160        1.7488  -15.6006  -43.1652 H         1 UNK         0.0600 
    161 H161        1.8621  -13.4314  -41.0102 H         1 UNK         0.0600 
    162 H162        2.8612  -13.4740  -42.4585 H         1 UNK         0.0600 
    163 H163        3.0313  -14.7310  -41.2451 H         1 UNK         0.0600 
    164 H164        1.0221  -15.8214  -40.5661 H         1 UNK         0.3000 
    165 H165       -0.9382  -16.9683  -39.6228 H         1 UNK         0.0600 
    166 H166       -2.2547  -19.0555  -39.8863 H         1 UNK         0.0600 
    167 H167       -2.8659  -17.8150  -40.9699 H         1 UNK         0.0600 
    168 H168       -1.8634  -19.1141  -41.6043 H         1 UNK         0.0600 
    169 H169        0.2931  -19.4347  -40.5634 H         1 UNK         0.3000 
    170 H170        3.5582  -18.7664  -39.6107 H         1 UNK         0.0600 
    171 H171        2.7082  -19.1014  -37.2867 H         1 UNK         0.0600 
    172 H172        1.6465  -20.3886  -37.8446 H         1 UNK         0.0600 
    173 H173        3.3982  -20.5835  -37.9268 H         1 UNK         0.0600 
    174 H174        2.1908  -21.2335  -40.0919 H         1 UNK         0.3000 
    175 H175        2.9938  -22.2768  -42.1518 H         1 UNK         0.0600 
    176 H176        0.4296  -20.9453  -43.2251 H         1 UNK         0.0600 
    177 H177        0.8130  -22.6567  -43.3670 H         1 UNK         0.0600 
    178 H178        0.5170  -21.9562  -41.7885 H         1 UNK         0.0600 
    179 H179        3.2157  -20.2193  -44.1387 H         1 UNK         0.3000 
    180 H180        4.9286  -22.2019  -46.3613 H         1 UNK         0.0600 
    181 H181        2.1236  -21.2775  -47.1637 H         1 UNK         0.0600 
    182 H182        2.7578  -22.9057  -47.3656 H         1 UNK         0.0600 
    183 H183        3.4632  -21.5742  -48.2671 H         1 UNK         0.0600 
    184 H184        4.0348  -19.6279  -46.9270 H         1 UNK         0.3000 
    185 H185        6.0014  -17.7387  -44.7792 H         1 UNK         0.0600 
    186 H186        7.0158  -18.5299  -47.5574 H         1 UNK         0.0600 
    187 H187        7.4666  -17.0762  -46.6669 H         1 UNK         0.0600 
    188 H188        7.9209  -18.6580  -46.0565 H         1 UNK         0.0600 
    189 H189        4.5923  -16.4767  -45.8410 H         1 UNK         0.3000 
    190 H190       -2.7515  -19.4101  -47.6913 H         1 UNK         0.3000 
    191 H191       -4.6620  -21.3287  -48.8278 H         1 UNK         0.0600 
    192 H192       -5.1618  -18.8337  -48.6494 H         1 UNK         0.0600 
    193 H193       -6.3718  -19.8884  -47.9334 H         1 UNK         0.0600 
    194 H194       -5.2427  -19.0293  -46.9007 H         1 UNK         0.0600 
    195 H195       -3.3571  -20.3251  -45.6509 H         1 UNK         0.3000 
    196 H196       -4.7027  -22.2082  -44.0278 H         1 UNK         0.0600 
    197 H197       -2.9298  -21.6331  -42.3623 H         1 UNK         0.0600 
    198 H198       -3.5581  -20.1917  -43.1497 H         1 UNK         0.0600 
    199 H199       -1.9908  -20.8419  -43.6218 H         1 UNK         0.0600 
    200 H200       -1.5403  -22.4481  -45.7046 H         1 UNK         0.3000 
    201 H201       -0.9347  -25.1217  -44.8366 H         1 UNK         0.0600 
    202 H202        0.7767  -23.4632  -45.6013 H         1 UNK         0.0600 
    203 H203        0.0974  -23.4950  -47.2252 H         1 UNK         0.0600 
    204 H204        0.8573  -24.9333  -46.5548 H         1 UNK         0.0600 
    205 H205       -3.2111  -23.9797  -47.1132 H         1 UNK         0.3000 
    206 H206       -4.4060  -24.7548  -48.7856 H         1 UNK         0.0600 
    207 H207       -3.7269  -27.5835  -47.8320 H         1 UNK         0.0600 
    208 H208       -5.0155  -26.5736  -47.1767 H         1 UNK         0.0600 
    209 H209       -5.0833  -27.1137  -48.8459 H         1 UNK         0.0600 
    210 H210       -1.7901  -23.9956  -49.3492 H         1 UNK         0.3000 
    211 H211       -0.6507  -25.8235  -51.3656 H         1 UNK         0.0600 
    212 H212        1.1645  -24.1258  -51.4306 H         1 UNK         0.0600 
    213 H213        0.8612  -24.6345  -49.7760 H         1 UNK         0.0600 
    214 H214        0.2635  -23.0774  -50.3446 H         1 UNK         0.0600 
    215 H215       -2.4076  -22.7205  -51.1186 H         1 UNK         0.3000 
    216 H216       -3.1257  -22.8580  -53.9654 H         1 UNK         0.0600 
    217 H217       -2.2709  -20.6622  -54.5396 H         1 UNK         0.0600 
    218 H218       -0.9201  -21.5735  -53.8960 H         1 UNK         0.0600 
    219 H219       -1.7181  -20.3576  -52.8980 H         1 UNK         0.0600 
    220 H220       -4.5478  -23.2311  -51.5197 H         1 UNK         0.3000 
    221 H221       -6.0916  -21.0546  -50.6380 H         1 UNK         0.0600 
    222 H222       -6.7255  -24.0515  -50.7266 H         1 UNK         0.0600 
    223 H223       -5.9692  -23.1751  -49.3985 H         1 UNK         0.0600 
    224 H224       -7.6407  -22.8578  -49.8142 H         1 UNK         0.0600 
    225 H225       -7.1834  -19.7673  -51.8978 H         1 UNK         0.3000 
    226 H226       -8.6898  -18.8581  -53.1945 H         1 UNK         0.0600 
    227 H227      -10.3601  -20.5142  -52.3231 H         1 UNK         0.0600 
    228 H228      -10.7076  -20.0194  -53.9712 H         1 UNK         0.0600 
    229 H229       -9.9881  -21.5917  -53.6693 H         1 UNK         0.0600 
    230 H230       -6.3231  -20.7941  -54.3104 H         1 UNK         0.3000 
    231 H231       -6.8587  -20.5066  -57.2097 H         1 UNK         0.0600 
    232 H232       -4.4382  -21.6701  -55.7321 H         1 UNK         0.0600 
    233 H233       -4.7383  -21.7366  -57.4614 H         1 UNK         0.0600 
    234 H234       -5.7931  -22.6079  -56.3581 H         1 UNK         0.0600 
    235 H235       -4.7107  -19.2946  -54.6189 H         1 UNK         0.3000 
    236 H236       -3.9159  -16.9695  -56.3470 H         1 UNK         0.0600 
    237 H237       -1.9986  -18.4680  -55.7379 H         1 UNK         0.0600 
    238 H238       -1.8522  -16.8749  -55.0176 H         1 UNK         0.0600 
    239 H239       -2.3708  -18.2350  -54.0294 H         1 UNK         0.0600 
    240 H240       -4.8050  -18.0533  -53.0016 H         1 UNK         0.3000 
    241 H241       -6.3085  -15.7161  -52.4847 H         1 UNK         0.0600 
    242 H242       -7.3417  -17.3137  -49.3883 H         1 UNK         0.3800 
    243 H243       -6.9402  -15.7081  -49.9188 H         1 UNK         0.3800 
    244 H244       -4.3044  -14.4933  -52.0821 H         1 UNK         0.0800 
    245 H245       -4.9293  -14.8524  -50.5159 H         1 UNK         0.0800 
    246 H246       -2.1367  -15.4358  -53.1214 H         1 UNK         0.0800 
    247 H247       -1.8251  -14.1733  -51.9577 H         1 UNK         0.0800 
@<TRIPOS>BOND
     1    1    2 1    
     2    1  127 1    
     3    1  128 1    
     4    1  129 1    
     5    2    3 2    
     6    2    4 am   BACKBONE|DICT|INTERRES
     7    4    5 1    
     8    4  130 1    
     9    5    6 1    
    10    5   65 1    
    11    5  131 1    
    12    6    7 1    
    13    6  132 1    
    14    6  133 1    
    15    7    8 1    
    16    8    9 1    
    17    8  134 1    
    18    8  135 1    
    19    9   10 ar   
    20    9   14 ar   
    21   10   11 ar   
    22   10  136 1    
    23   11   12 ar   
    24   11  126 1    
    25   12   13 ar   
    26   12  137 1    
    27   13   14 ar   
    28   13   15 1    
    29   14  138 1    
    30   15   16 1    
    31   15  139 1    
    32   15  140 1    
    33   16   17 1    
    34   17   18 1    
    35   17  141 1    
    36   17  142 1    
    37   18   19 1    
    38   18   67 1    
    39   18  143 1    
    40   19   20 am   BACKBONE|DICT|INTERRES
    41   19  144 1    
    42   20   21 2    
    43   20   22 1    
    44   22   23 1    
    45   22   24 1    
    46   22  145 1    
    47   23  146 1    
    48   23  147 1    
    49   23  148 1    
    50   24   25 am   BACKBONE|DICT|INTERRES
    51   24  149 1    
    52   25   26 2    
    53   25   27 1    
    54   27   28 1    
    55   27   29 1    
    56   27  150 1    
    57   28  151 1    
    58   28  152 1    
    59   28  153 1    
    60   29   30 am   BACKBONE|DICT|INTERRES
    61   29  154 1    
    62   30   31 2    
    63   30   32 1    
    64   32   33 1    
    65   32   34 1    
    66   32  155 1    
    67   33  156 1    
    68   33  157 1    
    69   33  158 1    
    70   34   35 am   BACKBONE|DICT|INTERRES
    71   34  159 1    
    72   35   36 2    
    73   35   37 1    
    74   37   38 1    
    75   37   39 1    
    76   37  160 1    
    77   38  161 1    
    78   38  162 1    
    79   38  163 1    
    80   39   40 am   BACKBONE|DICT|INTERRES
    81   39  164 1    
    82   40   41 2    
    83   40   42 1    
    84   42   43 1    
    85   42   44 1    
    86   42  165 1    
    87   43  166 1    
    88   43  167 1    
    89   43  168 1    
    90   44   45 am   BACKBONE|DICT|INTERRES
    91   44  169 1    
    92   45   46 2    
    93   45   47 1    
    94   47   48 1    
    95   47   49 1    
    96   47  170 1    
    97   48  171 1    
    98   48  172 1    
    99   48  173 1    
   100   49   50 am   BACKBONE|DICT|INTERRES
   101   49  174 1    
   102   50   51 2    
   103   50   52 1    
   104   52   53 1    
   105   52   54 1    
   106   52  175 1    
   107   53  176 1    
   108   53  177 1    
   109   53  178 1    
   110   54   55 am   BACKBONE|DICT|INTERRES
   111   54  179 1    
   112   55   56 2    
   113   55   57 1    
   114   57   58 1    
   115   57   59 1    
   116   57  180 1    
   117   58  181 1    
   118   58  182 1    
   119   58  183 1    
   120   59   60 am   BACKBONE|DICT|INTERRES
   121   59  184 1    
   122   60   61 2    
   123   60   62 1    
   124   62   63 1    
   125   62   64 1    
   126   62  185 1    
   127   63  186 1    
   128   63  187 1    
   129   63  188 1    
   130   64   65 am   BACKBONE|DICT|INTERRES
   131   64  189 1    
   132   65   66 2    
   133   67   68 2    
   134   67   69 am   BACKBONE|DICT|INTERRES
   135   69   70 1    
   136   69  190 1    
   137   70   71 1    
   138   70   72 1    
   139   70  191 1    
   140   71  192 1    
   141   71  193 1    
   142   71  194 1    
   143   72   73 2    
   144   72   74 am   BACKBONE|DICT|INTERRES
   145   74   75 1    
   146   74  195 1    
   147   75   76 1    
   148   75   77 1    
   149   75  196 1    
   150   76  197 1    
   151   76  198 1    
   152   76  199 1    
   153   77   78 2    
   154   77   79 am   BACKBONE|DICT|INTERRES
   155   79   80 1    
   156   79  200 1    
   157   80   81 1    
   158   80   82 1    
   159   80  201 1    
   160   81  202 1    
   161   81  203 1    
   162   81  204 1    
   163   82   83 2    
   164   82   84 am   BACKBONE|DICT|INTERRES
   165   84   85 1    
   166   84  205 1    
   167   85   86 1    
   168   85   87 1    
   169   85  206 1    
   170   86  207 1    
   171   86  208 1    
   172   86  209 1    
   173   87   88 2    
   174   87   89 am   BACKBONE|DICT|INTERRES
   175   89   90 1    
   176   89  210 1    
   177   90   91 1    
   178   90   92 1    
   179   90  211 1    
   180   91  212 1    
   181   91  213 1    
   182   91  214 1    
   183   92   93 2    
   184   92   94 am   BACKBONE|DICT|INTERRES
   185   94   95 1    
   186   94  215 1    
   187   95   96 1    
   188   95   97 1    
   189   95  216 1    
   190   96  217 1    
   191   96  218 1    
   192   96  219 1    
   193   97   98 2    
   194   97   99 am   BACKBONE|DICT|INTERRES
   195   99  100 1    
   196   99  220 1    
   197  100  101 1    
   198  100  102 1    
   199  100  221 1    
   200  101  222 1    
   201  101  223 1    
   202  101  224 1    
   203  102  103 2    
   204  102  104 am   BACKBONE|DICT|INTERRES
   205  104  105 1    
   206  104  225 1    
   207  105  106 1    
   208  105  107 1    
   209  105  226 1    
   210  106  227 1    
   211  106  228 1    
   212  106  229 1    
   213  107  108 2    
   214  107  109 am   BACKBONE|DICT|INTERRES
   215  109  110 1    
   216  109  230 1    
   217  110  111 1    
   218  110  112 1    
   219  110  231 1    
   220  111  232 1    
   221  111  233 1    
   222  111  234 1    
   223  112  113 2    
   224  112  114 am   BACKBONE|DICT|INTERRES
   225  114  115 1    
   226  114  235 1    
   227  115  116 1    
   228  115  117 1    
   229  115  236 1    
   230  116  237 1    
   231  116  238 1    
   232  116  239 1    
   233  117  118 2    
   234  117  119 am   BACKBONE|DICT|INTERRES
   235  119  120 1    
   236  119  240 1    
   237  120  121 1    
   238  120  124 1    
   239  120  241 1    
   240  121  122 am   BACKBONE|DICT|INTERRES
   241  121  123 2    
   242  122  242 1    
   243  122  243 1    
   244  124  125 1    
   245  124  244 1    
   246  124  245 1    
   247  125  126 1    
   248  126  246 1    
   249  126  247 1    
@<TRIPOS>SUBSTRUCTURE
     1 UNK         1 GROUP             0       ****    0 ROOT    
