@<TRIPOS>MOLECULE
3R540
247   249    1
SMALL
USER_CHARGES


@<TRIPOS>ATOM
      1 CA          0.5822  -10.3441  -47.9748 C.3       0 UNK        -0.1800 
      2 C           1.4426  -10.5947  -49.2054 C.2       0 UNK         0.5000 
      3 O           1.1137  -10.1183  -50.2918 O.2       0 UNK        -0.5000 
      4 N           2.5396  -11.3363  -49.0369 N.am      1 UNK        -0.5000 
      5 CA          3.5008  -11.7163  -50.0711 C.3       1 UNK         0.1400 
      6 C6          2.9081  -12.6689  -51.1504 C.3       23 UNK        -0.0398 
      7 S7          2.2920  -14.2500  -50.4767 S.3       23 UNK        -0.2404 
      8 C8          0.5224  -14.1665  -50.9104 C.3       23 UNK        -0.0205 
      9 C9         -0.2990  -15.2815  -50.2714 C.ar      23 UNK        -0.0193 
     10 C10        -1.5329  -14.9891  -49.6825 C.ar      23 UNK        -0.1150 
     11 C11        -2.3087  -16.0020  -49.1095 C.ar      23 UNK        -0.0193 
     12 C12        -1.8294  -17.3153  -49.1028 C.ar      23 UNK        -0.1150 
     13 C13        -0.5876  -17.6174  -49.6676 C.ar      23 UNK        -0.0193 
     14 C14         0.1571  -16.6035  -50.2731 C.ar      23 UNK        -0.1150 
     15 C15        -0.0342  -19.0317  -49.6204 C.3       23 UNK        -0.0205 
     16 S16         1.1354  -19.2451  -48.2437 S.3       23 UNK        -0.2404 
     17 C17         0.0180  -19.4567  -46.8202 C.3       23 UNK        -0.0398 
     18 CA         -0.1985  -20.9517  -46.4825 C.3       11 UNK         0.1400 
     19 N          -0.2224  -21.2001  -45.0419 N.am      11 UNK        -0.5000 
     20 C          -0.0954  -22.4109  -44.4821 C.2       10 UNK         0.5000 
     21 O           0.0799  -23.4486  -45.1211 O.2       10 UNK        -0.5000 
     22 CA         -0.2340  -22.4674  -42.9508 C.3       10 UNK         0.1400 
     23 CB          1.0905  -22.0813  -42.2745 C.3       10 UNK        -0.1800 
     24 N          -1.3003  -21.5928  -42.4606 N.am      10 UNK        -0.5000 
     25 C          -2.6025  -21.7599  -42.7316 C.2       9 UNK         0.5000 
     26 O          -3.0513  -22.6980  -43.3909 O.2       9 UNK        -0.5000 
     27 CA         -3.5521  -20.6607  -42.2233 C.3       9 UNK         0.1400 
     28 CB         -3.9303  -20.9065  -40.7555 C.3       9 UNK        -0.1800 
     29 N          -2.9970  -19.3120  -42.3610 N.am      9 UNK        -0.5000 
     30 C          -2.6721  -18.7201  -43.5170 C.2       8 UNK         0.5000 
     31 O          -2.7547  -19.2728  -44.6121 O.2       8 UNK        -0.5000 
     32 CA         -2.1284  -17.2855  -43.4457 C.3       8 UNK         0.1400 
     33 CB         -3.2254  -16.2784  -43.0530 C.3       8 UNK        -0.1800 
     34 N          -0.9363  -17.1539  -42.6053 N.am      8 UNK        -0.5000 
     35 C          -0.8102  -17.2665  -41.2750 C.2       7 UNK         0.5000 
     36 O          -1.7304  -17.5618  -40.5115 O.2       7 UNK        -0.5000 
     37 CA          0.5933  -16.9916  -40.7086 C.3       7 UNK         0.1400 
     38 CB          1.4602  -18.2593  -40.7741 C.3       7 UNK        -0.1800 
     39 N           1.2515  -15.9090  -41.4432 N.am      7 UNK        -0.5000 
     40 C           1.0428  -14.6043  -41.2115 C.2       6 UNK         0.5000 
     41 O           0.3722  -14.1752  -40.2719 O.2       6 UNK        -0.5000 
     42 CA          1.6742  -13.6091  -42.2059 C.3       6 UNK         0.1400 
     43 CB          3.1066  -13.2540  -41.7791 C.3       6 UNK        -0.1800 
     44 N           1.6941  -14.1172  -43.5784 N.am      6 UNK        -0.5000 
     45 C           0.6082  -14.2951  -44.3453 C.2       5 UNK         0.5000 
     46 O          -0.5257  -13.9525  -44.0127 O.2       5 UNK        -0.5000 
     47 CA          0.8161  -15.0013  -45.7003 C.3       5 UNK         0.1400 
     48 CB          0.8813  -13.9756  -46.8404 C.3       5 UNK        -0.1800 
     49 N           2.0158  -15.8406  -45.7527 N.am      5 UNK        -0.5000 
     50 C           2.2504  -16.9300  -45.0120 C.2       4 UNK         0.5000 
     51 O           1.4584  -17.3297  -44.1567 O.2       4 UNK        -0.5000 
     52 CA          3.5833  -17.6850  -45.2403 C.3       4 UNK         0.1400 
     53 CB          3.4855  -19.1653  -44.8252 C.3       4 UNK        -0.1800 
     54 N           4.1064  -17.6170  -46.6117 N.am      4 UNK        -0.5000 
     55 C           4.6430  -16.5421  -47.2043 C.2       3 UNK         0.5000 
     56 O           4.7085  -15.4413  -46.6526 O.2       3 UNK        -0.5000 
     57 CA          5.1519  -16.7304  -48.6506 C.3       3 UNK         0.1400 
     58 CB          4.0839  -17.3807  -49.5476 C.3       3 UNK        -0.1800 
     59 N           5.5603  -15.4599  -49.2534 N.am      3 UNK        -0.5000 
     60 C           6.7229  -14.8351  -49.0184 C.2       2 UNK         0.5000 
     61 O           7.6256  -15.3161  -48.3310 O.2       2 UNK        -0.5000 
     62 CA          6.9327  -13.4492  -49.6679 C.3       2 UNK         0.1400 
     63 CB          7.9241  -13.5504  -50.8384 C.3       2 UNK        -0.1800 
     64 N           5.6995  -12.8210  -50.1530 N.am      2 UNK        -0.5000 
     65 C           4.7551  -12.2826  -49.3691 C.2       1 UNK         0.5000 
     66 O           4.8461  -12.2269  -48.1390 O.2       1 UNK        -0.5000 
     67 C          -1.4599  -21.5084  -47.1658 C.2       11 UNK         0.5000 
     68 O          -1.3500  -22.1357  -48.2167 O.2       11 UNK        -0.5000 
     69 N          -2.6277  -21.3047  -46.5394 N.am      12 UNK        -0.5000 
     70 CA         -3.9211  -21.8137  -46.9917 C.3       12 UNK         0.1400 
     71 CB         -5.0398  -21.2821  -46.0848 C.3       12 UNK        -0.1800 
     72 C          -3.9661  -23.3475  -47.0801 C.2       12 UNK         0.5000 
     73 O          -4.4856  -23.8811  -48.0615 O.2       12 UNK        -0.5000 
     74 N          -3.3831  -24.0124  -46.0722 N.am      13 UNK        -0.5000 
     75 CA         -3.1917  -25.4596  -46.0207 C.3       13 UNK         0.1400 
     76 CB         -2.6808  -25.8600  -44.6285 C.3       13 UNK        -0.1800 
     77 C          -2.2426  -25.9697  -47.1210 C.2       13 UNK         0.5000 
     78 O          -2.5528  -26.9678  -47.7714 O.2       13 UNK        -0.5000 
     79 N          -1.1157  -25.2709  -47.3194 N.am      14 UNK        -0.5000 
     80 CA         -0.1070  -25.5964  -48.3291 C.3       14 UNK         0.1400 
     81 CB          1.1560  -24.7578  -48.0801 C.3       14 UNK        -0.1800 
     82 C          -0.6101  -25.4049  -49.7719 C.2       14 UNK         0.5000 
     83 O          -0.3515  -26.2544  -50.6264 O.2       14 UNK        -0.5000 
     84 N          -1.3297  -24.3034  -50.0189 N.am      15 UNK        -0.5000 
     85 CA         -1.8857  -23.9211  -51.3151 C.3       15 UNK         0.1400 
     86 CB         -2.1050  -22.4020  -51.3323 C.3       15 UNK        -0.1800 
     87 C          -3.1655  -24.7127  -51.6476 C.2       15 UNK         0.5000 
     88 O          -4.2675  -24.1539  -51.6587 O.2       15 UNK        -0.5000 
     89 N          -2.9770  -26.0164  -51.8946 N.am      16 UNK        -0.5000 
     90 CA         -3.9664  -27.0155  -52.3187 C.3       16 UNK         0.1400 
     91 CB         -4.5330  -26.6482  -53.7067 C.3       16 UNK        -0.1800 
     92 C          -5.0859  -27.2815  -51.2899 C.2       16 UNK         0.5000 
     93 O          -6.1271  -27.8279  -51.6568 O.2       16 UNK        -0.5000 
     94 N          -4.8642  -26.8728  -50.0308 N.am      17 UNK        -0.5000 
     95 CA         -5.8190  -26.8618  -48.9160 C.3       17 UNK         0.1400 
     96 CB         -6.1807  -28.2981  -48.4857 C.3       17 UNK        -0.1800 
     97 C          -7.0607  -25.9797  -49.1790 C.2       17 UNK         0.5000 
     98 O          -8.1059  -26.1951  -48.5626 O.2       17 UNK        -0.5000 
     99 N          -6.9282  -25.0138  -50.0973 N.am      18 UNK        -0.5000 
    100 CA        -8.0144  -24.1771  -50.6038 C.3       18 UNK         0.1400 
    101 CB        -8.4181  -24.7033  -51.9928 C.3       18 UNK        -0.1800 
    102 C         -7.6275  -22.6902  -50.6718 C.2       18 UNK         0.5000 
    103 O         -8.4461  -21.8868  -51.1208 O.2       18 UNK        -0.5000 
    104 N         -6.3981  -22.3467  -50.2539 N.am      19 UNK        -0.5000 
    105 CA        -5.7817  -21.0198  -50.3609 C.3       19 UNK         0.1400 
    106 CB        -6.4877  -20.0019  -49.4408 C.3       19 UNK        -0.1800 
    107 C         -5.6568  -20.5381  -51.8196 C.2       19 UNK         0.5000 
    108 O         -5.8650  -19.3576  -52.1008 O.2       19 UNK        -0.5000 
    109 N         -5.3016  -21.4652  -52.7221 N.am      20 UNK        -0.5000 
    110 CA        -5.2257  -21.2545  -54.1723 C.3       20 UNK         0.1400 
    111 CB        -4.8501  -22.5842  -54.8443 C.3       20 UNK        -0.1800 
    112 C         -4.2559  -20.1344  -54.6032 C.2       20 UNK         0.5000 
    113 O         -4.5219  -19.4337  -55.5800 O.2       20 UNK        -0.5000 
    114 N         -3.1680  -19.9667  -53.8418 N.am      21 UNK        -0.5000 
    115 CA        -2.1546  -18.9278  -54.0270 C.3       21 UNK         0.1400 
    116 CB        -0.8828  -19.3607  -53.2846 C.3       21 UNK        -0.1800 
    117 C         -2.6057  -17.5318  -53.5499 C.2       21 UNK         0.5000 
    118 O         -1.9781  -16.5414  -53.9264 O.2       21 UNK        -0.5000 
    119 N         -3.6707  -17.4702  -52.7389 N.am      22 UNK        -0.5000 
    120 CA        -4.2578  -16.2270  -52.2167 C.3       22 UNK         0.1400 
    121 C         -5.1687  -15.4797  -53.2386 C.2       22 UNK         0.5000 
    122 N         -5.5131  -16.0666  -54.3798 N.am      22 UNK        -0.7600 
    123 O         -5.5593  -14.3397  -53.0045 O.2       22 UNK        -0.5000 
    124 C124       -4.9825  -16.4843  -50.8661 C.3       23 UNK        -0.0398 
    125 S125       -4.8681  -15.0732  -49.7122 S.3       23 UNK        -0.2404 
    126 C126       -3.6592  -15.6754  -48.4865 C.3       23 UNK        -0.0205 
    127 H127        0.4408   -9.2737  -47.8257 H         1 UNK         0.0600 
    128 H128       -0.3972  -10.8050  -48.1034 H         1 UNK         0.0600 
    129 H129        1.0358  -10.7553  -47.0725 H         1 UNK         0.0600 
    130 H130        2.8065  -11.6654  -48.1170 H         1 UNK         0.3000 
    131 H131        3.8219  -10.7989  -50.5683 H         1 UNK         0.0600 
    132 H132        2.1010  -12.1642  -51.6817 H         1 UNK         0.0800 
    133 H133        3.6460  -12.8908  -51.9219 H         1 UNK         0.0800 
    134 H134        0.1352  -13.1934  -50.6041 H         1 UNK         0.0800 
    135 H135        0.4131  -14.2240  -51.9940 H         1 UNK         0.0800 
    136 H136       -1.9019  -13.9730  -49.6801 H         1 UNK         0.1150 
    137 H137       -2.4182  -18.1005  -48.6502 H         1 UNK         0.1150 
    138 H138        1.1073  -16.8434  -50.7279 H         1 UNK         0.1150 
    139 H139       -0.8391  -19.7645  -49.5552 H         1 UNK         0.0800 
    140 H140        0.4992  -19.2443  -50.5473 H         1 UNK         0.0800 
    141 H141       -0.9186  -18.9186  -46.9700 H         1 UNK         0.0800 
    142 H142        0.4948  -18.9544  -45.9820 H         1 UNK         0.0800 
    143 H143        0.6498  -21.5212  -46.8696 H         1 UNK         0.0600 
    144 H144       -0.4174  -20.4098  -44.4462 H         1 UNK         0.3000 
    145 H145       -0.4791  -23.4947  -42.6727 H         1 UNK         0.0600 
    146 H146        1.0211  -22.1702  -41.1903 H         1 UNK         0.0600 
    147 H147        1.8998  -22.7351  -42.6023 H         1 UNK         0.0600 
    148 H148        1.3820  -21.0568  -42.5095 H         1 UNK         0.0600 
    149 H149       -1.0237  -20.7939  -41.9101 H         1 UNK         0.3000 
    150 H150       -4.4635  -20.7070  -42.8221 H         1 UNK         0.0600 
    151 H151       -4.3590  -21.9009  -40.6232 H         1 UNK         0.0600 
    152 H152       -4.6731  -20.1852  -40.4146 H         1 UNK         0.0600 
    153 H153       -3.0636  -20.8308  -40.0975 H         1 UNK         0.0600 
    154 H154       -2.8319  -18.7858  -41.5073 H         1 UNK         0.3000 
    155 H155       -1.8009  -17.0259  -44.4538 H         1 UNK         0.0600 
    156 H156       -4.0611  -16.3240  -43.7523 H         1 UNK         0.0600 
    157 H157       -2.8438  -15.2575  -43.0695 H         1 UNK         0.0600 
    158 H158       -3.6247  -16.4693  -42.0567 H         1 UNK         0.0600 
    159 H159       -0.0760  -17.0118  -43.1280 H         1 UNK         0.3000 
    160 H160        0.4868  -16.7068  -39.6596 H         1 UNK         0.0600 
    161 H161        2.4456  -18.0842  -40.3422 H         1 UNK         0.0600 
    162 H162        1.6013  -18.6043  -41.7984 H         1 UNK         0.0600 
    163 H163        1.0008  -19.0751  -40.2145 H         1 UNK         0.0600 
    164 H164        1.7791  -16.1787  -42.2619 H         1 UNK         0.3000 
    165 H165        1.0760  -12.6956  -42.1885 H         1 UNK         0.0600 
    166 H166        3.5377  -12.4979  -42.4356 H         1 UNK         0.0600 
    167 H167        3.1228  -12.8505  -40.7658 H         1 UNK         0.0600 
    168 H168        3.7611  -14.1265  -41.7956 H         1 UNK         0.0600 
    169 H169        2.5890  -14.4050  -43.9462 H         1 UNK         0.3000 
    170 H170       -0.0480  -15.6470  -45.8702 H         1 UNK         0.0600 
    171 H171       -0.0115  -13.3494  -46.8599 H         1 UNK         0.0600 
    172 H172        1.7470  -13.3198  -46.7429 H         1 UNK         0.0600 
    173 H173        0.9468  -14.4743  -47.8062 H         1 UNK         0.0600 
    174 H174        2.7583  -15.5379  -46.3737 H         1 UNK         0.3000 
    175 H175        4.3146  -17.2100  -44.5836 H         1 UNK         0.0600 
    176 H176        4.4500  -19.6644  -44.9187 H         1 UNK         0.0600 
    177 H177        3.1745  -19.2681  -43.7848 H         1 UNK         0.0600 
    178 H178        2.7674  -19.7102  -45.4383 H         1 UNK         0.0600 
    179 H179        4.0342  -18.4701  -47.1469 H         1 UNK         0.3000 
    180 H180        6.0185  -17.3937  -48.6157 H         1 UNK         0.0600 
    181 H181        3.1204  -16.8811  -49.4501 H         1 UNK         0.0600 
    182 H182        3.9347  -18.4285  -49.2866 H         1 UNK         0.0600 
    183 H183        4.3722  -17.3540  -50.5986 H         1 UNK         0.0600 
    184 H184        4.8587  -14.9750  -49.7930 H         1 UNK         0.3000 
    185 H185        7.3719  -12.8000  -48.9074 H         1 UNK         0.0600 
    186 H186        8.1413  -12.5681  -51.2585 H         1 UNK         0.0600 
    187 H187        8.8730  -13.9785  -50.5124 H         1 UNK         0.0600 
    188 H188        7.5376  -14.1818  -51.6393 H         1 UNK         0.0600 
    189 H189        5.5682  -12.8224  -51.1539 H         1 UNK         0.3000 
    190 H190       -2.6401  -20.7197  -45.7065 H         1 UNK         0.3000 
    191 H191       -4.0810  -21.4196  -47.9916 H         1 UNK         0.0600 
    192 H192       -4.9090  -21.6054  -45.0528 H         1 UNK         0.0600 
    193 H193       -6.0152  -21.6402  -46.4163 H         1 UNK         0.0600 
    194 H194       -5.0706  -20.1924  -46.0937 H         1 UNK         0.0600 
    195 H195       -3.0352  -23.4814  -45.2803 H         1 UNK         0.3000 
    196 H196       -4.1643  -25.9314  -46.1643 H         1 UNK         0.0600 
    197 H197       -1.7232  -25.3922  -44.3983 H         1 UNK         0.0600 
    198 H198       -2.5453  -26.9399  -44.5575 H         1 UNK         0.0600 
    199 H199       -3.3880  -25.5689  -43.8516 H         1 UNK         0.0600 
    200 H200       -0.9193  -24.4766  -46.7213 H         1 UNK         0.3000 
    201 H201        0.1585  -26.6488  -48.2090 H         1 UNK         0.0600 
    202 H202        0.9540  -23.6895  -48.1624 H         1 UNK         0.0600 
    203 H203        1.9358  -25.0013  -48.8027 H         1 UNK         0.0600 
    204 H204        1.5634  -24.9447  -47.0864 H         1 UNK         0.0600 
    205 H205       -1.4669  -23.6355  -49.2625 H         1 UNK         0.3000 
    206 H206       -1.1528  -24.1499  -52.0917 H         1 UNK         0.0600 
    207 H207       -1.1662  -21.8692  -51.1800 H         1 UNK         0.0600 
    208 H208       -2.5092  -22.0866  -52.2916 H         1 UNK         0.0600 
    209 H209       -2.7948  -22.0896  -50.5503 H         1 UNK         0.0600 
    210 H210       -2.0327  -26.3673  -51.7647 H         1 UNK         0.3000 
    211 H211       -3.4222  -27.9554  -52.4205 H         1 UNK         0.0600 
    212 H212       -5.1634  -25.7595  -53.6637 H         1 UNK         0.0600 
    213 H213       -5.1408  -27.4587  -54.1105 H         1 UNK         0.0600 
    214 H214       -3.7337  -26.4581  -54.4228 H         1 UNK         0.0600 
    215 H215       -3.9674  -26.4526  -49.8274 H         1 UNK         0.3000 
    216 H216       -5.3009  -26.3962  -48.0808 H         1 UNK         0.0600 
    217 H217       -5.2839  -28.8888  -48.2983 H         1 UNK         0.0600 
    218 H218       -6.7633  -28.2958  -47.5638 H         1 UNK         0.0600 
    219 H219       -6.7714  -28.8132  -49.2435 H         1 UNK         0.0600 
    220 H220       -6.0301  -24.9081  -50.5553 H         1 UNK         0.3000 
    221 H221       -8.8814  -24.2374  -49.9433 H         1 UNK         0.0600 
    222 H222       -7.5914  -24.6341  -52.7014 H         1 UNK         0.0600 
    223 H223       -8.7277  -25.7475  -51.9433 H         1 UNK         0.0600 
    224 H224       -9.2545  -24.1369  -52.4040 H         1 UNK         0.0600 
    225 H225       -5.8026  -23.0761  -49.8813 H         1 UNK         0.3000 
    226 H226       -4.7585  -21.1260  -50.0126 H         1 UNK         0.0600 
    227 H227       -6.6009  -20.3920  -48.4305 H         1 UNK         0.0600 
    228 H228       -5.9153  -19.0775  -49.3676 H         1 UNK         0.0600 
    229 H229       -7.4804  -19.7420  -49.8094 H         1 UNK         0.0600 
    230 H230       -5.1269  -22.4098  -52.3938 H         1 UNK         0.3000 
    231 H231       -6.2230  -20.9689  -54.5124 H         1 UNK         0.0600 
    232 H232       -5.5872  -23.3573  -54.6261 H         1 UNK         0.0600 
    233 H233       -3.8780  -22.9458  -54.5066 H         1 UNK         0.0600 
    234 H234       -4.8036  -22.4767  -55.9287 H         1 UNK         0.0600 
    235 H235       -3.0447  -20.5810  -53.0524 H         1 UNK         0.3000 
    236 H236       -1.9220  -18.8509  -55.0912 H         1 UNK         0.0600 
    237 H237       -0.0969  -18.6089  -53.3705 H         1 UNK         0.0600 
    238 H238       -1.0833  -19.5098  -52.2248 H         1 UNK         0.0600 
    239 H239       -0.4873  -20.2936  -53.6866 H         1 UNK         0.0600 
    240 H240       -4.1897  -18.3162  -52.5339 H         1 UNK         0.3000 
    241 H241       -3.4227  -15.5522  -52.0186 H         1 UNK         0.0600 
    242 H242       -5.2002  -17.0016  -54.5924 H         1 UNK         0.3800 
    243 H243       -6.0963  -15.5715  -55.0360 H         1 UNK         0.3800 
    244 H244       -6.0334  -16.7348  -51.0218 H         1 UNK         0.0800 
    245 H245       -4.5536  -17.3547  -50.3690 H         1 UNK         0.0800 
    246 H246       -4.0739  -16.5454  -47.9747 H         1 UNK         0.0800 
    247 H247       -3.5202  -14.9094  -47.7224 H         1 UNK         0.0800 
@<TRIPOS>BOND
     1    1    2 1    
     2    1  127 1    
     3    1  128 1    
     4    1  129 1    
     5    2    3 2    
     6    2    4 am   BACKBONE|DICT|INTERRES
     7    4    5 1    
     8    4  130 1    
     9    5    6 1    
    10    5   65 1    
    11    5  131 1    
    12    6    7 1    
    13    6  132 1    
    14    6  133 1    
    15    7    8 1    
    16    8    9 1    
    17    8  134 1    
    18    8  135 1    
    19    9   10 ar   
    20    9   14 ar   
    21   10   11 ar   
    22   10  136 1    
    23   11   12 ar   
    24   11  126 1    
    25   12   13 ar   
    26   12  137 1    
    27   13   14 ar   
    28   13   15 1    
    29   14  138 1    
    30   15   16 1    
    31   15  139 1    
    32   15  140 1    
    33   16   17 1    
    34   17   18 1    
    35   17  141 1    
    36   17  142 1    
    37   18   19 1    
    38   18   67 1    
    39   18  143 1    
    40   19   20 am   BACKBONE|DICT|INTERRES
    41   19  144 1    
    42   20   21 2    
    43   20   22 1    
    44   22   23 1    
    45   22   24 1    
    46   22  145 1    
    47   23  146 1    
    48   23  147 1    
    49   23  148 1    
    50   24   25 am   BACKBONE|DICT|INTERRES
    51   24  149 1    
    52   25   26 2    
    53   25   27 1    
    54   27   28 1    
    55   27   29 1    
    56   27  150 1    
    57   28  151 1    
    58   28  152 1    
    59   28  153 1    
    60   29   30 am   BACKBONE|DICT|INTERRES
    61   29  154 1    
    62   30   31 2    
    63   30   32 1    
    64   32   33 1    
    65   32   34 1    
    66   32  155 1    
    67   33  156 1    
    68   33  157 1    
    69   33  158 1    
    70   34   35 am   BACKBONE|DICT|INTERRES
    71   34  159 1    
    72   35   36 2    
    73   35   37 1    
    74   37   38 1    
    75   37   39 1    
    76   37  160 1    
    77   38  161 1    
    78   38  162 1    
    79   38  163 1    
    80   39   40 am   BACKBONE|DICT|INTERRES
    81   39  164 1    
    82   40   41 2    
    83   40   42 1    
    84   42   43 1    
    85   42   44 1    
    86   42  165 1    
    87   43  166 1    
    88   43  167 1    
    89   43  168 1    
    90   44   45 am   BACKBONE|DICT|INTERRES
    91   44  169 1    
    92   45   46 2    
    93   45   47 1    
    94   47   48 1    
    95   47   49 1    
    96   47  170 1    
    97   48  171 1    
    98   48  172 1    
    99   48  173 1    
   100   49   50 am   BACKBONE|DICT|INTERRES
   101   49  174 1    
   102   50   51 2    
   103   50   52 1    
   104   52   53 1    
   105   52   54 1    
   106   52  175 1    
   107   53  176 1    
   108   53  177 1    
   109   53  178 1    
   110   54   55 am   BACKBONE|DICT|INTERRES
   111   54  179 1    
   112   55   56 2    
   113   55   57 1    
   114   57   58 1    
   115   57   59 1    
   116   57  180 1    
   117   58  181 1    
   118   58  182 1    
   119   58  183 1    
   120   59   60 am   BACKBONE|DICT|INTERRES
   121   59  184 1    
   122   60   61 2    
   123   60   62 1    
   124   62   63 1    
   125   62   64 1    
   126   62  185 1    
   127   63  186 1    
   128   63  187 1    
   129   63  188 1    
   130   64   65 am   BACKBONE|DICT|INTERRES
   131   64  189 1    
   132   65   66 2    
   133   67   68 2    
   134   67   69 am   BACKBONE|DICT|INTERRES
   135   69   70 1    
   136   69  190 1    
   137   70   71 1    
   138   70   72 1    
   139   70  191 1    
   140   71  192 1    
   141   71  193 1    
   142   71  194 1    
   143   72   73 2    
   144   72   74 am   BACKBONE|DICT|INTERRES
   145   74   75 1    
   146   74  195 1    
   147   75   76 1    
   148   75   77 1    
   149   75  196 1    
   150   76  197 1    
   151   76  198 1    
   152   76  199 1    
   153   77   78 2    
   154   77   79 am   BACKBONE|DICT|INTERRES
   155   79   80 1    
   156   79  200 1    
   157   80   81 1    
   158   80   82 1    
   159   80  201 1    
   160   81  202 1    
   161   81  203 1    
   162   81  204 1    
   163   82   83 2    
   164   82   84 am   BACKBONE|DICT|INTERRES
   165   84   85 1    
   166   84  205 1    
   167   85   86 1    
   168   85   87 1    
   169   85  206 1    
   170   86  207 1    
   171   86  208 1    
   172   86  209 1    
   173   87   88 2    
   174   87   89 am   BACKBONE|DICT|INTERRES
   175   89   90 1    
   176   89  210 1    
   177   90   91 1    
   178   90   92 1    
   179   90  211 1    
   180   91  212 1    
   181   91  213 1    
   182   91  214 1    
   183   92   93 2    
   184   92   94 am   BACKBONE|DICT|INTERRES
   185   94   95 1    
   186   94  215 1    
   187   95   96 1    
   188   95   97 1    
   189   95  216 1    
   190   96  217 1    
   191   96  218 1    
   192   96  219 1    
   193   97   98 2    
   194   97   99 am   BACKBONE|DICT|INTERRES
   195   99  100 1    
   196   99  220 1    
   197  100  101 1    
   198  100  102 1    
   199  100  221 1    
   200  101  222 1    
   201  101  223 1    
   202  101  224 1    
   203  102  103 2    
   204  102  104 am   BACKBONE|DICT|INTERRES
   205  104  105 1    
   206  104  225 1    
   207  105  106 1    
   208  105  107 1    
   209  105  226 1    
   210  106  227 1    
   211  106  228 1    
   212  106  229 1    
   213  107  108 2    
   214  107  109 am   BACKBONE|DICT|INTERRES
   215  109  110 1    
   216  109  230 1    
   217  110  111 1    
   218  110  112 1    
   219  110  231 1    
   220  111  232 1    
   221  111  233 1    
   222  111  234 1    
   223  112  113 2    
   224  112  114 am   BACKBONE|DICT|INTERRES
   225  114  115 1    
   226  114  235 1    
   227  115  116 1    
   228  115  117 1    
   229  115  236 1    
   230  116  237 1    
   231  116  238 1    
   232  116  239 1    
   233  117  118 2    
   234  117  119 am   BACKBONE|DICT|INTERRES
   235  119  120 1    
   236  119  240 1    
   237  120  121 1    
   238  120  124 1    
   239  120  241 1    
   240  121  122 am   BACKBONE|DICT|INTERRES
   241  121  123 2    
   242  122  242 1    
   243  122  243 1    
   244  124  125 1    
   245  124  244 1    
   246  124  245 1    
   247  125  126 1    
   248  126  246 1    
   249  126  247 1    
@<TRIPOS>SUBSTRUCTURE
     1 UNK         1 GROUP             0       ****    0 ROOT    
