@<TRIPOS>MOLECULE
3R540
247   249    1
SMALL
USER_CHARGES


@<TRIPOS>ATOM
      1 CA          6.4828  -12.9071  -48.2218 C.3       0 UNK        -0.1800 
      2 C           5.0805  -13.4583  -48.0133 C.2       0 UNK         0.5000 
      3 O           4.8508  -14.2055  -47.0627 O.2       0 UNK        -0.5000 
      4 N           4.1354  -13.0842  -48.8855 N.am      1 UNK        -0.5000 
      5 CA          2.7387  -13.5394  -48.8534 C.3       1 UNK         0.1400 
      6 C6          1.9401  -13.1011  -50.1024 C.3       23 UNK        -0.0398 
      7 S7          2.6964  -13.6288  -51.6792 S.3       23 UNK        -0.2404 
      8 C8          2.4104  -15.4337  -51.6784 C.3       23 UNK        -0.0205 
      9 C9          0.9566  -15.8327  -51.4484 C.ar      23 UNK        -0.0193 
     10 C10        -0.0774  -15.2246  -52.1679 C.ar      23 UNK        -0.1150 
     11 C11        -1.4092  -15.5833  -51.9438 C.ar      23 UNK        -0.0193 
     12 C12        -1.7057  -16.5703  -51.0002 C.ar      23 UNK        -0.1150 
     13 C13        -0.6813  -17.2016  -50.2891 C.ar      23 UNK        -0.0193 
     14 C14         0.6465  -16.8280  -50.5164 C.ar      23 UNK        -0.1150 
     15 C15        -1.0094  -18.3029  -49.2945 C.3       23 UNK        -0.0205 
     16 S16        -0.6546  -17.8021  -47.5813 S.3       23 UNK        -0.2404 
     17 C17        -1.7996  -18.8647  -46.6434 C.3       23 UNK        -0.0398 
     18 CA         -1.5568  -20.3879  -46.8249 C.3       11 UNK         0.1400 
     19 N          -0.3504  -20.8691  -46.1506 N.am      11 UNK        -0.5000 
     20 C           0.7970  -21.1720  -46.7749 C.2       10 UNK         0.5000 
     21 O           0.9476  -21.0859  -47.9940 O.2       10 UNK        -0.5000 
     22 CA          1.9840  -21.6632  -45.9216 C.3       10 UNK         0.1400 
     23 CB          3.2173  -20.7625  -46.1015 C.3       10 UNK        -0.1800 
     24 N           1.6787  -21.7258  -44.4937 N.am      10 UNK        -0.5000 
     25 C           1.4670  -22.8488  -43.7977 C.2       9 UNK         0.5000 
     26 O           1.4632  -23.9769  -44.2893 O.2       9 UNK        -0.5000 
     27 CA          1.2198  -22.6807  -42.2865 C.3       9 UNK         0.1400 
     28 CB          2.5543  -22.7390  -41.5273 C.3       9 UNK        -0.1800 
     29 N           0.5276  -21.4461  -41.9098 N.am      9 UNK        -0.5000 
     30 C          -0.6224  -20.9603  -42.3944 C.2       8 UNK         0.5000 
     31 O          -1.2678  -21.4984  -43.2958 O.2       8 UNK        -0.5000 
     32 CA         -1.1220  -19.6227  -41.8140 C.3       8 UNK         0.1400 
     33 CB         -2.1905  -19.8543  -40.7303 C.3       8 UNK        -0.1800 
     34 N          -0.0586  -18.7232  -41.3438 N.am      8 UNK        -0.5000 
     35 C           0.7708  -18.8502  -40.2971 C.2       7 UNK         0.5000 
     36 O           0.7658  -19.8122  -39.5294 O.2       7 UNK        -0.5000 
     37 CA          1.8232  -17.7437  -40.1065 C.3       7 UNK         0.1400 
     38 CB          3.1397  -18.1523  -40.7857 C.3       7 UNK        -0.1800 
     39 N           1.3921  -16.4479  -40.6318 N.am      7 UNK        -0.5000 
     40 C           0.4423  -15.6819  -40.0774 C.2       6 UNK         0.5000 
     41 O          -0.1335  -15.9597  -39.0246 O.2       6 UNK        -0.5000 
     42 CA          0.0558  -14.4002  -40.8373 C.3       6 UNK         0.1400 
     43 CB          1.0479  -13.2682  -40.5309 C.3       6 UNK        -0.1800 
     44 N          -0.0328  -14.6010  -42.2854 N.am      6 UNK        -0.5000 
     45 C          -0.9471  -15.3735  -42.8909 C.2       5 UNK         0.5000 
     46 O          -1.8331  -15.9842  -42.2930 O.2       5 UNK        -0.5000 
     47 CA         -0.8418  -15.5128  -44.4191 C.3       5 UNK         0.1400 
     48 CB         -1.4642  -14.3005  -45.1267 C.3       5 UNK        -0.1800 
     49 N           0.5340  -15.6949  -44.8753 N.am      5 UNK        -0.5000 
     50 C           1.2876  -16.7733  -44.6188 C.2       4 UNK         0.5000 
     51 O           0.8925  -17.7557  -43.9889 O.2       4 UNK        -0.5000 
     52 CA          2.7454  -16.7233  -45.1126 C.3       4 UNK         0.1400 
     53 CB          2.8262  -17.0354  -46.6153 C.3       4 UNK        -0.1800 
     54 N           3.3885  -15.4348  -44.8470 N.am      4 UNK        -0.5000 
     55 C           3.5618  -14.8998  -43.6296 C.2       3 UNK         0.5000 
     56 O           3.2406  -15.4589  -42.5824 O.2       3 UNK        -0.5000 
     57 CA          4.1362  -13.4749  -43.5740 C.3       3 UNK         0.1400 
     58 CB          5.6656  -13.4848  -43.7176 C.3       3 UNK        -0.1800 
     59 N           3.5443  -12.6117  -44.5952 N.am      3 UNK        -0.5000 
     60 C           2.2700  -12.1946  -44.5832 C.2       2 UNK         0.5000 
     61 O           1.4700  -12.4630  -43.6876 O.2       2 UNK        -0.5000 
     62 CA          1.8003  -11.3790  -45.8009 C.3       2 UNK         0.1400 
     63 CB          2.2007   -9.9034  -45.6557 C.3       2 UNK        -0.1800 
     64 N           2.3281  -11.9064  -47.0599 N.am      2 UNK        -0.5000 
     65 C           2.0002  -13.1017  -47.5720 C.2       1 UNK         0.5000 
     66 O           1.1823  -13.8607  -47.0543 O.2       1 UNK        -0.5000 
     67 C          -2.7486  -21.2405  -46.3655 C.2       11 UNK         0.5000 
     68 O          -2.9936  -22.2871  -46.9632 O.2       11 UNK        -0.5000 
     69 N          -3.4797  -20.7882  -45.3373 N.am      12 UNK        -0.5000 
     70 CA         -4.7458  -21.3682  -44.8802 C.3       12 UNK         0.1400 
     71 CB         -5.3113  -20.5015  -43.7452 C.3       12 UNK        -0.1800 
     72 C          -4.6637  -22.8427  -44.4435 C.2       12 UNK         0.5000 
     73 O          -5.6078  -23.5945  -44.6878 O.2       12 UNK        -0.5000 
     74 N          -3.5419  -23.2339  -43.8254 N.am      13 UNK        -0.5000 
     75 CA         -3.2910  -24.6126  -43.4032 C.3       13 UNK         0.1400 
     76 CB         -2.2713  -24.6084  -42.2593 C.3       13 UNK        -0.1800 
     77 C          -2.7924  -25.5002  -44.5588 C.2       13 UNK         0.5000 
     78 O          -3.0237  -26.7096  -44.5316 O.2       13 UNK        -0.5000 
     79 N          -2.1178  -24.8942  -45.5461 N.am      14 UNK        -0.5000 
     80 CA         -1.6311  -25.5701  -46.7492 C.3       14 UNK         0.1400 
     81 CB         -0.5104  -24.7367  -47.3918 C.3       14 UNK        -0.1800 
     82 C          -2.7645  -25.8202  -47.7579 C.2       14 UNK         0.5000 
     83 O          -2.7864  -26.8702  -48.4006 O.2       14 UNK        -0.5000 
     84 N          -3.6715  -24.8403  -47.8823 N.am      15 UNK        -0.5000 
     85 CA         -4.8762  -24.7665  -48.7177 C.3       15 UNK         0.1400 
     86 CB         -5.8697  -25.8886  -48.3677 C.3       15 UNK        -0.1800 
     87 C          -4.6142  -24.7118  -50.2348 C.2       15 UNK         0.5000 
     88 O          -5.3130  -23.9802  -50.9361 O.2       15 UNK        -0.5000 
     89 N          -3.6117  -25.4569  -50.7162 N.am      16 UNK        -0.5000 
     90 CA         -3.2353  -25.6068  -52.1227 C.3       16 UNK         0.1400 
     91 CB         -2.0417  -26.5676  -52.2244 C.3       16 UNK        -0.1800 
     92 C          -2.9230  -24.2806  -52.8377 C.2       16 UNK         0.5000 
     93 O          -3.3144  -24.1159  -53.9909 O.2       16 UNK        -0.5000 
     94 N          -2.2648  -23.3485  -52.1342 N.am      17 UNK        -0.5000 
     95 CA         -1.9321  -22.0128  -52.6381 C.3       17 UNK         0.1400 
     96 CB         -1.0033  -21.3121  -51.6342 C.3       17 UNK        -0.1800 
     97 C          -3.1746  -21.1451  -52.9120 C.2       17 UNK         0.5000 
     98 O          -3.1896  -20.3816  -53.8786 O.2       17 UNK        -0.5000 
     99 N          -4.2002  -21.2900  -52.0635 N.am      18 UNK        -0.5000 
    100 CA        -5.4820  -20.6097  -52.2113 C.3       18 UNK         0.1400 
    101 CB        -6.1952  -20.5492  -50.8520 C.3       18 UNK        -0.1800 
    102 C         -6.3580  -21.2968  -53.2717 C.2       18 UNK         0.5000 
    103 O         -6.9387  -20.6106  -54.1136 O.2       18 UNK        -0.5000 
    104 N         -6.4176  -22.6349  -53.2201 N.am      19 UNK        -0.5000 
    105 CA        -7.2027  -23.4786  -54.1221 C.3       19 UNK         0.1400 
    106 CB        -7.1931  -24.9225  -53.5981 C.3       19 UNK        -0.1800 
    107 C         -6.7207  -23.4312  -55.5834 C.2       19 UNK         0.5000 
    108 O         -7.5501  -23.4488  -56.4936 O.2       19 UNK        -0.5000 
    109 N         -5.4004  -23.3517  -55.7801 N.am      20 UNK        -0.5000 
    110 CA        -4.7422  -23.2446  -57.0751 C.3       20 UNK         0.1400 
    111 CB        -4.1421  -24.6146  -57.4427 C.3       20 UNK        -0.1800 
    112 C         -3.6788  -22.1305  -56.9915 C.2       20 UNK         0.5000 
    113 O         -2.4999  -22.4333  -56.8101 O.2       20 UNK        -0.5000 
    114 N         -4.0487  -20.8465  -57.0895 N.am      21 UNK        -0.5000 
    115 CA        -5.3879  -20.2979  -57.3202 C.3       21 UNK         0.1400 
    116 CB        -5.6983  -20.2975  -58.8327 C.3       21 UNK        -0.1800 
    117 C         -5.5034  -18.8870  -56.7096 C.2       21 UNK         0.5000 
    118 O         -6.2390  -18.0531  -57.2406 O.2       21 UNK        -0.5000 
    119 N         -4.7491  -18.6185  -55.6345 N.am      22 UNK        -0.5000 
    120 CA        -4.6449  -17.2916  -55.0046 C.3       22 UNK         0.1400 
    121 C         -5.8573  -16.8726  -54.1168 C.2       22 UNK         0.5000 
    122 N         -6.8442  -17.7261  -53.8737 N.am      22 UNK        -0.7600 
    123 O         -5.9181  -15.7392  -53.6494 O.2       22 UNK        -0.5000 
    124 C124       -3.2849  -17.1324  -54.2722 C.3       23 UNK        -0.0398 
    125 S125       -2.5846  -15.4553  -54.4477 S.3       23 UNK        -0.2404 
    126 C126       -2.5226  -14.8947  -52.7183 C.3       23 UNK        -0.0205 
    127 H127        6.7984  -12.3449  -47.3430 H         1 UNK         0.0600 
    128 H128        6.5341  -12.2458  -49.0870 H         1 UNK         0.0600 
    129 H129        7.1866  -13.7250  -48.3753 H         1 UNK         0.0600 
    130 H130        4.3816  -12.4827  -49.6590 H         1 UNK         0.3000 
    131 H131        2.7610  -14.6302  -48.8424 H         1 UNK         0.0600 
    132 H132        0.9172  -13.4787  -50.0564 H         1 UNK         0.0800 
    133 H133        1.8520  -12.0136  -50.1309 H         1 UNK         0.0800 
    134 H134        2.7331  -15.8379  -52.6386 H         1 UNK         0.0800 
    135 H135        3.0573  -15.8861  -50.9252 H         1 UNK         0.0800 
    136 H136        0.1528  -14.4633  -52.9001 H         1 UNK         0.1150 
    137 H137       -2.7344  -16.8523  -50.8253 H         1 UNK         0.1150 
    138 H138        1.4360  -17.3152  -49.9611 H         1 UNK         0.1150 
    139 H139       -2.0571  -18.5935  -49.3854 H         1 UNK         0.0800 
    140 H140       -0.4177  -19.1869  -49.5350 H         1 UNK         0.0800 
    141 H141       -2.8094  -18.5899  -46.9549 H         1 UNK         0.0800 
    142 H142       -1.7174  -18.5916  -45.5906 H         1 UNK         0.0800 
    143 H143       -1.4853  -20.5915  -47.8942 H         1 UNK         0.0600 
    144 H144       -0.4315  -21.0394  -45.1549 H         1 UNK         0.3000 
    145 H145        2.2408  -22.6551  -46.2990 H         1 UNK         0.0600 
    146 H146        3.4447  -20.5936  -47.1549 H         1 UNK         0.0600 
    147 H147        4.0991  -21.2182  -45.6509 H         1 UNK         0.0600 
    148 H148        3.0734  -19.7916  -45.6302 H         1 UNK         0.0600 
    149 H149        1.6463  -20.8447  -44.0006 H         1 UNK         0.3000 
    150 H150        0.6146  -23.5189  -41.9460 H         1 UNK         0.0600 
    151 H151        3.2015  -21.9000  -41.7868 H         1 UNK         0.0600 
    152 H152        3.0969  -23.6570  -41.7572 H         1 UNK         0.0600 
    153 H153        2.3960  -22.7183  -40.4488 H         1 UNK         0.0600 
    154 H154        0.9225  -20.9408  -41.1242 H         1 UNK         0.3000 
    155 H155       -1.6018  -19.0941  -42.6391 H         1 UNK         0.0600 
    156 H156       -1.7909  -20.3868  -39.8672 H         1 UNK         0.0600 
    157 H157       -3.0174  -20.4490  -41.1187 H         1 UNK         0.0600 
    158 H158       -2.6048  -18.9087  -40.3803 H         1 UNK         0.0600 
    159 H159        0.1131  -17.9365  -41.9589 H         1 UNK         0.3000 
    160 H160        2.0070  -17.6387  -39.0353 H         1 UNK         0.0600 
    161 H161        3.0196  -18.2538  -41.8653 H         1 UNK         0.0600 
    162 H162        3.4998  -19.1081  -40.4029 H         1 UNK         0.0600 
    163 H163        3.9216  -17.4145  -40.6046 H         1 UNK         0.0600 
    164 H164        1.8725  -16.1132  -41.4640 H         1 UNK         0.3000 
    165 H165       -0.9294  -14.0901  -40.4828 H         1 UNK         0.0600 
    166 H166        0.7303  -12.3315  -40.9893 H         1 UNK         0.0600 
    167 H167        1.1242  -13.0945  -39.4569 H         1 UNK         0.0600 
    168 H168        2.0479  -13.4988  -40.8989 H         1 UNK         0.0600 
    169 H169        0.6341  -14.0898  -42.8550 H         1 UNK         0.3000 
    170 H170       -1.4103  -16.3975  -44.7092 H         1 UNK         0.0600 
    171 H171       -1.4751  -14.4420  -46.2077 H         1 UNK         0.0600 
    172 H172       -0.9133  -13.3835  -44.9153 H         1 UNK         0.0600 
    173 H173       -2.4959  -14.1475  -44.8078 H         1 UNK         0.0600 
    174 H174        0.9164  -14.9603  -45.4636 H         1 UNK         0.3000 
    175 H175        3.3041  -17.4896  -44.5718 H         1 UNK         0.0600 
    176 H176        2.3490  -17.9868  -46.8495 H         1 UNK         0.0600 
    177 H177        2.3209  -16.2764  -47.2103 H         1 UNK         0.0600 
    178 H178        3.8608  -17.0937  -46.9534 H         1 UNK         0.0600 
    179 H179        3.7302  -14.9201  -45.6539 H         1 UNK         0.3000 
    180 H180        3.8944  -13.0560  -42.5949 H         1 UNK         0.0600 
    181 H181        5.9833  -13.8918  -44.6775 H         1 UNK         0.0600 
    182 H182        6.1238  -14.0939  -42.9374 H         1 UNK         0.0600 
    183 H183        6.0763  -12.4791  -43.6273 H         1 UNK         0.0600 
    184 H184        4.1190  -12.3967  -45.3963 H         1 UNK         0.3000 
    185 H185        0.7102  -11.4351  -45.8389 H         1 UNK         0.0600 
    186 H186        1.8059   -9.4822  -44.7302 H         1 UNK         0.0600 
    187 H187        3.2839   -9.7776  -45.6380 H         1 UNK         0.0600 
    188 H188        1.8063   -9.3054  -46.4776 H         1 UNK         0.0600 
    189 H189        3.0171  -11.3462  -47.5402 H         1 UNK         0.3000 
    190 H190       -3.1874  -19.9487  -44.8620 H         1 UNK         0.3000 
    191 H191       -5.4429  -21.3215  -45.7195 H         1 UNK         0.0600 
    192 H192       -5.4827  -19.4773  -44.0769 H         1 UNK         0.0600 
    193 H193       -6.2675  -20.8917  -43.3937 H         1 UNK         0.0600 
    194 H194       -4.6359  -20.4697  -42.8903 H         1 UNK         0.0600 
    195 H195       -2.8000  -22.5574  -43.6632 H         1 UNK         0.3000 
    196 H196       -4.2198  -25.0438  -43.0231 H         1 UNK         0.0600 
    197 H197       -2.1388  -25.6099  -41.8485 H         1 UNK         0.0600 
    198 H198       -2.5839  -23.9551  -41.4444 H         1 UNK         0.0600 
    199 H199       -1.3020  -24.2689  -42.6153 H         1 UNK         0.0600 
    200 H200       -2.0142  -23.8904  -45.5135 H         1 UNK         0.3000 
    201 H201       -1.2123  -26.5377  -46.4646 H         1 UNK         0.0600 
    202 H202       -0.1118  -25.2366  -48.2754 H         1 UNK         0.0600 
    203 H203        0.3192  -24.5931  -46.7000 H         1 UNK         0.0600 
    204 H204       -0.8598  -23.7523  -47.7039 H         1 UNK         0.0600 
    205 H205       -3.4787  -23.9814  -47.3695 H         1 UNK         0.3000 
    206 H206       -5.3495  -23.8190  -48.4547 H         1 UNK         0.0600 
    207 H207       -6.1122  -25.8800  -47.3048 H         1 UNK         0.0600 
    208 H208       -6.8044  -25.7646  -48.9161 H         1 UNK         0.0600 
    209 H209       -5.4762  -26.8749  -48.6148 H         1 UNK         0.0600 
    210 H210       -3.1260  -26.0487  -50.0477 H         1 UNK         0.3000 
    211 H211       -4.0822  -26.0641  -52.6369 H         1 UNK         0.0600 
    212 H212       -1.1719  -26.1871  -51.6874 H         1 UNK         0.0600 
    213 H213       -1.7476  -26.7181  -53.2641 H         1 UNK         0.0600 
    214 H214       -2.2876  -27.5464  -51.8121 H         1 UNK         0.0600 
    215 H215       -1.9866  -23.5664  -51.1890 H         1 UNK         0.3000 
    216 H216       -1.3964  -22.1292  -53.5828 H         1 UNK         0.0600 
    217 H217       -0.7381  -20.3113  -51.9786 H         1 UNK         0.0600 
    218 H218       -0.0736  -21.8658  -51.5022 H         1 UNK         0.0600 
    219 H219       -1.4728  -21.2092  -50.6551 H         1 UNK         0.0600 
    220 H220       -4.1369  -21.9889  -51.3367 H         1 UNK         0.3000 
    221 H221       -5.2949  -19.5841  -52.5336 H         1 UNK         0.0600 
    222 H222       -6.4117  -21.5432  -50.4596 H         1 UNK         0.0600 
    223 H223       -5.5903  -20.0225  -50.1139 H         1 UNK         0.0600 
    224 H224       -7.1431  -20.0162  -50.9353 H         1 UNK         0.0600 
    225 H225       -5.9280  -23.1134  -52.4676 H         1 UNK         0.3000 
    226 H226       -8.2324  -23.1159  -54.1019 H         1 UNK         0.0600 
    227 H227       -7.8058  -25.5707  -54.2258 H         1 UNK         0.0600 
    228 H228       -6.1846  -25.3359  -53.5838 H         1 UNK         0.0600 
    229 H229       -7.5918  -24.9778  -52.5849 H         1 UNK         0.0600 
    230 H230       -4.7718  -23.3835  -54.9807 H         1 UNK         0.3000 
    231 H231       -5.4591  -22.9887  -57.8540 H         1 UNK         0.0600 
    232 H232       -3.4376  -24.9646  -56.6869 H         1 UNK         0.0600 
    233 H233       -3.6102  -24.5652  -58.3934 H         1 UNK         0.0600 
    234 H234       -4.9219  -25.3694  -57.5443 H         1 UNK         0.0600 
    235 H235       -3.3265  -20.1462  -56.9996 H         1 UNK         0.3000 
    236 H236       -6.1349  -20.9018  -56.8073 H         1 UNK         0.0600 
    237 H237       -5.5904  -21.2831  -59.2821 H         1 UNK         0.0600 
    238 H238       -6.7225  -19.9735  -59.0214 H         1 UNK         0.0600 
    239 H239       -5.0358  -19.6194  -59.3720 H         1 UNK         0.0600 
    240 H240       -4.2106  -19.3610  -55.1959 H         1 UNK         0.3000 
    241 H241       -4.6501  -16.5760  -55.8294 H         1 UNK         0.0600 
    242 H242       -7.6249  -17.4219  -53.3146 H         1 UNK         0.3800 
    243 H243       -6.8279  -18.6750  -54.2331 H         1 UNK         0.3800 
    244 H244       -2.5420  -17.8078  -54.6991 H         1 UNK         0.0800 
    245 H245       -3.3646  -17.4218  -53.2235 H         1 UNK         0.0800 
    246 H246       -3.4919  -15.0581  -52.2443 H         1 UNK         0.0800 
    247 H247       -2.3545  -13.8170  -52.7036 H         1 UNK         0.0800 
@<TRIPOS>BOND
     1    1    2 1    
     2    1  127 1    
     3    1  128 1    
     4    1  129 1    
     5    2    3 2    
     6    2    4 am   BACKBONE|DICT|INTERRES
     7    4    5 1    
     8    4  130 1    
     9    5    6 1    
    10    5   65 1    
    11    5  131 1    
    12    6    7 1    
    13    6  132 1    
    14    6  133 1    
    15    7    8 1    
    16    8    9 1    
    17    8  134 1    
    18    8  135 1    
    19    9   10 ar   
    20    9   14 ar   
    21   10   11 ar   
    22   10  136 1    
    23   11   12 ar   
    24   11  126 1    
    25   12   13 ar   
    26   12  137 1    
    27   13   14 ar   
    28   13   15 1    
    29   14  138 1    
    30   15   16 1    
    31   15  139 1    
    32   15  140 1    
    33   16   17 1    
    34   17   18 1    
    35   17  141 1    
    36   17  142 1    
    37   18   19 1    
    38   18   67 1    
    39   18  143 1    
    40   19   20 am   BACKBONE|DICT|INTERRES
    41   19  144 1    
    42   20   21 2    
    43   20   22 1    
    44   22   23 1    
    45   22   24 1    
    46   22  145 1    
    47   23  146 1    
    48   23  147 1    
    49   23  148 1    
    50   24   25 am   BACKBONE|DICT|INTERRES
    51   24  149 1    
    52   25   26 2    
    53   25   27 1    
    54   27   28 1    
    55   27   29 1    
    56   27  150 1    
    57   28  151 1    
    58   28  152 1    
    59   28  153 1    
    60   29   30 am   BACKBONE|DICT|INTERRES
    61   29  154 1    
    62   30   31 2    
    63   30   32 1    
    64   32   33 1    
    65   32   34 1    
    66   32  155 1    
    67   33  156 1    
    68   33  157 1    
    69   33  158 1    
    70   34   35 am   BACKBONE|DICT|INTERRES
    71   34  159 1    
    72   35   36 2    
    73   35   37 1    
    74   37   38 1    
    75   37   39 1    
    76   37  160 1    
    77   38  161 1    
    78   38  162 1    
    79   38  163 1    
    80   39   40 am   BACKBONE|DICT|INTERRES
    81   39  164 1    
    82   40   41 2    
    83   40   42 1    
    84   42   43 1    
    85   42   44 1    
    86   42  165 1    
    87   43  166 1    
    88   43  167 1    
    89   43  168 1    
    90   44   45 am   BACKBONE|DICT|INTERRES
    91   44  169 1    
    92   45   46 2    
    93   45   47 1    
    94   47   48 1    
    95   47   49 1    
    96   47  170 1    
    97   48  171 1    
    98   48  172 1    
    99   48  173 1    
   100   49   50 am   BACKBONE|DICT|INTERRES
   101   49  174 1    
   102   50   51 2    
   103   50   52 1    
   104   52   53 1    
   105   52   54 1    
   106   52  175 1    
   107   53  176 1    
   108   53  177 1    
   109   53  178 1    
   110   54   55 am   BACKBONE|DICT|INTERRES
   111   54  179 1    
   112   55   56 2    
   113   55   57 1    
   114   57   58 1    
   115   57   59 1    
   116   57  180 1    
   117   58  181 1    
   118   58  182 1    
   119   58  183 1    
   120   59   60 am   BACKBONE|DICT|INTERRES
   121   59  184 1    
   122   60   61 2    
   123   60   62 1    
   124   62   63 1    
   125   62   64 1    
   126   62  185 1    
   127   63  186 1    
   128   63  187 1    
   129   63  188 1    
   130   64   65 am   BACKBONE|DICT|INTERRES
   131   64  189 1    
   132   65   66 2    
   133   67   68 2    
   134   67   69 am   BACKBONE|DICT|INTERRES
   135   69   70 1    
   136   69  190 1    
   137   70   71 1    
   138   70   72 1    
   139   70  191 1    
   140   71  192 1    
   141   71  193 1    
   142   71  194 1    
   143   72   73 2    
   144   72   74 am   BACKBONE|DICT|INTERRES
   145   74   75 1    
   146   74  195 1    
   147   75   76 1    
   148   75   77 1    
   149   75  196 1    
   150   76  197 1    
   151   76  198 1    
   152   76  199 1    
   153   77   78 2    
   154   77   79 am   BACKBONE|DICT|INTERRES
   155   79   80 1    
   156   79  200 1    
   157   80   81 1    
   158   80   82 1    
   159   80  201 1    
   160   81  202 1    
   161   81  203 1    
   162   81  204 1    
   163   82   83 2    
   164   82   84 am   BACKBONE|DICT|INTERRES
   165   84   85 1    
   166   84  205 1    
   167   85   86 1    
   168   85   87 1    
   169   85  206 1    
   170   86  207 1    
   171   86  208 1    
   172   86  209 1    
   173   87   88 2    
   174   87   89 am   BACKBONE|DICT|INTERRES
   175   89   90 1    
   176   89  210 1    
   177   90   91 1    
   178   90   92 1    
   179   90  211 1    
   180   91  212 1    
   181   91  213 1    
   182   91  214 1    
   183   92   93 2    
   184   92   94 am   BACKBONE|DICT|INTERRES
   185   94   95 1    
   186   94  215 1    
   187   95   96 1    
   188   95   97 1    
   189   95  216 1    
   190   96  217 1    
   191   96  218 1    
   192   96  219 1    
   193   97   98 2    
   194   97   99 am   BACKBONE|DICT|INTERRES
   195   99  100 1    
   196   99  220 1    
   197  100  101 1    
   198  100  102 1    
   199  100  221 1    
   200  101  222 1    
   201  101  223 1    
   202  101  224 1    
   203  102  103 2    
   204  102  104 am   BACKBONE|DICT|INTERRES
   205  104  105 1    
   206  104  225 1    
   207  105  106 1    
   208  105  107 1    
   209  105  226 1    
   210  106  227 1    
   211  106  228 1    
   212  106  229 1    
   213  107  108 2    
   214  107  109 am   BACKBONE|DICT|INTERRES
   215  109  110 1    
   216  109  230 1    
   217  110  111 1    
   218  110  112 1    
   219  110  231 1    
   220  111  232 1    
   221  111  233 1    
   222  111  234 1    
   223  112  113 2    
   224  112  114 am   BACKBONE|DICT|INTERRES
   225  114  115 1    
   226  114  235 1    
   227  115  116 1    
   228  115  117 1    
   229  115  236 1    
   230  116  237 1    
   231  116  238 1    
   232  116  239 1    
   233  117  118 2    
   234  117  119 am   BACKBONE|DICT|INTERRES
   235  119  120 1    
   236  119  240 1    
   237  120  121 1    
   238  120  124 1    
   239  120  241 1    
   240  121  122 am   BACKBONE|DICT|INTERRES
   241  121  123 2    
   242  122  242 1    
   243  122  243 1    
   244  124  125 1    
   245  124  244 1    
   246  124  245 1    
   247  125  126 1    
   248  126  246 1    
   249  126  247 1    
@<TRIPOS>SUBSTRUCTURE
     1 UNK         1 GROUP             0       ****    0 ROOT    
