@<TRIPOS>MOLECULE
3R540
247   249    1
SMALL
USER_CHARGES


@<TRIPOS>ATOM
      1 CA          6.7515  -17.2141  -44.4108 C.3       0 UNK        -0.1800 
      2 C           6.0524  -16.1708  -45.2707 C.2       0 UNK         0.5000 
      3 O           6.7266  -15.4018  -45.9530 O.2       0 UNK        -0.5000 
      4 N           4.7133  -16.1363  -45.2072 N.am      1 UNK        -0.5000 
      5 CA          3.7635  -15.2986  -45.9651 C.3       1 UNK         0.1400 
      6 C6          3.5079  -15.7552  -47.4338 C.3       23 UNK        -0.0398 
      7 S7          4.9038  -15.6580  -48.6035 S.3       23 UNK        -0.2404 
      8 C8          4.0407  -15.5148  -50.2039 C.3       23 UNK        -0.0205 
      9 C9          3.0173  -16.6203  -50.4490 C.ar      23 UNK        -0.0193 
     10 C10         1.6739  -16.2910  -50.6555 C.ar      23 UNK        -0.1150 
     11 C11         0.7285  -17.2851  -50.9225 C.ar      23 UNK        -0.0193 
     12 C12         1.1314  -18.6224  -50.9635 C.ar      23 UNK        -0.1150 
     13 C13         2.4650  -18.9712  -50.7347 C.ar      23 UNK        -0.0193 
     14 C14         3.4071  -17.9640  -50.4948 C.ar      23 UNK        -0.1150 
     15 C15         2.8769  -20.4366  -50.7374 C.3       23 UNK        -0.0205 
     16 S16         3.2734  -20.9988  -49.0536 S.3       23 UNK        -0.2404 
     17 C17         2.9987  -22.8063  -49.1505 C.3       23 UNK        -0.0398 
     18 CA          1.8157  -23.3133  -48.2825 C.3       11 UNK         0.1400 
     19 N           1.8981  -22.8371  -46.8987 N.am      11 UNK        -0.5000 
     20 C           1.0931  -23.1897  -45.8889 C.2       10 UNK         0.5000 
     21 O           0.2385  -24.0710  -45.9802 O.2       10 UNK        -0.5000 
     22 CA          1.1973  -22.3666  -44.5895 C.3       10 UNK         0.1400 
     23 CB          2.3108  -22.8933  -43.6661 C.3       10 UNK        -0.1800 
     24 N           1.3079  -20.9198  -44.8269 N.am      10 UNK        -0.5000 
     25 C           2.3320  -20.2261  -45.3464 C.2       9 UNK         0.5000 
     26 O           3.4133  -20.7229  -45.6579 O.2       9 UNK        -0.5000 
     27 CA          2.0913  -18.7284  -45.5859 C.3       9 UNK         0.1400 
     28 CB          1.1811  -18.5001  -46.8034 C.3       9 UNK        -0.1800 
     29 N           1.4978  -18.0869  -44.4190 N.am      9 UNK        -0.5000 
     30 C           2.1633  -17.7938  -43.2954 C.2       8 UNK         0.5000 
     31 O           3.3868  -17.8784  -43.1896 O.2       8 UNK        -0.5000 
     32 CA          1.3252  -17.3134  -42.0983 C.3       8 UNK         0.1400 
     33 CB          1.2734  -15.7784  -42.0596 C.3       8 UNK        -0.1800 
     34 N          -0.0363  -17.8541  -42.1320 N.am      8 UNK        -0.5000 
     35 C          -0.3570  -19.1134  -41.7968 C.2       7 UNK         0.5000 
     36 O           0.4495  -19.9267  -41.3464 O.2       7 UNK        -0.5000 
     37 CA         -1.8192  -19.5463  -42.0195 C.3       7 UNK         0.1400 
     38 CB         -2.6504  -19.3086  -40.7501 C.3       7 UNK        -0.1800 
     39 N          -2.4535  -18.8553  -43.1434 N.am      7 UNK        -0.5000 
     40 C          -2.1697  -19.0816  -44.4330 C.2       6 UNK         0.5000 
     41 O          -1.3645  -19.9293  -44.8199 O.2       6 UNK        -0.5000 
     42 CA         -2.8641  -18.1692  -45.4606 C.3       6 UNK         0.1400 
     43 CB         -4.2016  -18.7755  -45.9113 C.3       6 UNK        -0.1800 
     44 N          -3.0652  -16.7978  -44.9843 N.am      6 UNK        -0.5000 
     45 C          -2.0594  -15.9572  -44.7080 C.2       5 UNK         0.5000 
     46 O          -0.8703  -16.2826  -44.7553 O.2       5 UNK        -0.5000 
     47 CA         -2.4415  -14.5414  -44.2485 C.3       5 UNK         0.1400 
     48 CB         -2.5424  -14.4886  -42.7162 C.3       5 UNK        -0.1800 
     49 N          -1.4431  -13.5698  -44.6883 N.am      5 UNK        -0.5000 
     50 C          -1.3272  -13.0957  -45.9353 C.2       4 UNK         0.5000 
     51 O          -2.1173  -13.3790  -46.8372 O.2       4 UNK        -0.5000 
     52 CA         -0.1246  -12.1762  -46.2500 C.3       4 UNK         0.1400 
     53 CB         -0.5664  -10.8613  -46.9242 C.3       4 UNK        -0.1800 
     54 N           0.7770  -11.9142  -45.1177 N.am      4 UNK        -0.5000 
     55 C           0.5336  -11.2142  -43.9974 C.2       3 UNK         0.5000 
     56 O          -0.5393  -10.6611  -43.7575 O.2       3 UNK        -0.5000 
     57 CA          1.6552  -11.1570  -42.9386 C.3       3 UNK         0.1400 
     58 CB          1.2224  -11.8934  -41.6602 C.3       3 UNK        -0.1800 
     59 N           2.9167  -11.7376  -43.4055 N.am      3 UNK        -0.5000 
     60 C           3.8399  -11.0825  -44.1221 C.2       2 UNK         0.5000 
     61 O           3.7517   -9.8936  -44.4301 O.2       2 UNK        -0.5000 
     62 CA          5.0549  -11.9043  -44.5953 C.3       2 UNK         0.1400 
     63 CB          6.1960  -11.8181  -43.5706 C.3       2 UNK        -0.1800 
     64 N           4.7515  -13.3159  -44.8541 N.am      2 UNK        -0.5000 
     65 C           3.9317  -13.7676  -45.8143 C.2       1 UNK         0.5000 
     66 O           3.2644  -13.0165  -46.5265 O.2       1 UNK        -0.5000 
     67 C           0.4490  -22.9882  -48.9223 C.2       11 UNK         0.5000 
     68 O          -0.1064  -23.8318  -49.6240 O.2       11 UNK        -0.5000 
     69 N          -0.0933  -21.7979  -48.6216 N.am      12 UNK        -0.5000 
     70 CA         -1.4293  -21.3765  -49.0377 C.3       12 UNK         0.1400 
     71 CB         -1.6166  -19.8822  -48.7605 C.3       12 UNK        -0.1800 
     72 C          -2.5297  -22.1793  -48.3274 C.2       12 UNK         0.5000 
     73 O          -3.4736  -22.6106  -48.9837 O.2       12 UNK        -0.5000 
     74 N          -2.3840  -22.3908  -47.0100 N.am      13 UNK        -0.5000 
     75 CA         -3.3140  -23.1821  -46.1997 C.3       13 UNK         0.1400 
     76 CB         -2.9169  -23.1224  -44.7172 C.3       13 UNK        -0.1800 
     77 C          -3.4274  -24.6366  -46.6914 C.2       13 UNK         0.5000 
     78 O          -4.5418  -25.1404  -46.8451 O.2       13 UNK        -0.5000 
     79 N          -2.2717  -25.2457  -46.9962 N.am      14 UNK        -0.5000 
     80 CA         -2.1524  -26.5643  -47.6197 C.3       14 UNK         0.1400 
     81 CB         -0.6719  -26.9702  -47.6652 C.3       14 UNK        -0.1800 
     82 C          -2.7783  -26.6258  -49.0272 C.2       14 UNK         0.5000 
     83 O          -3.4014  -27.6310  -49.3710 O.2       14 UNK        -0.5000 
     84 N          -2.6556  -25.5363  -49.7971 N.am      15 UNK        -0.5000 
     85 CA         -3.2649  -25.3334  -51.1134 C.3       15 UNK         0.1400 
     86 CB         -2.4482  -24.2807  -51.8813 C.3       15 UNK        -0.1800 
     87 C          -4.7649  -24.9712  -51.0218 C.2       15 UNK         0.5000 
     88 O          -5.2060  -23.9857  -51.6192 O.2       15 UNK        -0.5000 
     89 N          -5.5205  -25.7982  -50.2857 N.am      16 UNK        -0.5000 
     90 CA         -6.9743  -25.7717  -50.1103 C.3       16 UNK         0.1400 
     91 CB         -7.6667  -26.1834  -51.4273 C.3       16 UNK        -0.1800 
     92 C          -7.5003  -24.4353  -49.5483 C.2       16 UNK         0.5000 
     93 O          -8.4510  -23.8745  -50.0937 O.2       16 UNK        -0.5000 
     94 N          -6.8630  -23.9356  -48.4774 N.am      17 UNK        -0.5000 
     95 CA         -7.1679  -22.6579  -47.8154 C.3       17 UNK         0.1400 
     96 CB         -8.5298  -22.7234  -47.0930 C.3       17 UNK        -0.1800 
     97 C          -7.0460  -21.4575  -48.7800 C.2       17 UNK         0.5000 
     98 O          -7.9420  -20.6161  -48.8591 O.2       17 UNK        -0.5000 
     99 N          -5.9320  -21.4463  -49.5206 N.am      18 UNK        -0.5000 
    100 CA        -5.5085  -20.5107  -50.5611 C.3       18 UNK         0.1400 
    101 CB        -5.4635  -19.0590  -50.0443 C.3       18 UNK        -0.1800 
    102 C         -6.2704  -20.6258  -51.8936 C.2       18 UNK         0.5000 
    103 O         -5.8926  -19.9319  -52.8381 O.2       18 UNK        -0.5000 
    104 N         -7.2835  -21.4991  -51.9949 N.am      19 UNK        -0.5000 
    105 CA        -8.1054  -21.6694  -53.1981 C.3       19 UNK         0.1400 
    106 CB        -9.3092  -22.5690  -52.8854 C.3       19 UNK        -0.1800 
    107 C         -7.3308  -22.2116  -54.4147 C.2       19 UNK         0.5000 
    108 O         -7.7051  -21.9039  -55.5470 O.2       19 UNK        -0.5000 
    109 N         -6.2606  -22.9781  -54.1668 N.am      20 UNK        -0.5000 
    110 CA        -5.3394  -23.4802  -55.1875 C.3       20 UNK         0.1400 
    111 CB        -5.1075  -24.9840  -54.9553 C.3       20 UNK        -0.1800 
    112 C         -4.0171  -22.6828  -55.2155 C.2       20 UNK         0.5000 
    113 O         -3.0583  -23.1346  -55.8436 O.2       20 UNK        -0.5000 
    114 N         -3.9769  -21.5216  -54.5477 N.am      21 UNK        -0.5000 
    115 CA        -2.8400  -20.6074  -54.5047 C.3       21 UNK         0.1400 
    116 CB        -2.0973  -20.7568  -53.1595 C.3       21 UNK        -0.1800 
    117 C         -3.3352  -19.1821  -54.8087 C.2       21 UNK         0.5000 
    118 O         -3.7935  -18.9341  -55.9253 O.2       21 UNK        -0.5000 
    119 N         -3.2101  -18.2698  -53.8377 N.am      22 UNK        -0.5000 
    120 CA        -3.4836  -16.8298  -53.9813 C.3       22 UNK         0.1400 
    121 C         -4.9851  -16.4294  -54.0863 C.2       22 UNK         0.5000 
    122 N         -5.9431  -17.3083  -53.8261 N.am      22 UNK        -0.7600 
    123 O         -5.2888  -15.2876  -54.4216 O.2       22 UNK        -0.5000 
    124 C124       -2.7719  -16.0011  -52.8799 C.3       23 UNK        -0.0398 
    125 S125       -0.9651  -16.2697  -52.8501 S.3       23 UNK        -0.2404 
    126 C126       -0.7257  -16.9116  -51.1653 C.3       23 UNK        -0.0205 
    127 H127        6.0407  -17.8581  -43.8927 H         1 UNK         0.0600 
    128 H128        7.3776  -16.7269  -43.6634 H         1 UNK         0.0600 
    129 H129        7.3877  -17.8451  -45.0315 H         1 UNK         0.0600 
    130 H130        4.2721  -16.7804  -44.5562 H         1 UNK         0.3000 
    131 H131        2.8187  -15.4824  -45.4510 H         1 UNK         0.0600 
    132 H132        3.1970  -16.7954  -47.4430 H         1 UNK         0.0800 
    133 H133        2.6625  -15.2050  -47.8507 H         1 UNK         0.0800 
    134 H134        4.7811  -15.5377  -51.0043 H         1 UNK         0.0800 
    135 H135        3.5680  -14.5327  -50.2550 H         1 UNK         0.0800 
    136 H136        1.3614  -15.2565  -50.6280 H         1 UNK         0.1150 
    137 H137        0.4038  -19.3953  -51.1668 H         1 UNK         0.1150 
    138 H138        4.4418  -18.2278  -50.3262 H         1 UNK         0.1150 
    139 H139        2.0766  -21.0521  -51.1513 H         1 UNK         0.0800 
    140 H140        3.7453  -20.5772  -51.3824 H         1 UNK         0.0800 
    141 H141        3.9164  -23.2867  -48.8091 H         1 UNK         0.0800 
    142 H142        2.8819  -23.1175  -50.1902 H         1 UNK         0.0800 
    143 H143        1.8850  -24.4025  -48.2427 H         1 UNK         0.0600 
    144 H144        2.5817  -22.1072  -46.7170 H         1 UNK         0.3000 
    145 H145        0.2524  -22.4967  -44.0602 H         1 UNK         0.0600 
    146 H146        2.3586  -22.3171  -42.7418 H         1 UNK         0.0600 
    147 H147        2.1254  -23.9328  -43.3931 H         1 UNK         0.0600 
    148 H148        3.2923  -22.8539  -44.1387 H         1 UNK         0.0600 
    149 H149        0.4399  -20.4132  -44.6695 H         1 UNK         0.3000 
    150 H150        3.0618  -18.2752  -45.7837 H         1 UNK         0.0600 
    151 H151        0.2301  -19.0147  -46.6928 H         1 UNK         0.0600 
    152 H152        1.6487  -18.8625  -47.7188 H         1 UNK         0.0600 
    153 H153        0.9620  -17.4418  -46.9464 H         1 UNK         0.0600 
    154 H154        0.5065  -17.8838  -44.4584 H         1 UNK         0.3000 
    155 H155        1.8178  -17.6590  -41.1869 H         1 UNK         0.0600 
    156 H156        0.8271  -15.3618  -42.9624 H         1 UNK         0.0600 
    157 H157        2.2762  -15.3591  -41.9694 H         1 UNK         0.0600 
    158 H158        0.6974  -15.4261  -41.2039 H         1 UNK         0.0600 
    159 H159       -0.7488  -17.2605  -42.5295 H         1 UNK         0.3000 
    160 H160       -1.8183  -20.6179  -42.2318 H         1 UNK         0.0600 
    161 H161       -3.6694  -19.6766  -40.8716 H         1 UNK         0.0600 
    162 H162       -2.2172  -19.8311  -39.8962 H         1 UNK         0.0600 
    163 H163       -2.7032  -18.2494  -40.4948 H         1 UNK         0.0600 
    164 H164       -3.1319  -18.1430  -42.9174 H         1 UNK         0.3000 
    165 H165       -2.2095  -18.0974  -46.3287 H         1 UNK         0.0600 
    166 H166       -4.6590  -18.1786  -46.7004 H         1 UNK         0.0600 
    167 H167       -4.0614  -19.7824  -46.3078 H         1 UNK         0.0600 
    168 H168       -4.9121  -18.8432  -45.0866 H         1 UNK         0.0600 
    169 H169       -4.0193  -16.4744  -44.9115 H         1 UNK         0.3000 
    170 H170       -3.4103  -14.2746  -44.6759 H         1 UNK         0.0600 
    171 H171       -3.2966  -15.1850  -42.3478 H         1 UNK         0.0600 
    172 H172       -1.5967  -14.7448  -42.2377 H         1 UNK         0.0600 
    173 H173       -2.8284  -13.4930  -42.3760 H         1 UNK         0.0600 
    174 H174       -0.7424  -13.3039  -44.0149 H         1 UNK         0.3000 
    175 H175        0.4769  -12.7240  -46.9768 H         1 UNK         0.0600 
    176 H176        0.2923  -10.2355  -47.1675 H         1 UNK         0.0600 
    177 H177       -1.0960  -11.0592  -47.8567 H         1 UNK         0.0600 
    178 H178       -1.2364  -10.2820  -46.2887 H         1 UNK         0.0600 
    179 H179        1.7075  -12.2962  -45.2351 H         1 UNK         0.3000 
    180 H180        1.8136  -10.1063  -42.6866 H         1 UNK         0.0600 
    181 H181        1.0076  -12.9438  -41.8533 H         1 UNK         0.0600 
    182 H182        0.3208  -11.4482  -41.2373 H         1 UNK         0.0600 
    183 H183        1.9961  -11.8432  -40.8938 H         1 UNK         0.0600 
    184 H184        3.0812  -12.7092  -43.1874 H         1 UNK         0.3000 
    185 H185        5.4032  -11.4633  -45.5315 H         1 UNK         0.0600 
    186 H186        6.4679  -10.7800  -43.3745 H         1 UNK         0.0600 
    187 H187        5.9174  -12.2705  -42.6180 H         1 UNK         0.0600 
    188 H188        7.0910  -12.3238  -43.9340 H         1 UNK         0.0600 
    189 H189        5.2719  -13.9967  -44.3203 H         1 UNK         0.3000 
    190 H190        0.4368  -21.1611  -48.0469 H         1 UNK         0.3000 
    191 H191       -1.5163  -21.5389  -50.1136 H         1 UNK         0.0600 
    192 H192       -1.7129  -19.7007  -47.6943 H         1 UNK         0.0600 
    193 H193       -2.5191  -19.5053  -49.2414 H         1 UNK         0.0600 
    194 H194       -0.7781  -19.2912  -49.1207 H         1 UNK         0.0600 
    195 H195       -1.5822  -22.0048  -46.5344 H         1 UNK         0.3000 
    196 H196       -4.2971  -22.7216  -46.2940 H         1 UNK         0.0600 
    197 H197       -3.6233  -23.6838  -44.1045 H         1 UNK         0.0600 
    198 H198       -2.9163  -22.0976  -44.3481 H         1 UNK         0.0600 
    199 H199       -1.9286  -23.5452  -44.5418 H         1 UNK         0.0600 
    200 H200       -1.4024  -24.7580  -46.7980 H         1 UNK         0.3000 
    201 H201       -2.6845  -27.2791  -46.9888 H         1 UNK         0.0600 
    202 H202       -0.2393  -26.9956  -46.6647 H         1 UNK         0.0600 
    203 H203       -0.0828  -26.2760  -48.2653 H         1 UNK         0.0600 
    204 H204       -0.5516  -27.9641  -48.0980 H         1 UNK         0.0600 
    205 H205       -2.1238  -24.7535  -49.4376 H         1 UNK         0.3000 
    206 H206       -3.1991  -26.2688  -51.6726 H         1 UNK         0.0600 
    207 H207       -1.3992  -24.5676  -51.9522 H         1 UNK         0.0600 
    208 H208       -2.8152  -24.1567  -52.8989 H         1 UNK         0.0600 
    209 H209       -2.4982  -23.3076  -51.3953 H         1 UNK         0.0600 
    210 H210       -5.0366  -26.5646  -49.8293 H         1 UNK         0.3000 
    211 H211       -7.2099  -26.5294  -49.3619 H         1 UNK         0.0600 
    212 H212       -7.4732  -25.4680  -52.2273 H         1 UNK         0.0600 
    213 H213       -8.7479  -26.2496  -51.3000 H         1 UNK         0.0600 
    214 H214       -7.3210  -27.1605  -51.7643 H         1 UNK         0.0600 
    215 H215       -6.0750  -24.4522  -48.0994 H         1 UNK         0.3000 
    216 H216       -6.4064  -22.5129  -47.0508 H         1 UNK         0.0600 
    217 H217       -8.7038  -21.8195  -46.5082 H         1 UNK         0.0600 
    218 H218       -8.5697  -23.5674  -46.4045 H         1 UNK         0.0600 
    219 H219       -9.3595  -22.8224  -47.7935 H         1 UNK         0.0600 
    220 H220       -5.2566  -22.1912  -49.3621 H         1 UNK         0.3000 
    221 H221       -4.4840  -20.8015  -50.7901 H         1 UNK         0.0600 
    222 H222       -6.4629  -18.6561  -49.8795 H         1 UNK         0.0600 
    223 H223       -4.9148  -18.9896  -49.1056 H         1 UNK         0.0600 
    224 H224       -4.9658  -18.4046  -50.7611 H         1 UNK         0.0600 
    225 H225       -7.5172  -22.0764  -51.1967 H         1 UNK         0.3000 
    226 H226       -8.4875  -20.6833  -53.4704 H         1 UNK         0.0600 
    227 H227       -9.9952  -22.6089  -53.7323 H         1 UNK         0.0600 
    228 H228       -9.0003  -23.5916  -52.6696 H         1 UNK         0.0600 
    229 H229       -9.8709  -22.1979  -52.0279 H         1 UNK         0.0600 
    230 H230       -6.0121  -23.1875  -53.2021 H         1 UNK         0.3000 
    231 H231       -5.7814  -23.3720  -56.1797 H         1 UNK         0.0600 
    232 H232       -6.0508  -25.5303  -54.9548 H         1 UNK         0.0600 
    233 H233       -4.6117  -25.1784  -54.0064 H         1 UNK         0.0600 
    234 H234       -4.4870  -25.4130  -55.7428 H         1 UNK         0.0600 
    235 H235       -4.8219  -21.1851  -54.0994 H         1 UNK         0.3000 
    236 H236       -2.1329  -20.8479  -55.3011 H         1 UNK         0.0600 
    237 H237       -1.2625  -20.0584  -53.0863 H         1 UNK         0.0600 
    238 H238       -2.7542  -20.5906  -52.3069 H         1 UNK         0.0600 
    239 H239       -1.6759  -21.7567  -53.0641 H         1 UNK         0.0600 
    240 H240       -2.8330  -18.5603  -52.9498 H         1 UNK         0.3000 
    241 H241       -3.0458  -16.5268  -54.9346 H         1 UNK         0.0600 
    242 H242       -5.7340  -18.2623  -53.5396 H         1 UNK         0.3800 
    243 H243       -6.9044  -17.0213  -53.9102 H         1 UNK         0.3800 
    244 H244       -2.9353  -14.9339  -53.0402 H         1 UNK         0.0800 
    245 H245       -3.1993  -16.2270  -51.9015 H         1 UNK         0.0800 
    246 H246       -1.0369  -16.1585  -50.4395 H         1 UNK         0.0800 
    247 H247       -1.3723  -17.7766  -51.0132 H         1 UNK         0.0800 
@<TRIPOS>BOND
     1    1    2 1    
     2    1  127 1    
     3    1  128 1    
     4    1  129 1    
     5    2    3 2    
     6    2    4 am   BACKBONE|DICT|INTERRES
     7    4    5 1    
     8    4  130 1    
     9    5    6 1    
    10    5   65 1    
    11    5  131 1    
    12    6    7 1    
    13    6  132 1    
    14    6  133 1    
    15    7    8 1    
    16    8    9 1    
    17    8  134 1    
    18    8  135 1    
    19    9   10 ar   
    20    9   14 ar   
    21   10   11 ar   
    22   10  136 1    
    23   11   12 ar   
    24   11  126 1    
    25   12   13 ar   
    26   12  137 1    
    27   13   14 ar   
    28   13   15 1    
    29   14  138 1    
    30   15   16 1    
    31   15  139 1    
    32   15  140 1    
    33   16   17 1    
    34   17   18 1    
    35   17  141 1    
    36   17  142 1    
    37   18   19 1    
    38   18   67 1    
    39   18  143 1    
    40   19   20 am   BACKBONE|DICT|INTERRES
    41   19  144 1    
    42   20   21 2    
    43   20   22 1    
    44   22   23 1    
    45   22   24 1    
    46   22  145 1    
    47   23  146 1    
    48   23  147 1    
    49   23  148 1    
    50   24   25 am   BACKBONE|DICT|INTERRES
    51   24  149 1    
    52   25   26 2    
    53   25   27 1    
    54   27   28 1    
    55   27   29 1    
    56   27  150 1    
    57   28  151 1    
    58   28  152 1    
    59   28  153 1    
    60   29   30 am   BACKBONE|DICT|INTERRES
    61   29  154 1    
    62   30   31 2    
    63   30   32 1    
    64   32   33 1    
    65   32   34 1    
    66   32  155 1    
    67   33  156 1    
    68   33  157 1    
    69   33  158 1    
    70   34   35 am   BACKBONE|DICT|INTERRES
    71   34  159 1    
    72   35   36 2    
    73   35   37 1    
    74   37   38 1    
    75   37   39 1    
    76   37  160 1    
    77   38  161 1    
    78   38  162 1    
    79   38  163 1    
    80   39   40 am   BACKBONE|DICT|INTERRES
    81   39  164 1    
    82   40   41 2    
    83   40   42 1    
    84   42   43 1    
    85   42   44 1    
    86   42  165 1    
    87   43  166 1    
    88   43  167 1    
    89   43  168 1    
    90   44   45 am   BACKBONE|DICT|INTERRES
    91   44  169 1    
    92   45   46 2    
    93   45   47 1    
    94   47   48 1    
    95   47   49 1    
    96   47  170 1    
    97   48  171 1    
    98   48  172 1    
    99   48  173 1    
   100   49   50 am   BACKBONE|DICT|INTERRES
   101   49  174 1    
   102   50   51 2    
   103   50   52 1    
   104   52   53 1    
   105   52   54 1    
   106   52  175 1    
   107   53  176 1    
   108   53  177 1    
   109   53  178 1    
   110   54   55 am   BACKBONE|DICT|INTERRES
   111   54  179 1    
   112   55   56 2    
   113   55   57 1    
   114   57   58 1    
   115   57   59 1    
   116   57  180 1    
   117   58  181 1    
   118   58  182 1    
   119   58  183 1    
   120   59   60 am   BACKBONE|DICT|INTERRES
   121   59  184 1    
   122   60   61 2    
   123   60   62 1    
   124   62   63 1    
   125   62   64 1    
   126   62  185 1    
   127   63  186 1    
   128   63  187 1    
   129   63  188 1    
   130   64   65 am   BACKBONE|DICT|INTERRES
   131   64  189 1    
   132   65   66 2    
   133   67   68 2    
   134   67   69 am   BACKBONE|DICT|INTERRES
   135   69   70 1    
   136   69  190 1    
   137   70   71 1    
   138   70   72 1    
   139   70  191 1    
   140   71  192 1    
   141   71  193 1    
   142   71  194 1    
   143   72   73 2    
   144   72   74 am   BACKBONE|DICT|INTERRES
   145   74   75 1    
   146   74  195 1    
   147   75   76 1    
   148   75   77 1    
   149   75  196 1    
   150   76  197 1    
   151   76  198 1    
   152   76  199 1    
   153   77   78 2    
   154   77   79 am   BACKBONE|DICT|INTERRES
   155   79   80 1    
   156   79  200 1    
   157   80   81 1    
   158   80   82 1    
   159   80  201 1    
   160   81  202 1    
   161   81  203 1    
   162   81  204 1    
   163   82   83 2    
   164   82   84 am   BACKBONE|DICT|INTERRES
   165   84   85 1    
   166   84  205 1    
   167   85   86 1    
   168   85   87 1    
   169   85  206 1    
   170   86  207 1    
   171   86  208 1    
   172   86  209 1    
   173   87   88 2    
   174   87   89 am   BACKBONE|DICT|INTERRES
   175   89   90 1    
   176   89  210 1    
   177   90   91 1    
   178   90   92 1    
   179   90  211 1    
   180   91  212 1    
   181   91  213 1    
   182   91  214 1    
   183   92   93 2    
   184   92   94 am   BACKBONE|DICT|INTERRES
   185   94   95 1    
   186   94  215 1    
   187   95   96 1    
   188   95   97 1    
   189   95  216 1    
   190   96  217 1    
   191   96  218 1    
   192   96  219 1    
   193   97   98 2    
   194   97   99 am   BACKBONE|DICT|INTERRES
   195   99  100 1    
   196   99  220 1    
   197  100  101 1    
   198  100  102 1    
   199  100  221 1    
   200  101  222 1    
   201  101  223 1    
   202  101  224 1    
   203  102  103 2    
   204  102  104 am   BACKBONE|DICT|INTERRES
   205  104  105 1    
   206  104  225 1    
   207  105  106 1    
   208  105  107 1    
   209  105  226 1    
   210  106  227 1    
   211  106  228 1    
   212  106  229 1    
   213  107  108 2    
   214  107  109 am   BACKBONE|DICT|INTERRES
   215  109  110 1    
   216  109  230 1    
   217  110  111 1    
   218  110  112 1    
   219  110  231 1    
   220  111  232 1    
   221  111  233 1    
   222  111  234 1    
   223  112  113 2    
   224  112  114 am   BACKBONE|DICT|INTERRES
   225  114  115 1    
   226  114  235 1    
   227  115  116 1    
   228  115  117 1    
   229  115  236 1    
   230  116  237 1    
   231  116  238 1    
   232  116  239 1    
   233  117  118 2    
   234  117  119 am   BACKBONE|DICT|INTERRES
   235  119  120 1    
   236  119  240 1    
   237  120  121 1    
   238  120  124 1    
   239  120  241 1    
   240  121  122 am   BACKBONE|DICT|INTERRES
   241  121  123 2    
   242  122  242 1    
   243  122  243 1    
   244  124  125 1    
   245  124  244 1    
   246  124  245 1    
   247  125  126 1    
   248  126  246 1    
   249  126  247 1    
@<TRIPOS>SUBSTRUCTURE
     1 UNK         1 GROUP             0       ****    0 ROOT    
