@<TRIPOS>MOLECULE
3R540
247   249    1
SMALL
USER_CHARGES


@<TRIPOS>ATOM
      1 CA          3.7287  -10.4473  -48.6144 C.3       0 UNK        -0.1800 
      2 C           3.1060  -11.7716  -48.1967 C.2       0 UNK         0.5000 
      3 O           3.1855  -12.1458  -47.0260 O.2       0 UNK        -0.5000 
      4 N           2.4742  -12.4788  -49.1424 N.am      1 UNK        -0.5000 
      5 CA          1.8060  -13.7712  -48.9445 C.3       1 UNK         0.1400 
      6 C6          1.7821  -14.5944  -50.2604 C.3       23 UNK        -0.0398 
      7 S7          1.6531  -16.3930  -49.9655 S.3       23 UNK        -0.2404 
      8 C8          3.0957  -17.0080  -50.8887 C.3       23 UNK        -0.0205 
      9 C9          3.1370  -18.5276  -50.8946 C.ar      23 UNK        -0.0193 
     10 C10         2.3945  -19.2453  -51.8365 C.ar      23 UNK        -0.1150 
     11 C11         2.4107  -20.6430  -51.8390 C.ar      23 UNK        -0.0193 
     12 C12         3.1813  -21.3233  -50.8923 C.ar      23 UNK        -0.1150 
     13 C13         3.9256  -20.6168  -49.9418 C.ar      23 UNK        -0.0193 
     14 C14         3.9075  -19.2183  -49.9551 C.ar      23 UNK        -0.1150 
     15 C15         4.7257  -21.3695  -48.8857 C.3       23 UNK        -0.0205 
     16 S16         4.1913  -20.9878  -47.1828 S.3       23 UNK        -0.2404 
     17 C17         2.4145  -21.3996  -47.2239 C.3       23 UNK        -0.0398 
     18 CA          2.0907  -22.7697  -46.5850 C.3       11 UNK         0.1400 
     19 N           2.3885  -22.7790  -45.1548 N.am      11 UNK        -0.5000 
     20 C           2.6536  -23.8615  -44.4169 C.2       10 UNK         0.5000 
     21 O           2.7457  -24.9981  -44.8852 O.2       10 UNK        -0.5000 
     22 CA          2.8372  -23.6201  -42.9017 C.3       10 UNK         0.1400 
     23 CB          3.5206  -24.7951  -42.1716 C.3       10 UNK        -0.1800 
     24 N           3.5053  -22.3479  -42.6047 N.am      10 UNK        -0.5000 
     25 C           4.7550  -21.9779  -42.9226 C.2       9 UNK         0.5000 
     26 O           5.5781  -22.7249  -43.4531 O.2       9 UNK        -0.5000 
     27 CA          5.1612  -20.5211  -42.6096 C.3       9 UNK         0.1400 
     28 CB          5.3203  -19.7159  -43.9080 C.3       9 UNK        -0.1800 
     29 N           4.2148  -19.8163  -41.7421 N.am      9 UNK        -0.5000 
     30 C           4.1150  -19.9807  -40.4166 C.2       8 UNK         0.5000 
     31 O           4.8492  -20.7215  -39.7620 O.2       8 UNK        -0.5000 
     32 CA          2.9827  -19.2103  -39.7090 C.3       8 UNK         0.1400 
     33 CB          3.4250  -17.7795  -39.3674 C.3       8 UNK        -0.1800 
     34 N           1.7467  -19.1651  -40.4943 N.am      8 UNK        -0.5000 
     35 C           1.0019  -20.2378  -40.7998 C.2       7 UNK         0.5000 
     36 O           1.2578  -21.3802  -40.4191 O.2       7 UNK        -0.5000 
     37 CA         -0.2043  -20.0066  -41.7266 C.3       7 UNK         0.1400 
     38 CB         -1.4065  -19.4717  -40.9346 C.3       7 UNK        -0.1800 
     39 N           0.1035  -19.1053  -42.8376 N.am      7 UNK        -0.5000 
     40 C           0.9939  -19.3744  -43.8030 C.2       6 UNK         0.5000 
     41 O           1.6323  -20.4218  -43.8683 O.2       6 UNK        -0.5000 
     42 CA          1.2551  -18.2787  -44.8484 C.3       6 UNK         0.1400 
     43 CB          0.1506  -18.2644  -45.9141 C.3       6 UNK        -0.1800 
     44 N           1.3783  -16.9533  -44.2512 N.am      6 UNK        -0.5000 
     45 C           2.3078  -16.5942  -43.3560 C.2       5 UNK         0.5000 
     46 O           3.2122  -17.3332  -42.9685 O.2       5 UNK        -0.5000 
     47 CA          2.1576  -15.1909  -42.7471 C.3       5 UNK         0.1400 
     48 CB          2.6863  -14.1117  -43.7051 C.3       5 UNK        -0.1800 
     49 N           0.7663  -14.9036  -42.3954 N.am      5 UNK        -0.5000 
     50 C           0.0915  -15.5183  -41.4132 C.2       4 UNK         0.5000 
     51 O           0.5845  -16.3695  -40.6724 O.2       4 UNK        -0.5000 
     52 CA         -1.3936  -15.1413  -41.2584 C.3       4 UNK         0.1400 
     53 CB         -1.5427  -13.8463  -40.4461 C.3       4 UNK        -0.1800 
     54 N          -2.0728  -14.9880  -42.5467 N.am      4 UNK        -0.5000 
     55 C          -2.3282  -16.0005  -43.3873 C.2       3 UNK         0.5000 
     56 O          -2.0404  -17.1720  -43.1510 O.2       3 UNK        -0.5000 
     57 CA         -2.9642  -15.6377  -44.7428 C.3       3 UNK         0.1400 
     58 CB         -4.4928  -15.5589  -44.6217 C.3       3 UNK        -0.1800 
     59 N          -2.4489  -14.3912  -45.3206 N.am      3 UNK        -0.5000 
     60 C          -1.1641  -14.1867  -45.6393 C.2       2 UNK         0.5000 
     61 O          -0.2703  -15.0039  -45.4126 O.2       2 UNK        -0.5000 
     62 CA         -0.8038  -12.8312  -46.2700 C.3       2 UNK         0.1400 
     63 CB         -0.5116  -11.7946  -45.1744 C.3       2 UNK        -0.1800 
     64 N           0.3776  -12.9593  -47.1214 N.am      2 UNK        -0.5000 
     65 C           0.4076  -13.5832  -48.3053 C.2       1 UNK         0.5000 
     66 O          -0.6083  -13.9693  -48.8870 O.2       1 UNK        -0.5000 
     67 C           0.6043  -23.1010  -46.8177 C.2       11 UNK         0.5000 
     68 O          -0.2443  -22.7762  -45.9827 O.2       11 UNK        -0.5000 
     69 N           0.3066  -23.6774  -47.9904 N.am      12 UNK        -0.5000 
     70 CA         -1.0509  -24.0007  -48.4408 C.3       12 UNK         0.1400 
     71 CB         -0.9674  -24.8844  -49.6943 C.3       12 UNK        -0.1800 
     72 C          -1.9310  -22.7649  -48.7149 C.2       12 UNK         0.5000 
     73 O          -3.1555  -22.8847  -48.6831 O.2       12 UNK        -0.5000 
     74 N          -1.3055  -21.6018  -48.9512 N.am      13 UNK        -0.5000 
     75 CA         -1.9479  -20.3212  -49.2649 C.3       13 UNK         0.1400 
     76 CB         -0.8657  -19.2504  -49.4798 C.3       13 UNK        -0.1800 
     77 C          -2.9716  -19.8479  -48.2163 C.2       13 UNK         0.5000 
     78 O          -3.9505  -19.1975  -48.5800 O.2       13 UNK        -0.5000 
     79 N          -2.7566  -20.2183  -46.9459 N.am      14 UNK        -0.5000 
     80 CA         -3.6700  -19.9416  -45.8367 C.3       14 UNK         0.1400 
     81 CB         -2.9646  -20.2791  -44.5161 C.3       14 UNK        -0.1800 
     82 C          -5.0048  -20.7061  -45.9380 C.2       14 UNK         0.5000 
     83 O          -6.0194  -20.2114  -45.4458 O.2       14 UNK        -0.5000 
     84 N          -4.9805  -21.8901  -46.5643 N.am      15 UNK        -0.5000 
     85 CA         -6.1499  -22.7382  -46.7835 C.3       15 UNK         0.1400 
     86 CB         -5.7439  -24.2107  -46.6112 C.3       15 UNK        -0.1800 
     87 C          -6.7560  -22.5030  -48.1761 C.2       15 UNK         0.5000 
     88 O          -7.9798  -22.4459  -48.3004 O.2       15 UNK        -0.5000 
     89 N          -5.8946  -22.3799  -49.1959 N.am      16 UNK        -0.5000 
     90 CA         -6.2796  -22.1878  -50.5941 C.3       16 UNK         0.1400 
     91 CB         -5.0547  -22.4186  -51.4932 C.3       16 UNK        -0.1800 
     92 C          -6.9018  -20.8068  -50.8642 C.2       16 UNK         0.5000 
     93 O          -7.8778  -20.7192  -51.6103 O.2       16 UNK        -0.5000 
     94 N          -6.3392  -19.7601  -50.2407 N.am      17 UNK        -0.5000 
     95 CA         -6.6988  -18.3509  -50.4073 C.3       17 UNK         0.1400 
     96 CB         -8.0735  -18.0644  -49.7613 C.3       17 UNK        -0.1800 
     97 C          -6.5764  -17.9076  -51.8825 C.2       17 UNK         0.5000 
     98 O          -5.5648  -18.2059  -52.5194 O.2       17 UNK        -0.5000 
     99 N          -7.5919  -17.2107  -52.4050 N.am      18 UNK        -0.5000 
    100 CA        -7.6431  -16.7299  -53.7866 C.3       18 UNK         0.1400 
    101 CB        -8.6024  -15.5298  -53.8466 C.3       18 UNK        -0.1800 
    102 C         -8.0650  -17.8086  -54.8068 C.2       18 UNK         0.5000 
    103 O         -7.9503  -17.5654  -56.0093 O.2       18 UNK        -0.5000 
    104 N         -8.5778  -18.9535  -54.3356 N.am      19 UNK        -0.5000 
    105 CA        -9.0618  -20.0430  -55.1808 C.3       19 UNK         0.1400 
    106 CB       -10.0838  -20.8769  -54.3923 C.3       19 UNK        -0.1800 
    107 C         -7.9091  -20.9312  -55.6804 C.2       19 UNK         0.5000 
    108 O         -6.9663  -21.1941  -54.9301 O.2       19 UNK        -0.5000 
    109 N         -8.0476  -21.4119  -56.9253 N.am      20 UNK        -0.5000 
    110 CA        -7.1517  -22.3394  -57.6272 C.3       20 UNK         0.1400 
    111 CB        -7.2771  -23.7522  -57.0116 C.3       20 UNK        -0.1800 
    112 C         -5.6944  -21.8283  -57.7143 C.2       20 UNK         0.5000 
    113 O         -5.4720  -20.6178  -57.7998 O.2       20 UNK        -0.5000 
    114 N         -4.7274  -22.7533  -57.7071 N.am      21 UNK        -0.5000 
    115 CA        -3.3081  -22.4589  -57.5287 C.3       21 UNK         0.1400 
    116 CB        -2.4805  -23.6275  -58.0857 C.3       21 UNK        -0.1800 
    117 C         -3.0096  -22.2480  -56.0341 C.2       21 UNK         0.5000 
    118 O         -3.6374  -22.8934  -55.1919 O.2       21 UNK        -0.5000 
    119 N         -2.0537  -21.3617  -55.7348 N.am      22 UNK        -0.5000 
    120 CA        -1.6007  -20.9796  -54.3834 C.3       22 UNK         0.1400 
    121 C         -2.5981  -20.0903  -53.5733 C.2       22 UNK         0.5000 
    122 N         -3.8869  -20.0612  -53.8823 N.am      22 UNK        -0.7600 
    123 O         -2.1807  -19.3504  -52.6891 O.2       22 UNK        -0.5000 
    124 C124       -1.0595  -22.2031  -53.5840 C.3       23 UNK        -0.0398 
    125 S125       -0.0570  -21.7901  -52.1207 S.3       23 UNK        -0.2404 
    126 C126        1.5666  -21.4139  -52.8409 C.3       23 UNK        -0.0205 
    127 H127        3.5797  -10.2454  -49.6753 H         1 UNK         0.0600 
    128 H128        4.8007  -10.4588  -48.4176 H         1 UNK         0.0600 
    129 H129        3.2854   -9.6293  -48.0466 H         1 UNK         0.0600 
    130 H130        2.4110  -12.0962  -50.0753 H         1 UNK         0.3000 
    131 H131        2.4012  -14.3350  -48.2222 H         1 UNK         0.0600 
    132 H132        0.9753  -14.2770  -50.9232 H         1 UNK         0.0800 
    133 H133        2.7014  -14.4116  -50.8185 H         1 UNK         0.0800 
    134 H134        4.0087  -16.6049  -50.4476 H         1 UNK         0.0800 
    135 H135        3.0563  -16.6397  -51.9151 H         1 UNK         0.0800 
    136 H136        1.7855  -18.7144  -52.5550 H         1 UNK         0.1150 
    137 H137        3.1824  -22.4043  -50.8851 H         1 UNK         0.1150 
    138 H138        4.4755  -18.6695  -49.2170 H         1 UNK         0.1150 
    139 H139        4.6573  -22.4473  -49.0406 H         1 UNK         0.0800 
    140 H140        5.7802  -21.1112  -48.9901 H         1 UNK         0.0800 
    141 H141        2.0563  -21.3579  -48.2522 H         1 UNK         0.0800 
    142 H142        1.8839  -20.6053  -46.7004 H         1 UNK         0.0800 
    143 H143        2.6957  -23.5348  -47.0764 H         1 UNK         0.0600 
    144 H144        2.2498  -21.8938  -44.6700 H         1 UNK         0.3000 
    145 H145        1.8302  -23.5256  -42.4928 H         1 UNK         0.0600 
    146 H146        3.6274  -24.5879  -41.1067 H         1 UNK         0.0600 
    147 H147        2.9315  -25.7079  -42.2663 H         1 UNK         0.0600 
    148 H148        4.5116  -25.0044  -42.5748 H         1 UNK         0.0600 
    149 H149        2.9075  -21.6358  -42.2060 H         1 UNK         0.3000 
    150 H150        6.1318  -20.5550  -42.1108 H         1 UNK         0.0600 
    151 H151        6.0282  -20.1941  -44.5861 H         1 UNK         0.0600 
    152 H152        5.6907  -18.7108  -43.7064 H         1 UNK         0.0600 
    153 H153        4.3709  -19.6215  -44.4361 H         1 UNK         0.0600 
    154 H154        3.6139  -19.1330  -42.1935 H         1 UNK         0.3000 
    155 H155        2.7645  -19.7293  -38.7734 H         1 UNK         0.0600 
    156 H156        4.3310  -17.7848  -38.7603 H         1 UNK         0.0600 
    157 H157        2.6559  -17.2547  -38.8003 H         1 UNK         0.0600 
    158 H158        3.6335  -17.1963  -40.2646 H         1 UNK         0.0600 
    159 H159        1.4453  -18.2517  -40.8178 H         1 UNK         0.3000 
    160 H160       -0.4844  -20.9724  -42.1527 H         1 UNK         0.0600 
    161 H161       -1.2110  -18.4807  -40.5247 H         1 UNK         0.0600 
    162 H162       -1.6503  -20.1309  -40.1006 H         1 UNK         0.0600 
    163 H163       -2.2939  -19.4039  -41.5634 H         1 UNK         0.0600 
    164 H164       -0.4325  -18.2438  -42.8844 H         1 UNK         0.3000 
    165 H165        2.2018  -18.5104  -45.3405 H         1 UNK         0.0600 
    166 H166        0.4183  -17.6157  -46.7486 H         1 UNK         0.0600 
    167 H167       -0.0230  -19.2639  -46.3114 H         1 UNK         0.0600 
    168 H168       -0.7958  -17.9092  -45.5089 H         1 UNK         0.0600 
    169 H169        0.6969  -16.2579  -44.5504 H         1 UNK         0.3000 
    170 H170        2.7542  -15.1564  -41.8330 H         1 UNK         0.0600 
    171 H171        3.7354  -14.2873  -43.9461 H         1 UNK         0.0600 
    172 H172        2.1360  -14.0943  -44.6461 H         1 UNK         0.0600 
    173 H173        2.6179  -13.1195  -43.2590 H         1 UNK         0.0600 
    174 H174        0.2700  -14.2622  -42.9948 H         1 UNK         0.3000 
    175 H175       -1.8850  -15.9465  -40.7078 H         1 UNK         0.0600 
    176 H176       -1.0577  -13.9385  -39.4734 H         1 UNK         0.0600 
    177 H177       -1.0939  -12.9938  -40.9575 H         1 UNK         0.0600 
    178 H178       -2.5922  -13.6143  -40.2639 H         1 UNK         0.0600 
    179 H179       -2.3393  -14.0536  -42.8192 H         1 UNK         0.3000 
    180 H180       -2.7258  -16.4436  -45.4397 H         1 UNK         0.0600 
    181 H181       -4.8996  -16.4855  -44.2140 H         1 UNK         0.0600 
    182 H182       -4.8046  -14.7457  -43.9653 H         1 UNK         0.0600 
    183 H183       -4.9581  -15.4034  -45.5952 H         1 UNK         0.0600 
    184 H184       -3.1276  -13.6704  -45.5195 H         1 UNK         0.3000 
    185 H185       -1.6425  -12.4844  -46.8771 H         1 UNK         0.0600 
    186 H186       -1.3772  -11.6523  -44.5262 H         1 UNK         0.0600 
    187 H187        0.3254  -12.0981  -44.5442 H         1 UNK         0.0600 
    188 H188       -0.2682  -10.8238  -45.6068 H         1 UNK         0.0600 
    189 H189        1.2651  -12.6700  -46.7244 H         1 UNK         0.3000 
    190 H190        1.0529  -23.9145  -48.6283 H         1 UNK         0.3000 
    191 H191       -1.5404  -24.5749  -47.6514 H         1 UNK         0.0600 
    192 H192       -0.4531  -24.3780  -50.5116 H         1 UNK         0.0600 
    193 H193       -1.9629  -25.1531  -50.0507 H         1 UNK         0.0600 
    194 H194       -0.4365  -25.8137  -49.4874 H         1 UNK         0.0600 
    195 H195       -0.2989  -21.6140  -48.9975 H         1 UNK         0.3000 
    196 H196       -2.4889  -20.4501  -50.2036 H         1 UNK         0.0600 
    197 H197       -1.3096  -18.2666  -49.6389 H         1 UNK         0.0600 
    198 H198       -0.2617  -19.4675  -50.3597 H         1 UNK         0.0600 
    199 H199       -0.1899  -19.1740  -48.6302 H         1 UNK         0.0600 
    200 H200       -1.9458  -20.7843  -46.7381 H         1 UNK         0.3000 
    201 H201       -3.8972  -18.8733  -45.8407 H         1 UNK         0.0600 
    202 H202       -2.0652  -19.6804  -44.3920 H         1 UNK         0.0600 
    203 H203       -2.6771  -21.3302  -44.4663 H         1 UNK         0.0600 
    204 H204       -3.6100  -20.0703  -43.6620 H         1 UNK         0.0600 
    205 H205       -4.1174  -22.1969  -46.9968 H         1 UNK         0.3000 
    206 H206       -6.9184  -22.5158  -46.0400 H         1 UNK         0.0600 
    207 H207       -5.3593  -24.3971  -45.6084 H         1 UNK         0.0600 
    208 H208       -6.5996  -24.8707  -46.7592 H         1 UNK         0.0600 
    209 H209       -4.9739  -24.5066  -47.3247 H         1 UNK         0.0600 
    210 H210       -4.8998  -22.4860  -49.0106 H         1 UNK         0.3000 
    211 H211       -7.0277  -22.9429  -50.8442 H         1 UNK         0.0600 
    212 H212       -5.3198  -22.3177  -52.5469 H         1 UNK         0.0600 
    213 H213       -4.6438  -23.4188  -51.3555 H         1 UNK         0.0600 
    214 H214       -4.2613  -21.7004  -51.2857 H         1 UNK         0.0600 
    215 H215       -5.5247  -19.9189  -49.6580 H         1 UNK         0.3000 
    216 H216       -5.9508  -17.7778  -49.8582 H         1 UNK         0.0600 
    217 H217       -8.2916  -16.9959  -49.7498 H         1 UNK         0.0600 
    218 H218       -8.0906  -18.4016  -48.7246 H         1 UNK         0.0600 
    219 H219       -8.8877  -18.5685  -50.2830 H         1 UNK         0.0600 
    220 H220       -8.3964  -17.0155  -51.8271 H         1 UNK         0.3000 
    221 H221       -6.6494  -16.3815  -54.0764 H         1 UNK         0.0600 
    222 H222       -9.6187  -15.8129  -53.5696 H         1 UNK         0.0600 
    223 H223       -8.2802  -14.7328  -53.1761 H         1 UNK         0.0600 
    224 H224       -8.6418  -15.1086  -54.8521 H         1 UNK         0.0600 
    225 H225       -8.5511  -19.1330  -53.3409 H         1 UNK         0.3000 
    226 H226       -9.5763  -19.6130  -56.0432 H         1 UNK         0.0600 
    227 H227      -10.9115  -20.2605  -54.0414 H         1 UNK         0.0600 
    228 H228      -10.5068  -21.6656  -55.0157 H         1 UNK         0.0600 
    229 H229       -9.6301  -21.3562  -53.5245 H         1 UNK         0.0600 
    230 H230       -8.8466  -21.1063  -57.4626 H         1 UNK         0.3000 
    231 H231       -7.5142  -22.3921  -58.6546 H         1 UNK         0.0600 
    232 H232       -8.3224  -24.0490  -56.9230 H         1 UNK         0.0600 
    233 H233       -6.8350  -23.7995  -56.0152 H         1 UNK         0.0600 
    234 H234       -6.7886  -24.5046  -57.6313 H         1 UNK         0.0600 
    235 H235       -4.9946  -23.7198  -57.5916 H         1 UNK         0.3000 
    236 H236       -3.0506  -21.5528  -58.0817 H         1 UNK         0.0600 
    237 H237       -2.6844  -23.7853  -59.1450 H         1 UNK         0.0600 
    238 H238       -1.4122  -23.4313  -57.9863 H         1 UNK         0.0600 
    239 H239       -2.6932  -24.5595  -57.5603 H         1 UNK         0.0600 
    240 H240       -1.6095  -20.8608  -56.4913 H         1 UNK         0.3000 
    241 H241       -0.7487  -20.3266  -54.5744 H         1 UNK         0.0600 
    242 H242       -4.2772  -20.6940  -54.5645 H         1 UNK         0.3800 
    243 H243       -4.4981  -19.4283  -53.3704 H         1 UNK         0.3800 
    244 H244       -1.8875  -22.8274  -53.2455 H         1 UNK         0.0800 
    245 H245       -0.4543  -22.8366  -54.2337 H         1 UNK         0.0800 
    246 H246        2.0641  -22.3414  -53.1278 H         1 UNK         0.0800 
    247 H247        1.4466  -20.8285  -53.7532 H         1 UNK         0.0800 
@<TRIPOS>BOND
     1    1    2 1    
     2    1  127 1    
     3    1  128 1    
     4    1  129 1    
     5    2    3 2    
     6    2    4 am   BACKBONE|DICT|INTERRES
     7    4    5 1    
     8    4  130 1    
     9    5    6 1    
    10    5   65 1    
    11    5  131 1    
    12    6    7 1    
    13    6  132 1    
    14    6  133 1    
    15    7    8 1    
    16    8    9 1    
    17    8  134 1    
    18    8  135 1    
    19    9   10 ar   
    20    9   14 ar   
    21   10   11 ar   
    22   10  136 1    
    23   11   12 ar   
    24   11  126 1    
    25   12   13 ar   
    26   12  137 1    
    27   13   14 ar   
    28   13   15 1    
    29   14  138 1    
    30   15   16 1    
    31   15  139 1    
    32   15  140 1    
    33   16   17 1    
    34   17   18 1    
    35   17  141 1    
    36   17  142 1    
    37   18   19 1    
    38   18   67 1    
    39   18  143 1    
    40   19   20 am   BACKBONE|DICT|INTERRES
    41   19  144 1    
    42   20   21 2    
    43   20   22 1    
    44   22   23 1    
    45   22   24 1    
    46   22  145 1    
    47   23  146 1    
    48   23  147 1    
    49   23  148 1    
    50   24   25 am   BACKBONE|DICT|INTERRES
    51   24  149 1    
    52   25   26 2    
    53   25   27 1    
    54   27   28 1    
    55   27   29 1    
    56   27  150 1    
    57   28  151 1    
    58   28  152 1    
    59   28  153 1    
    60   29   30 am   BACKBONE|DICT|INTERRES
    61   29  154 1    
    62   30   31 2    
    63   30   32 1    
    64   32   33 1    
    65   32   34 1    
    66   32  155 1    
    67   33  156 1    
    68   33  157 1    
    69   33  158 1    
    70   34   35 am   BACKBONE|DICT|INTERRES
    71   34  159 1    
    72   35   36 2    
    73   35   37 1    
    74   37   38 1    
    75   37   39 1    
    76   37  160 1    
    77   38  161 1    
    78   38  162 1    
    79   38  163 1    
    80   39   40 am   BACKBONE|DICT|INTERRES
    81   39  164 1    
    82   40   41 2    
    83   40   42 1    
    84   42   43 1    
    85   42   44 1    
    86   42  165 1    
    87   43  166 1    
    88   43  167 1    
    89   43  168 1    
    90   44   45 am   BACKBONE|DICT|INTERRES
    91   44  169 1    
    92   45   46 2    
    93   45   47 1    
    94   47   48 1    
    95   47   49 1    
    96   47  170 1    
    97   48  171 1    
    98   48  172 1    
    99   48  173 1    
   100   49   50 am   BACKBONE|DICT|INTERRES
   101   49  174 1    
   102   50   51 2    
   103   50   52 1    
   104   52   53 1    
   105   52   54 1    
   106   52  175 1    
   107   53  176 1    
   108   53  177 1    
   109   53  178 1    
   110   54   55 am   BACKBONE|DICT|INTERRES
   111   54  179 1    
   112   55   56 2    
   113   55   57 1    
   114   57   58 1    
   115   57   59 1    
   116   57  180 1    
   117   58  181 1    
   118   58  182 1    
   119   58  183 1    
   120   59   60 am   BACKBONE|DICT|INTERRES
   121   59  184 1    
   122   60   61 2    
   123   60   62 1    
   124   62   63 1    
   125   62   64 1    
   126   62  185 1    
   127   63  186 1    
   128   63  187 1    
   129   63  188 1    
   130   64   65 am   BACKBONE|DICT|INTERRES
   131   64  189 1    
   132   65   66 2    
   133   67   68 2    
   134   67   69 am   BACKBONE|DICT|INTERRES
   135   69   70 1    
   136   69  190 1    
   137   70   71 1    
   138   70   72 1    
   139   70  191 1    
   140   71  192 1    
   141   71  193 1    
   142   71  194 1    
   143   72   73 2    
   144   72   74 am   BACKBONE|DICT|INTERRES
   145   74   75 1    
   146   74  195 1    
   147   75   76 1    
   148   75   77 1    
   149   75  196 1    
   150   76  197 1    
   151   76  198 1    
   152   76  199 1    
   153   77   78 2    
   154   77   79 am   BACKBONE|DICT|INTERRES
   155   79   80 1    
   156   79  200 1    
   157   80   81 1    
   158   80   82 1    
   159   80  201 1    
   160   81  202 1    
   161   81  203 1    
   162   81  204 1    
   163   82   83 2    
   164   82   84 am   BACKBONE|DICT|INTERRES
   165   84   85 1    
   166   84  205 1    
   167   85   86 1    
   168   85   87 1    
   169   85  206 1    
   170   86  207 1    
   171   86  208 1    
   172   86  209 1    
   173   87   88 2    
   174   87   89 am   BACKBONE|DICT|INTERRES
   175   89   90 1    
   176   89  210 1    
   177   90   91 1    
   178   90   92 1    
   179   90  211 1    
   180   91  212 1    
   181   91  213 1    
   182   91  214 1    
   183   92   93 2    
   184   92   94 am   BACKBONE|DICT|INTERRES
   185   94   95 1    
   186   94  215 1    
   187   95   96 1    
   188   95   97 1    
   189   95  216 1    
   190   96  217 1    
   191   96  218 1    
   192   96  219 1    
   193   97   98 2    
   194   97   99 am   BACKBONE|DICT|INTERRES
   195   99  100 1    
   196   99  220 1    
   197  100  101 1    
   198  100  102 1    
   199  100  221 1    
   200  101  222 1    
   201  101  223 1    
   202  101  224 1    
   203  102  103 2    
   204  102  104 am   BACKBONE|DICT|INTERRES
   205  104  105 1    
   206  104  225 1    
   207  105  106 1    
   208  105  107 1    
   209  105  226 1    
   210  106  227 1    
   211  106  228 1    
   212  106  229 1    
   213  107  108 2    
   214  107  109 am   BACKBONE|DICT|INTERRES
   215  109  110 1    
   216  109  230 1    
   217  110  111 1    
   218  110  112 1    
   219  110  231 1    
   220  111  232 1    
   221  111  233 1    
   222  111  234 1    
   223  112  113 2    
   224  112  114 am   BACKBONE|DICT|INTERRES
   225  114  115 1    
   226  114  235 1    
   227  115  116 1    
   228  115  117 1    
   229  115  236 1    
   230  116  237 1    
   231  116  238 1    
   232  116  239 1    
   233  117  118 2    
   234  117  119 am   BACKBONE|DICT|INTERRES
   235  119  120 1    
   236  119  240 1    
   237  120  121 1    
   238  120  124 1    
   239  120  241 1    
   240  121  122 am   BACKBONE|DICT|INTERRES
   241  121  123 2    
   242  122  242 1    
   243  122  243 1    
   244  124  125 1    
   245  124  244 1    
   246  124  245 1    
   247  125  126 1    
   248  126  246 1    
   249  126  247 1    
@<TRIPOS>SUBSTRUCTURE
     1 UNK         1 GROUP             0       ****    0 ROOT    
