@<TRIPOS>MOLECULE
3R540
247   249    1
SMALL
USER_CHARGES


@<TRIPOS>ATOM
      1 CA         -3.2557  -12.9588  -49.7898 C.3       0 UNK        -0.1800 
      2 C          -1.7609  -13.1332  -50.0187 C.2       0 UNK         0.5000 
      3 O          -1.0141  -12.1567  -49.9552 O.2       0 UNK        -0.5000 
      4 N          -1.3250  -14.3681  -50.2910 N.am      1 UNK        -0.5000 
      5 CA          0.0827  -14.7624  -50.3858 C.3       1 UNK         0.1400 
      6 C6          0.2773  -16.0909  -51.1672 C.3       23 UNK        -0.0398 
      7 S7         -0.9467  -17.4088  -50.8163 S.3       23 UNK        -0.2404 
      8 C8         -0.0883  -18.4467  -49.5901 C.3       23 UNK        -0.0205 
      9 C9          1.2079  -19.0496  -50.1107 C.ar      23 UNK        -0.0193 
     10 C10         1.2113  -19.8293  -51.2690 C.ar      23 UNK        -0.1150 
     11 C11         2.3949  -20.3949  -51.7495 C.ar      23 UNK        -0.0193 
     12 C12         3.5850  -20.1844  -51.0471 C.ar      23 UNK        -0.1150 
     13 C13         3.5937  -19.4199  -49.8765 C.ar      23 UNK        -0.0193 
     14 C14         2.4044  -18.8446  -49.4200 C.ar      23 UNK        -0.1150 
     15 C15         4.8876  -19.2250  -49.1012 C.3       23 UNK        -0.0205 
     16 S16         5.3388  -20.7108  -48.1493 S.3       23 UNK        -0.2404 
     17 C17         4.0469  -20.7261  -46.8601 C.3       23 UNK        -0.0398 
     18 CA          3.8415  -22.1154  -46.2097 C.3       11 UNK         0.1400 
     19 N           3.1547  -21.9901  -44.9251 N.am      11 UNK        -0.5000 
     20 C           3.1640  -22.9089  -43.9512 C.2       10 UNK         0.5000 
     21 O           3.7321  -23.9978  -44.0391 O.2       10 UNK        -0.5000 
     22 CA          2.4181  -22.5411  -42.6553 C.3       10 UNK         0.1400 
     23 CB          3.2758  -21.6262  -41.7671 C.3       10 UNK        -0.1800 
     24 N           1.1422  -21.8876  -42.9381 N.am      10 UNK        -0.5000 
     25 C           0.0424  -22.5395  -43.3378 C.2       9 UNK         0.5000 
     26 O          -0.0399  -23.7672  -43.3876 O.2       9 UNK        -0.5000 
     27 CA         -1.1718  -21.6835  -43.7441 C.3       9 UNK         0.1400 
     28 CB         -2.1549  -21.5544  -42.5712 C.3       9 UNK        -0.1800 
     29 N          -0.8189  -20.3438  -44.2181 N.am      9 UNK        -0.5000 
     30 C          -0.1459  -20.0776  -45.3469 C.2       8 UNK         0.5000 
     31 O           0.2751  -20.9332  -46.1213 O.2       8 UNK        -0.5000 
     32 CA          0.1510  -18.5993  -45.6335 C.3       8 UNK         0.1400 
     33 CB         -1.1245  -17.8648  -46.0687 C.3       8 UNK        -0.1800 
     34 N           0.7491  -17.9287  -44.4806 N.am      8 UNK        -0.5000 
     35 C           1.9185  -18.2755  -43.9245 C.2       7 UNK         0.5000 
     36 O           2.6269  -19.1917  -44.3377 O.2       7 UNK        -0.5000 
     37 CA          2.3576  -17.4901  -42.6810 C.3       7 UNK         0.1400 
     38 CB          3.2640  -16.3212  -43.0819 C.3       7 UNK        -0.1800 
     39 N           1.2128  -16.9978  -41.9127 N.am      7 UNK        -0.5000 
     40 C           0.4906  -17.7791  -41.0990 C.2       6 UNK         0.5000 
     41 O           0.7255  -18.9745  -40.9143 O.2       6 UNK        -0.5000 
     42 CA         -0.7050  -17.1222  -40.3876 C.3       6 UNK         0.1400 
     43 CB         -0.2288  -16.0765  -39.3665 C.3       6 UNK        -0.1800 
     44 N          -1.6864  -16.5074  -41.2850 N.am      6 UNK        -0.5000 
     45 C          -2.3372  -17.1198  -42.2845 C.2       5 UNK         0.5000 
     46 O          -2.0774  -18.2547  -42.6807 O.2       5 UNK        -0.5000 
     47 CA         -3.4850  -16.3410  -42.9588 C.3       5 UNK         0.1400 
     48 CB         -4.8370  -16.8806  -42.4693 C.3       5 UNK        -0.1800 
     49 N          -3.4344  -14.8982  -42.6957 N.am      5 UNK        -0.5000 
     50 C          -2.6983  -13.9768  -43.3343 C.2       4 UNK         0.5000 
     51 O          -2.7166  -12.7953  -42.9872 O.2       4 UNK        -0.5000 
     52 CA         -1.8492  -14.3854  -44.5603 C.3       4 UNK         0.1400 
     53 CB         -2.6641  -14.2299  -45.8551 C.3       4 UNK        -0.1800 
     54 N          -0.6260  -13.5974  -44.6759 N.am      4 UNK        -0.5000 
     55 C           0.3957  -13.6348  -43.8134 C.2       3 UNK         0.5000 
     56 O           0.4355  -14.3818  -42.8321 O.2       3 UNK        -0.5000 
     57 CA          1.6038  -12.7483  -44.1719 C.3       3 UNK         0.1400 
     58 CB          2.5678  -12.5432  -42.9901 C.3       3 UNK        -0.1800 
     59 N           2.3265  -13.3504  -45.2936 N.am      3 UNK        -0.5000 
     60 C           1.9752  -13.2205  -46.5794 C.2       2 UNK         0.5000 
     61 O           1.1129  -12.4226  -46.9561 O.2       2 UNK        -0.5000 
     62 CA          2.7051  -14.1214  -47.6063 C.3       2 UNK         0.1400 
     63 CB          3.1000  -15.5032  -47.0319 C.3       2 UNK        -0.1800 
     64 N           1.9460  -14.2835  -48.8551 N.am      2 UNK        -0.5000 
     65 C           0.7182  -14.8111  -48.9806 C.2       1 UNK         0.5000 
     66 O           0.0909  -15.3176  -48.0500 O.2       1 UNK        -0.5000 
     67 C           3.1387  -23.1072  -47.1633 C.2       11 UNK         0.5000 
     68 O           3.8239  -23.9048  -47.8064 O.2       11 UNK        -0.5000 
     69 N           1.8023  -23.0537  -47.2401 N.am      12 UNK        -0.5000 
     70 CA          0.9922  -23.8423  -48.1647 C.3       12 UNK         0.1400 
     71 CB          0.5482  -22.9376  -49.3241 C.3       12 UNK        -0.1800 
     72 C          -0.2281  -24.4387  -47.4507 C.2       12 UNK         0.5000 
     73 O          -0.8111  -23.7963  -46.5749 O.2       12 UNK        -0.5000 
     74 N          -0.6214  -25.6483  -47.8729 N.am      13 UNK        -0.5000 
     75 CA         -1.7881  -26.3791  -47.3742 C.3       13 UNK         0.1400 
     76 CB         -1.8494  -27.7568  -48.0504 C.3       13 UNK        -0.1800 
     77 C          -3.0942  -25.6011  -47.6122 C.2       13 UNK         0.5000 
     78 O          -3.3098  -25.0978  -48.7181 O.2       13 UNK        -0.5000 
     79 N          -3.9125  -25.4789  -46.5567 N.am      14 UNK        -0.5000 
     80 CA         -5.1639  -24.7085  -46.4969 C.3       14 UNK         0.1400 
     81 CB         -6.2520  -25.3843  -47.3581 C.3       14 UNK        -0.1800 
     82 C          -4.9827  -23.2133  -46.8460 C.2       14 UNK         0.5000 
     83 O          -5.9089  -22.5876  -47.3645 O.2       14 UNK        -0.5000 
     84 N          -3.7727  -22.6824  -46.6076 N.am      15 UNK        -0.5000 
     85 CA         -3.3046  -21.3534  -47.0092 C.3       15 UNK         0.1400 
     86 CB         -4.0332  -20.2494  -46.2120 C.3       15 UNK        -0.1800 
     87 C          -3.3550  -21.1436  -48.5360 C.2       15 UNK         0.5000 
     88 O          -3.7188  -20.0609  -48.9914 O.2       15 UNK        -0.5000 
     89 N          -3.0328  -22.2034  -49.2953 N.am      16 UNK        -0.5000 
     90 CA         -3.1495  -22.3101  -50.7541 C.3       16 UNK         0.1400 
     91 CB         -2.1846  -21.3392  -51.4604 C.3       16 UNK        -0.1800 
     92 C          -4.6135  -22.1708  -51.2153 C.2       16 UNK         0.5000 
     93 O          -4.9091  -21.4247  -52.1512 O.2       16 UNK        -0.5000 
     94 N          -5.5040  -22.8758  -50.5005 N.am      17 UNK        -0.5000 
     95 CA         -6.9653  -22.8350  -50.6133 C.3       17 UNK         0.1400 
     96 CB         -7.4235  -23.4823  -51.9365 C.3       17 UNK        -0.1800 
     97 C          -7.5150  -21.4086  -50.4016 C.2       17 UNK         0.5000 
     98 O          -8.2764  -20.9074  -51.2287 O.2       17 UNK        -0.5000 
     99 N          -7.0704  -20.7726  -49.3072 N.am      18 UNK        -0.5000 
    100 CA        -7.3135  -19.3741  -48.9340 C.3       18 UNK         0.1400 
    101 CB        -8.7890  -19.1665  -48.5344 C.3       18 UNK        -0.1800 
    102 C         -6.8275  -18.3818  -50.0147 C.2       18 UNK         0.5000 
    103 O         -7.5675  -17.4813  -50.4155 O.2       18 UNK        -0.5000 
    104 N         -5.5844  -18.5907  -50.4698 N.am      19 UNK        -0.5000 
    105 CA        -4.8559  -17.8405  -51.4965 C.3       19 UNK         0.1400 
    106 CB        -4.5373  -16.4160  -50.9984 C.3       19 UNK        -0.1800 
    107 C         -5.5189  -17.8588  -52.8915 C.2       19 UNK         0.5000 
    108 O         -5.3193  -16.9279  -53.6748 O.2       19 UNK        -0.5000 
    109 N         -6.2889  -18.9142  -53.1905 N.am      20 UNK        -0.5000 
    110 CA        -6.8691  -19.1552  -54.5119 C.3       20 UNK         0.1400 
    111 CB        -8.0940  -20.0710  -54.3821 C.3       20 UNK        -0.1800 
    112 C         -5.8363  -19.7620  -55.4774 C.2       20 UNK         0.5000 
    113 O         -5.8472  -19.4314  -56.6642 O.2       20 UNK        -0.5000 
    114 N         -4.9573  -20.6225  -54.9495 N.am      21 UNK        -0.5000 
    115 CA        -3.7979  -21.1679  -55.6484 C.3       21 UNK         0.1400 
    116 CB        -3.5849  -22.6192  -55.1840 C.3       21 UNK        -0.1800 
    117 C         -2.5540  -20.2996  -55.3778 C.2       21 UNK         0.5000 
    118 O         -2.5906  -19.4027  -54.5320 O.2       21 UNK        -0.5000 
    119 N         -1.4636  -20.5983  -56.0959 N.am      22 UNK        -0.5000 
    120 CA        -0.1584  -19.9136  -56.0101 C.3       22 UNK         0.1400 
    121 C         -0.1145  -18.5034  -56.6789 C.2       22 UNK         0.5000 
    122 N         -1.1097  -18.1133  -57.4664 N.am      22 UNK        -0.7600 
    123 O          0.8472  -17.7583  -56.5131 O.2       22 UNK        -0.5000 
    124 C124        0.4336  -19.9234  -54.5681 C.3       23 UNK        -0.0398 
    125 S125        2.2296  -20.2552  -54.5241 S.3       23 UNK        -0.2404 
    126 C126        2.3841  -21.2544  -53.0068 C.3       23 UNK        -0.0205 
    127 H127       -3.7693  -13.9171  -49.7178 H         1 UNK         0.0600 
    128 H128       -3.6987  -12.3925  -50.6089 H         1 UNK         0.0600 
    129 H129       -3.4315  -12.4145  -48.8618 H         1 UNK         0.0600 
    130 H130       -1.9755  -15.1403  -50.3024 H         1 UNK         0.3000 
    131 H131        0.6019  -13.9845  -50.9501 H         1 UNK         0.0600 
    132 H132        0.1877  -15.8757  -52.2326 H         1 UNK         0.0800 
    133 H133        1.2917  -16.4740  -51.0461 H         1 UNK         0.0800 
    134 H134        0.0980  -17.8497  -48.6990 H         1 UNK         0.0800 
    135 H135       -0.7549  -19.2555  -49.2876 H         1 UNK         0.0800 
    136 H136        0.2868  -19.9816  -51.8016 H         1 UNK         0.1150 
    137 H137        4.5054  -20.6279  -51.4004 H         1 UNK         0.1150 
    138 H138        2.4080  -18.2500  -48.5176 H         1 UNK         0.1150 
    139 H139        5.6938  -18.9940  -49.7989 H         1 UNK         0.0800 
    140 H140        4.8132  -18.3703  -48.4270 H         1 UNK         0.0800 
    141 H141        3.1016  -20.3493  -47.2507 H         1 UNK         0.0800 
    142 H142        4.3663  -20.0073  -46.1048 H         1 UNK         0.0800 
    143 H143        4.8315  -22.5246  -45.9954 H         1 UNK         0.0600 
    144 H144        2.6990  -21.0996  -44.7510 H         1 UNK         0.3000 
    145 H145        2.2277  -23.4628  -42.1011 H         1 UNK         0.0600 
    146 H146        4.2141  -22.1134  -41.4995 H         1 UNK         0.0600 
    147 H147        3.5246  -20.6901  -42.2669 H         1 UNK         0.0600 
    148 H148        2.7592  -21.3813  -40.8387 H         1 UNK         0.0600 
    149 H149        1.1201  -20.8786  -42.8992 H         1 UNK         0.3000 
    150 H150       -1.6790  -22.2060  -44.5557 H         1 UNK         0.0600 
    151 H151       -2.4614  -22.5353  -42.2058 H         1 UNK         0.0600 
    152 H152       -3.0579  -21.0215  -42.8687 H         1 UNK         0.0600 
    153 H153       -1.7092  -21.0141  -41.7347 H         1 UNK         0.0600 
    154 H154       -1.1381  -19.5687  -43.6406 H         1 UNK         0.3000 
    155 H155        0.8712  -18.5522  -46.4528 H         1 UNK         0.0600 
    156 H156       -1.5353  -18.3034  -46.9782 H         1 UNK         0.0600 
    157 H157       -0.9220  -16.8174  -46.2797 H         1 UNK         0.0600 
    158 H158       -1.9026  -17.9086  -45.3088 H         1 UNK         0.0600 
    159 H159        0.2188  -17.1882  -44.0485 H         1 UNK         0.3000 
    160 H160        2.9425  -18.1634  -42.0505 H         1 UNK         0.0600 
    161 H161        2.7494  -15.6338  -43.7501 H         1 UNK         0.0600 
    162 H162        4.1538  -16.6787  -43.6018 H         1 UNK         0.0600 
    163 H163        3.5993  -15.7651  -42.2066 H         1 UNK         0.0600 
    164 H164        0.9398  -16.0270  -42.0523 H         1 UNK         0.3000 
    165 H165       -1.2244  -17.9111  -39.8397 H         1 UNK         0.0600 
    166 H166       -1.0576  -15.7139  -38.7583 H         1 UNK         0.0600 
    167 H167        0.5102  -16.5013  -38.6857 H         1 UNK         0.0600 
    168 H168        0.2299  -15.2152  -39.8544 H         1 UNK         0.0600 
    169 H169       -1.9482  -15.5571  -41.0680 H         1 UNK         0.3000 
    170 H170       -3.4394  -16.5275  -44.0321 H         1 UNK         0.0600 
    171 H171       -4.9291  -17.9486  -42.6729 H         1 UNK         0.0600 
    172 H172       -4.9641  -16.7395  -41.3951 H         1 UNK         0.0600 
    173 H173       -5.6660  -16.3838  -42.9738 H         1 UNK         0.0600 
    174 H174       -4.0067  -14.5853  -41.9251 H         1 UNK         0.3000 
    175 H175       -1.5299  -15.4215  -44.4665 H         1 UNK         0.0600 
    176 H176       -2.0920  -14.5496  -46.7257 H         1 UNK         0.0600 
    177 H177       -3.5713  -14.8341  -45.8266 H         1 UNK         0.0600 
    178 H178       -2.9654  -13.1943  -46.0174 H         1 UNK         0.0600 
    179 H179       -0.5470  -12.9949  -45.4850 H         1 UNK         0.3000 
    180 H180        1.2255  -11.7647  -44.4588 H         1 UNK         0.0600 
    181 H181        3.0088  -13.4783  -42.6488 H         1 UNK         0.0600 
    182 H182        2.0488  -12.0985  -42.1402 H         1 UNK         0.0600 
    183 H183        3.3818  -11.8707  -43.2608 H         1 UNK         0.0600 
    184 H184        3.0461  -14.0158  -45.0549 H         1 UNK         0.3000 
    185 H185        3.6228  -13.5966  -47.8750 H         1 UNK         0.0600 
    186 H186        3.8441  -15.4104  -46.2406 H         1 UNK         0.0600 
    187 H187        2.2419  -16.0347  -46.6180 H         1 UNK         0.0600 
    188 H188        3.5402  -16.1347  -47.8033 H         1 UNK         0.0600 
    189 H189        2.3683  -13.8578  -49.6680 H         1 UNK         0.3000 
    190 H190        1.2804  -22.3908  -46.6677 H         1 UNK         0.3000 
    191 H191        1.5769  -24.6691  -48.5731 H         1 UNK         0.0600 
    192 H192        1.4076  -22.5619  -49.8793 H         1 UNK         0.0600 
    193 H193       -0.0839  -23.4801  -50.0281 H         1 UNK         0.0600 
    194 H194       -0.0169  -22.0765  -48.9641 H         1 UNK         0.0600 
    195 H195       -0.1135  -26.0899  -48.6251 H         1 UNK         0.3000 
    196 H196       -1.6514  -26.5266  -46.3009 H         1 UNK         0.0600 
    197 H197       -2.6983  -28.3347  -47.6826 H         1 UNK         0.0600 
    198 H198       -0.9496  -28.3378  -47.8470 H         1 UNK         0.0600 
    199 H199       -1.9564  -27.6694  -49.1325 H         1 UNK         0.0600 
    200 H200       -3.6372  -25.9167  -45.6881 H         1 UNK         0.3000 
    201 H201       -5.4967  -24.7369  -45.4585 H         1 UNK         0.0600 
    202 H202       -6.3783  -26.4309  -47.0814 H         1 UNK         0.0600 
    203 H203       -6.0115  -25.3467  -48.4208 H         1 UNK         0.0600 
    204 H204       -7.2187  -24.8974  -47.2242 H         1 UNK         0.0600 
    205 H205       -3.0559  -23.2910  -46.2317 H         1 UNK         0.3000 
    206 H206       -2.2492  -21.3133  -46.7525 H         1 UNK         0.0600 
    207 H207       -3.8812  -20.3745  -45.1404 H         1 UNK         0.0600 
    208 H208       -3.6643  -19.2591  -46.4758 H         1 UNK         0.0600 
    209 H209       -5.1064  -20.2508  -46.4001 H         1 UNK         0.0600 
    210 H210       -2.8207  -23.0762  -48.8252 H         1 UNK         0.3000 
    211 H211       -2.8424  -23.3240  -51.0143 H         1 UNK         0.0600 
    212 H212       -2.4419  -20.2952  -51.2834 H         1 UNK         0.0600 
    213 H213       -2.1838  -21.4937  -52.5379 H         1 UNK         0.0600 
    214 H214       -1.1670  -21.4991  -51.1129 H         1 UNK         0.0600 
    215 H215       -5.1449  -23.4324  -49.7371 H         1 UNK         0.3000 
    216 H216       -7.3602  -23.4394  -49.7954 H         1 UNK         0.0600 
    217 H217       -8.5115  -23.5001  -52.0083 H         1 UNK         0.0600 
    218 H218       -7.0771  -24.5131  -52.0078 H         1 UNK         0.0600 
    219 H219       -7.0456  -22.9447  -52.8057 H         1 UNK         0.0600 
    220 H220       -6.4796  -21.3009  -48.6696 H         1 UNK         0.3000 
    221 H221       -6.7037  -19.1835  -48.0499 H         1 UNK         0.0600 
    222 H222       -9.4627  -19.3060  -49.3803 H         1 UNK         0.0600 
    223 H223       -9.0859  -19.8633  -47.7507 H         1 UNK         0.0600 
    224 H224       -8.9506  -18.1586  -48.1507 H         1 UNK         0.0600 
    225 H225       -5.0363  -19.3264  -50.0271 H         1 UNK         0.3000 
    226 H226       -3.9056  -18.3613  -51.6203 H         1 UNK         0.0600 
    227 H227       -4.0455  -16.4440  -50.0260 H         1 UNK         0.0600 
    228 H228       -3.8648  -15.9020  -51.6861 H         1 UNK         0.0600 
    229 H229       -5.4380  -15.8089  -50.9042 H         1 UNK         0.0600 
    230 H230       -6.3842  -19.6527  -52.5043 H         1 UNK         0.3000 
    231 H231       -7.2059  -18.2048  -54.9311 H         1 UNK         0.0600 
    232 H232       -7.8246  -21.0485  -53.9828 H         1 UNK         0.0600 
    233 H233       -8.5660  -20.2312  -55.3521 H         1 UNK         0.0600 
    234 H234       -8.8439  -19.6347  -53.7220 H         1 UNK         0.0600 
    235 H235       -4.9870  -20.7958  -53.9475 H         1 UNK         0.3000 
    236 H236       -3.9794  -21.1750  -56.7251 H         1 UNK         0.0600 
    237 H237       -4.4671  -23.2267  -55.3868 H         1 UNK         0.0600 
    238 H238       -2.7474  -23.0853  -55.7037 H         1 UNK         0.0600 
    239 H239       -3.3827  -22.6801  -54.1157 H         1 UNK         0.0600 
    240 H240       -1.5165  -21.3433  -56.7762 H         1 UNK         0.3000 
    241 H241        0.4909  -20.5252  -56.6374 H         1 UNK         0.0600 
    242 H242       -1.0687  -17.2059  -57.9035 H         1 UNK         0.3800 
    243 H243       -1.9062  -18.7095  -57.6233 H         1 UNK         0.3800 
    244 H244       -0.0547  -20.7023  -53.9824 H         1 UNK         0.0800 
    245 H245        0.2230  -18.9893  -54.0437 H         1 UNK         0.0800 
    246 H246        3.3078  -21.8314  -53.0708 H         1 UNK         0.0800 
    247 H247        1.5792  -21.9885  -52.9496 H         1 UNK         0.0800 
@<TRIPOS>BOND
     1    1    2 1    
     2    1  127 1    
     3    1  128 1    
     4    1  129 1    
     5    2    3 2    
     6    2    4 am   BACKBONE|DICT|INTERRES
     7    4    5 1    
     8    4  130 1    
     9    5    6 1    
    10    5   65 1    
    11    5  131 1    
    12    6    7 1    
    13    6  132 1    
    14    6  133 1    
    15    7    8 1    
    16    8    9 1    
    17    8  134 1    
    18    8  135 1    
    19    9   10 ar   
    20    9   14 ar   
    21   10   11 ar   
    22   10  136 1    
    23   11   12 ar   
    24   11  126 1    
    25   12   13 ar   
    26   12  137 1    
    27   13   14 ar   
    28   13   15 1    
    29   14  138 1    
    30   15   16 1    
    31   15  139 1    
    32   15  140 1    
    33   16   17 1    
    34   17   18 1    
    35   17  141 1    
    36   17  142 1    
    37   18   19 1    
    38   18   67 1    
    39   18  143 1    
    40   19   20 am   BACKBONE|DICT|INTERRES
    41   19  144 1    
    42   20   21 2    
    43   20   22 1    
    44   22   23 1    
    45   22   24 1    
    46   22  145 1    
    47   23  146 1    
    48   23  147 1    
    49   23  148 1    
    50   24   25 am   BACKBONE|DICT|INTERRES
    51   24  149 1    
    52   25   26 2    
    53   25   27 1    
    54   27   28 1    
    55   27   29 1    
    56   27  150 1    
    57   28  151 1    
    58   28  152 1    
    59   28  153 1    
    60   29   30 am   BACKBONE|DICT|INTERRES
    61   29  154 1    
    62   30   31 2    
    63   30   32 1    
    64   32   33 1    
    65   32   34 1    
    66   32  155 1    
    67   33  156 1    
    68   33  157 1    
    69   33  158 1    
    70   34   35 am   BACKBONE|DICT|INTERRES
    71   34  159 1    
    72   35   36 2    
    73   35   37 1    
    74   37   38 1    
    75   37   39 1    
    76   37  160 1    
    77   38  161 1    
    78   38  162 1    
    79   38  163 1    
    80   39   40 am   BACKBONE|DICT|INTERRES
    81   39  164 1    
    82   40   41 2    
    83   40   42 1    
    84   42   43 1    
    85   42   44 1    
    86   42  165 1    
    87   43  166 1    
    88   43  167 1    
    89   43  168 1    
    90   44   45 am   BACKBONE|DICT|INTERRES
    91   44  169 1    
    92   45   46 2    
    93   45   47 1    
    94   47   48 1    
    95   47   49 1    
    96   47  170 1    
    97   48  171 1    
    98   48  172 1    
    99   48  173 1    
   100   49   50 am   BACKBONE|DICT|INTERRES
   101   49  174 1    
   102   50   51 2    
   103   50   52 1    
   104   52   53 1    
   105   52   54 1    
   106   52  175 1    
   107   53  176 1    
   108   53  177 1    
   109   53  178 1    
   110   54   55 am   BACKBONE|DICT|INTERRES
   111   54  179 1    
   112   55   56 2    
   113   55   57 1    
   114   57   58 1    
   115   57   59 1    
   116   57  180 1    
   117   58  181 1    
   118   58  182 1    
   119   58  183 1    
   120   59   60 am   BACKBONE|DICT|INTERRES
   121   59  184 1    
   122   60   61 2    
   123   60   62 1    
   124   62   63 1    
   125   62   64 1    
   126   62  185 1    
   127   63  186 1    
   128   63  187 1    
   129   63  188 1    
   130   64   65 am   BACKBONE|DICT|INTERRES
   131   64  189 1    
   132   65   66 2    
   133   67   68 2    
   134   67   69 am   BACKBONE|DICT|INTERRES
   135   69   70 1    
   136   69  190 1    
   137   70   71 1    
   138   70   72 1    
   139   70  191 1    
   140   71  192 1    
   141   71  193 1    
   142   71  194 1    
   143   72   73 2    
   144   72   74 am   BACKBONE|DICT|INTERRES
   145   74   75 1    
   146   74  195 1    
   147   75   76 1    
   148   75   77 1    
   149   75  196 1    
   150   76  197 1    
   151   76  198 1    
   152   76  199 1    
   153   77   78 2    
   154   77   79 am   BACKBONE|DICT|INTERRES
   155   79   80 1    
   156   79  200 1    
   157   80   81 1    
   158   80   82 1    
   159   80  201 1    
   160   81  202 1    
   161   81  203 1    
   162   81  204 1    
   163   82   83 2    
   164   82   84 am   BACKBONE|DICT|INTERRES
   165   84   85 1    
   166   84  205 1    
   167   85   86 1    
   168   85   87 1    
   169   85  206 1    
   170   86  207 1    
   171   86  208 1    
   172   86  209 1    
   173   87   88 2    
   174   87   89 am   BACKBONE|DICT|INTERRES
   175   89   90 1    
   176   89  210 1    
   177   90   91 1    
   178   90   92 1    
   179   90  211 1    
   180   91  212 1    
   181   91  213 1    
   182   91  214 1    
   183   92   93 2    
   184   92   94 am   BACKBONE|DICT|INTERRES
   185   94   95 1    
   186   94  215 1    
   187   95   96 1    
   188   95   97 1    
   189   95  216 1    
   190   96  217 1    
   191   96  218 1    
   192   96  219 1    
   193   97   98 2    
   194   97   99 am   BACKBONE|DICT|INTERRES
   195   99  100 1    
   196   99  220 1    
   197  100  101 1    
   198  100  102 1    
   199  100  221 1    
   200  101  222 1    
   201  101  223 1    
   202  101  224 1    
   203  102  103 2    
   204  102  104 am   BACKBONE|DICT|INTERRES
   205  104  105 1    
   206  104  225 1    
   207  105  106 1    
   208  105  107 1    
   209  105  226 1    
   210  106  227 1    
   211  106  228 1    
   212  106  229 1    
   213  107  108 2    
   214  107  109 am   BACKBONE|DICT|INTERRES
   215  109  110 1    
   216  109  230 1    
   217  110  111 1    
   218  110  112 1    
   219  110  231 1    
   220  111  232 1    
   221  111  233 1    
   222  111  234 1    
   223  112  113 2    
   224  112  114 am   BACKBONE|DICT|INTERRES
   225  114  115 1    
   226  114  235 1    
   227  115  116 1    
   228  115  117 1    
   229  115  236 1    
   230  116  237 1    
   231  116  238 1    
   232  116  239 1    
   233  117  118 2    
   234  117  119 am   BACKBONE|DICT|INTERRES
   235  119  120 1    
   236  119  240 1    
   237  120  121 1    
   238  120  124 1    
   239  120  241 1    
   240  121  122 am   BACKBONE|DICT|INTERRES
   241  121  123 2    
   242  122  242 1    
   243  122  243 1    
   244  124  125 1    
   245  124  244 1    
   246  124  245 1    
   247  125  126 1    
   248  126  246 1    
   249  126  247 1    
@<TRIPOS>SUBSTRUCTURE
     1 UNK         1 GROUP             0       ****    0 ROOT    
