@<TRIPOS>MOLECULE
3R540
247   249    1
SMALL
USER_CHARGES


@<TRIPOS>ATOM
      1 CA         -8.9330  -14.3558  -47.9973 C.3       0 UNK        -0.1800 
      2 C          -7.9248  -13.2279  -47.8269 C.2       0 UNK         0.5000 
      3 O          -8.0958  -12.3795  -46.9507 O.2       0 UNK        -0.5000 
      4 N          -6.8828  -13.2098  -48.6658 N.am      1 UNK        -0.5000 
      5 CA         -5.7690  -12.2592  -48.6081 C.3       1 UNK         0.1400 
      6 C6         -4.9637  -12.2305  -49.9348 C.3       23 UNK        -0.0398 
      7 S7         -4.3962  -13.8664  -50.5273 S.3       23 UNK        -0.2404 
      8 C8         -2.6261  -13.7846  -50.1211 C.3       23 UNK        -0.0205 
      9 C9         -1.9365  -15.1111  -50.3884 C.ar      23 UNK        -0.0193 
     10 C10        -1.3863  -15.3858  -51.6424 C.ar      23 UNK        -0.1150 
     11 C11        -0.7581  -16.6105  -51.8889 C.ar      23 UNK        -0.0193 
     12 C12        -0.6667  -17.5591  -50.8641 C.ar      23 UNK        -0.1150 
     13 C13        -1.2218  -17.2954  -49.6080 C.ar      23 UNK        -0.0193 
     14 C14        -1.8562  -16.0718  -49.3788 C.ar      23 UNK        -0.1150 
     15 C15        -1.1679  -18.3284  -48.4957 C.3       23 UNK        -0.0205 
     16 S16        -2.7294  -19.2569  -48.4117 S.3       23 UNK        -0.2404 
     17 C17        -2.7301  -19.8380  -46.6841 C.3       23 UNK        -0.0398 
     18 CA         -2.4444  -21.3588  -46.5743 C.3       11 UNK         0.1400 
     19 N          -1.0560  -21.6490  -46.2003 N.am      11 UNK        -0.5000 
     20 C          -0.5203  -22.8782  -46.1626 C.2       10 UNK         0.5000 
     21 O          -1.1199  -23.8959  -46.5027 O.2       10 UNK        -0.5000 
     22 CA          0.8967  -23.0068  -45.5802 C.3       10 UNK         0.1400 
     23 CB          1.9586  -22.6120  -46.6173 C.3       10 UNK        -0.1800 
     24 N           1.0639  -22.2179  -44.3599 N.am      10 UNK        -0.5000 
     25 C           0.3780  -22.4199  -43.2253 C.2       9 UNK         0.5000 
     26 O          -0.4207  -23.3420  -43.0650 O.2       9 UNK        -0.5000 
     27 CA          0.5731  -21.3901  -42.0990 C.3       9 UNK         0.1400 
     28 CB          1.8344  -21.6997  -41.2797 C.3       9 UNK        -0.1800 
     29 N           0.6307  -20.0181  -42.6053 N.am      9 UNK        -0.5000 
     30 C          -0.4031  -19.3728  -43.1652 C.2       8 UNK         0.5000 
     31 O          -1.5272  -19.8585  -43.2912 O.2       8 UNK        -0.5000 
     32 CA         -0.1175  -17.9648  -43.7200 C.3       8 UNK         0.1400 
     33 CB         -0.2163  -16.9140  -42.6047 C.3       8 UNK        -0.1800 
     34 N           1.1921  -17.8684  -44.3668 N.am      8 UNK        -0.5000 
     35 C           1.5483  -18.5602  -45.4583 C.2       7 UNK         0.5000 
     36 O           0.7878  -19.3176  -46.0619 O.2       7 UNK        -0.5000 
     37 CA          3.0149  -18.4336  -45.9076 C.3       7 UNK         0.1400 
     38 CB          3.2595  -17.1068  -46.6418 C.3       7 UNK        -0.1800 
     39 N           3.9521  -18.5617  -44.7886 N.am      7 UNK        -0.5000 
     40 C           4.1275  -19.6734  -44.0619 C.2       6 UNK         0.5000 
     41 O           3.5259  -20.7225  -44.2847 O.2       6 UNK        -0.5000 
     42 CA          5.0845  -19.6089  -42.8539 C.3       6 UNK         0.1400 
     43 CB          6.5466  -19.8517  -43.2750 C.3       6 UNK        -0.1800 
     44 N           4.9268  -18.3947  -42.0408 N.am      6 UNK        -0.5000 
     45 C           5.2555  -17.1362  -42.3567 C.2       5 UNK         0.5000 
     46 O           5.8605  -16.8164  -43.3831 O.2       5 UNK        -0.5000 
     47 CA          4.7808  -16.0466  -41.3741 C.3       5 UNK         0.1400 
     48 CB          5.8816  -15.7255  -40.3522 C.3       5 UNK        -0.1800 
     49 N           4.3916  -14.8133  -42.0621 N.am      5 UNK        -0.5000 
     50 C           3.4707  -14.7295  -43.0324 C.2       4 UNK         0.5000 
     51 O           2.7664  -15.6800  -43.3867 O.2       4 UNK        -0.5000 
     52 CA          3.3622  -13.3638  -43.7407 C.3       4 UNK         0.1400 
     53 CB          4.6876  -12.9973  -44.4324 C.3       4 UNK        -0.1800 
     54 N           2.3086  -13.3512  -44.7534 N.am      4 UNK        -0.5000 
     55 C           0.9991  -13.2501  -44.5062 C.2       3 UNK         0.5000 
     56 O           0.5127  -13.0863  -43.3836 O.2       3 UNK        -0.5000 
     57 CA          0.0872  -13.3551  -45.7351 C.3       3 UNK         0.1400 
     58 CB         -0.1042  -14.8204  -46.1615 C.3       3 UNK        -0.1800 
     59 N          -1.2144  -12.7674  -45.4360 N.am      3 UNK        -0.5000 
     60 C          -1.9347  -12.0302  -46.2847 C.2       2 UNK         0.5000 
     61 O          -1.5665  -11.7358  -47.4248 O.2       2 UNK        -0.5000 
     62 CA         -3.2862  -11.5090  -45.7631 C.3       2 UNK         0.1400 
     63 CB         -3.1255  -10.1087  -45.1514 C.3       2 UNK        -0.1800 
     64 N          -4.2762  -11.4489  -46.8390 N.am      2 UNK        -0.5000 
     65 C          -4.8622  -12.5223  -47.3848 C.2       1 UNK         0.5000 
     66 O          -4.6977  -13.6732  -46.9705 O.2       1 UNK        -0.5000 
     67 C          -3.4573  -22.0519  -45.6419 C.2       11 UNK         0.5000 
     68 O          -4.4137  -22.6456  -46.1395 O.2       11 UNK        -0.5000 
     69 N          -3.2258  -21.9955  -44.3234 N.am      12 UNK        -0.5000 
     70 CA         -4.0574  -22.6591  -43.3180 C.3       12 UNK         0.1400 
     71 CB         -3.6175  -22.2274  -41.9109 C.3       12 UNK        -0.1800 
     72 C          -4.0492  -24.1933  -43.4568 C.2       12 UNK         0.5000 
     73 O          -5.1144  -24.8096  -43.4183 O.2       12 UNK        -0.5000 
     74 N          -2.8578  -24.7743  -43.6549 N.am      13 UNK        -0.5000 
     75 CA         -2.6512  -26.2092  -43.8594 C.3       13 UNK         0.1400 
     76 CB         -1.1476  -26.5192  -43.8038 C.3       13 UNK        -0.1800 
     77 C          -3.2631  -26.7275  -45.1743 C.2       13 UNK         0.5000 
     78 O          -3.8595  -27.8049  -45.1847 O.2       13 UNK        -0.5000 
     79 N          -3.1179  -25.9474  -46.2531 N.am      14 UNK        -0.5000 
     80 CA         -3.6344  -26.2587  -47.5870 C.3       14 UNK         0.1400 
     81 CB         -2.8301  -25.4565  -48.6220 C.3       14 UNK        -0.1800 
     82 C          -5.1398  -25.9743  -47.7536 C.2       14 UNK         0.5000 
     83 O          -5.6969  -26.3313  -48.7908 O.2       14 UNK        -0.5000 
     84 N          -5.7617  -25.3063  -46.7704 N.am      15 UNK        -0.5000 
     85 CA         -7.1420  -24.8073  -46.7781 C.3       15 UNK         0.1400 
     86 CB         -8.1540  -25.9720  -46.7699 C.3       15 UNK        -0.1800 
     87 C          -7.3751  -23.7976  -47.9230 C.2       15 UNK         0.5000 
     88 O          -8.3273  -23.9261  -48.6937 O.2       15 UNK        -0.5000 
     89 N          -6.4525  -22.8304  -48.0181 N.am      16 UNK        -0.5000 
     90 CA         -6.3515  -21.7370  -48.9904 C.3       16 UNK         0.1400 
     91 CB         -7.6221  -20.8638  -48.9985 C.3       16 UNK        -0.1800 
     92 C          -5.9334  -22.1627  -50.4128 C.2       16 UNK         0.5000 
     93 O          -5.7593  -21.2898  -51.2631 O.2       16 UNK        -0.5000 
     94 N          -5.7120  -23.4638  -50.6609 N.am      17 UNK        -0.5000 
     95 CA         -5.2672  -23.9897  -51.9596 C.3       17 UNK         0.1400 
     96 CB         -5.4039  -25.5186  -51.9767 C.3       17 UNK        -0.1800 
     97 C          -3.8356  -23.5605  -52.3457 C.2       17 UNK         0.5000 
     98 O          -3.4890  -23.5928  -53.5272 O.2       17 UNK        -0.5000 
     99 N          -3.0471  -23.1112  -51.3570 N.am      18 UNK        -0.5000 
    100 CA        -1.7212  -22.5153  -51.5351 C.3       18 UNK         0.1400 
    101 CB        -1.0210  -22.3978  -50.1733 C.3       18 UNK        -0.1800 
    102 C         -1.7418  -21.1508  -52.2560 C.2       18 UNK         0.5000 
    103 O         -0.6793  -20.6808  -52.6575 O.2       18 UNK        -0.5000 
    104 N         -2.9270  -20.5545  -52.4667 N.am      19 UNK        -0.5000 
    105 CA        -3.1291  -19.3395  -53.2637 C.3       19 UNK         0.1400 
    106 CB        -4.6113  -18.9436  -53.2196 C.3       19 UNK        -0.1800 
    107 C         -2.6424  -19.4554  -54.7258 C.2       19 UNK         0.5000 
    108 O         -2.3150  -18.4397  -55.3389 O.2       19 UNK        -0.5000 
    109 N         -2.5672  -20.6863  -55.2503 N.am      20 UNK        -0.5000 
    110 CA        -2.0059  -20.9971  -56.5642 C.3       20 UNK         0.1400 
    111 CB        -2.4560  -22.4095  -56.9670 C.3       20 UNK        -0.1800 
    112 C         -0.4669  -20.8900  -56.6227 C.2       20 UNK         0.5000 
    113 O          0.0773  -20.7103  -57.7136 O.2       20 UNK        -0.5000 
    114 N          0.2180  -20.9996  -55.4721 N.am      21 UNK        -0.5000 
    115 CA         1.6828  -21.0505  -55.3778 C.3       21 UNK         0.1400 
    116 CB         2.0945  -21.5040  -53.9686 C.3       21 UNK        -0.1800 
    117 C          2.3841  -19.7281  -55.7416 C.2       21 UNK         0.5000 
    118 O          3.5688  -19.7486  -56.0787 O.2       21 UNK        -0.5000 
    119 N          1.6461  -18.6127  -55.6877 N.am      22 UNK        -0.5000 
    120 CA         2.1031  -17.2889  -56.1383 C.3       22 UNK         0.1400 
    121 C          2.1356  -17.1278  -57.6894 C.2       22 UNK         0.5000 
    122 N          1.6048  -18.0577  -58.4774 N.am      22 UNK        -0.7600 
    123 O          2.6620  -16.1380  -58.1906 O.2       22 UNK        -0.5000 
    124 C124        1.2906  -16.1399  -55.4879 C.3       23 UNK        -0.0398 
    125 S125        1.3379  -16.1370  -53.6592 S.3       23 UNK        -0.2404 
    126 C126       -0.2552  -16.9282  -53.2872 C.3       23 UNK        -0.0205 
    127 H127       -8.6589  -15.0246  -48.8137 H         1 UNK         0.0600 
    128 H128       -9.9212  -13.9477  -48.2094 H         1 UNK         0.0600 
    129 H129       -8.9950  -14.9447  -47.0821 H         1 UNK         0.0600 
    130 H130       -6.7725  -13.9529  -49.3413 H         1 UNK         0.3000 
    131 H131       -6.2039  -11.2656  -48.4771 H         1 UNK         0.0600 
    132 H132       -4.1148  -11.5485  -49.8576 H         1 UNK         0.0800 
    133 H133       -5.5950  -11.8101  -50.7187 H         1 UNK         0.0800 
    134 H134       -2.5098  -13.5212  -49.0702 H         1 UNK         0.0800 
    135 H135       -2.1513  -12.9887  -50.6968 H         1 UNK         0.0800 
    136 H136       -1.4642  -14.6539  -52.4342 H         1 UNK         0.1150 
    137 H137       -0.1938  -18.5127  -51.0533 H         1 UNK         0.1150 
    138 H138       -2.3049  -15.8733  -48.4154 H         1 UNK         0.1150 
    139 H139       -0.3394  -19.0225  -48.6458 H         1 UNK         0.0800 
    140 H140       -0.9798  -17.8186  -47.5498 H         1 UNK         0.0800 
    141 H141       -3.7141  -19.5780  -46.2883 H         1 UNK         0.0800 
    142 H142       -2.0267  -19.2612  -46.0835 H         1 UNK         0.0800 
    143 H143       -2.6069  -21.8201  -47.5492 H         1 UNK         0.0600 
    144 H144       -0.4725  -20.8580  -45.9448 H         1 UNK         0.3000 
    145 H145        1.0539  -24.0556  -45.3200 H         1 UNK         0.0600 
    146 H146        2.9650  -22.7660  -46.2278 H         1 UNK         0.0600 
    147 H147        1.8628  -23.2153  -47.5209 H         1 UNK         0.0600 
    148 H148        1.8715  -21.5666  -46.9117 H         1 UNK         0.0600 
    149 H149        1.7552  -21.4744  -44.3923 H         1 UNK         0.3000 
    150 H150       -0.2872  -21.4624  -41.4303 H         1 UNK         0.0600 
    151 H151        1.7684  -22.6912  -40.8298 H         1 UNK         0.0600 
    152 H152        1.9663  -20.9836  -40.4685 H         1 UNK         0.0600 
    153 H153        2.7329  -21.6829  -41.8952 H         1 UNK         0.0600 
    154 H154        1.5254  -19.5544  -42.5767 H         1 UNK         0.3000 
    155 H155       -0.8798  -17.7413  -44.4686 H         1 UNK         0.0600 
    156 H156        0.5483  -17.0636  -41.8414 H         1 UNK         0.0600 
    157 H157       -1.1885  -16.9552  -42.1121 H         1 UNK         0.0600 
    158 H158       -0.0955  -15.9057  -43.0005 H         1 UNK         0.0600 
    159 H159        1.8577  -17.2160  -43.9570 H         1 UNK         0.3000 
    160 H160        3.2148  -19.2478  -46.6072 H         1 UNK         0.0600 
    161 H161        3.1347  -16.2484  -45.9820 H         1 UNK         0.0600 
    162 H162        2.5649  -16.9873  -47.4745 H         1 UNK         0.0600 
    163 H163        4.2685  -17.0663  -47.0520 H         1 UNK         0.0600 
    164 H164        4.4839  -17.7377  -44.5281 H         1 UNK         0.3000 
    165 H165        4.8063  -20.4320  -42.1944 H         1 UNK         0.0600 
    166 H166        6.8958  -19.1163  -43.9999 H         1 UNK         0.0600 
    167 H167        7.2155  -19.8211  -42.4150 H         1 UNK         0.0600 
    168 H168        6.6553  -20.8336  -43.7369 H         1 UNK         0.0600 
    169 H169        4.4310  -18.5384  -41.1720 H         1 UNK         0.3000 
    170 H170        3.9023  -16.4144  -40.8399 H         1 UNK         0.0600 
    171 H171        6.7749  -15.3280  -40.8360 H         1 UNK         0.0600 
    172 H172        5.5408  -14.9927  -39.6206 H         1 UNK         0.0600 
    173 H173        6.1774  -16.6193  -39.8014 H         1 UNK         0.0600 
    174 H174        4.9441  -13.9961  -41.8494 H         1 UNK         0.3000 
    175 H175        3.1368  -12.6072  -42.9863 H         1 UNK         0.0600 
    176 H176        4.9845  -13.7562  -45.1579 H         1 UNK         0.0600 
    177 H177        4.6085  -12.0449  -44.9572 H         1 UNK         0.0600 
    178 H178        5.5009  -12.8968  -43.7131 H         1 UNK         0.0600 
    179 H179        2.6106  -13.5158  -45.7020 H         1 UNK         0.3000 
    180 H180        0.5684  -12.8072  -46.5483 H         1 UNK         0.0600 
    181 H181       -0.6769  -14.8802  -47.0848 H         1 UNK         0.0600 
    182 H182       -0.6325  -15.3956  -45.4013 H         1 UNK         0.0600 
    183 H183        0.8514  -15.3119  -46.3423 H         1 UNK         0.0600 
    184 H184       -1.5273  -12.8980  -44.4828 H         1 UNK         0.3000 
    185 H185       -3.6532  -12.1866  -44.9890 H         1 UNK         0.0600 
    186 H186       -4.0716   -9.7403  -44.7543 H         1 UNK         0.0600 
    187 H187       -2.4114  -10.1224  -44.3270 H         1 UNK         0.0600 
    188 H188       -2.7648   -9.3870  -45.8856 H         1 UNK         0.0600 
    189 H189       -4.4325  -10.5390  -47.2475 H         1 UNK         0.3000 
    190 H190       -2.4469  -21.4409  -43.9804 H         1 UNK         0.3000 
    191 H191       -5.0851  -22.3205  -43.4657 H         1 UNK         0.0600 
    192 H192       -4.2543  -22.6776  -41.1485 H         1 UNK         0.0600 
    193 H193       -3.6826  -21.1457  -41.7925 H         1 UNK         0.0600 
    194 H194       -2.5912  -22.5251  -41.6977 H         1 UNK         0.0600 
    195 H195       -2.0224  -24.1945  -43.6329 H         1 UNK         0.3000 
    196 H196       -3.1372  -26.7374  -43.0365 H         1 UNK         0.0600 
    197 H197       -0.5989  -25.9885  -44.5827 H         1 UNK         0.0600 
    198 H198       -0.7219  -26.2323  -42.8420 H         1 UNK         0.0600 
    199 H199       -0.9619  -27.5856  -43.9374 H         1 UNK         0.0600 
    200 H200       -2.5572  -25.1020  -46.1765 H         1 UNK         0.3000 
    201 H201       -3.4781  -27.3212  -47.7840 H         1 UNK         0.0600 
    202 H202       -3.1193  -25.7175  -49.6391 H         1 UNK         0.0600 
    203 H203       -2.9816  -24.3837  -48.4980 H         1 UNK         0.0600 
    204 H204       -1.7624  -25.6574  -48.5336 H         1 UNK         0.0600 
    205 H205       -5.2016  -25.0227  -45.9772 H         1 UNK         0.3000 
    206 H206       -7.2714  -24.2526  -45.8475 H         1 UNK         0.0600 
    207 H207       -7.9628  -26.6524  -45.9401 H         1 UNK         0.0600 
    208 H208       -9.1729  -25.6000  -46.6569 H         1 UNK         0.0600 
    209 H209       -8.1196  -26.5510  -47.6931 H         1 UNK         0.0600 
    210 H210       -5.7062  -22.8409  -47.3219 H         1 UNK         0.3000 
    211 H211       -5.5361  -21.1098  -48.6264 H         1 UNK         0.0600 
    212 H212       -7.4709  -19.9622  -49.5934 H         1 UNK         0.0600 
    213 H213       -7.8884  -20.5446  -47.9909 H         1 UNK         0.0600 
    214 H214       -8.4767  -21.3906  -49.4230 H         1 UNK         0.0600 
    215 H215       -5.8921  -24.1399  -49.9308 H         1 UNK         0.3000 
    216 H216       -5.9370  -23.5885  -52.7231 H         1 UNK         0.0600 
    217 H217       -4.7204  -25.9959  -51.2763 H         1 UNK         0.0600 
    218 H218       -5.1831  -25.9171  -52.9677 H         1 UNK         0.0600 
    219 H219       -6.4172  -25.8286  -51.7205 H         1 UNK         0.0600 
    220 H220       -3.4222  -23.1081  -50.4214 H         1 UNK         0.3000 
    221 H221       -1.1338  -23.1943  -52.1566 H         1 UNK         0.0600 
    222 H222       -0.9717  -23.3582  -49.6607 H         1 UNK         0.0600 
    223 H223       -1.5320  -21.6904  -49.5246 H         1 UNK         0.0600 
    224 H224        0.0038  -22.0430  -50.2913 H         1 UNK         0.0600 
    225 H225       -3.7645  -20.9819  -52.0896 H         1 UNK         0.3000 
    226 H226       -2.5591  -18.5417  -52.7906 H         1 UNK         0.0600 
    227 H227       -5.2482  -19.7246  -53.6367 H         1 UNK         0.0600 
    228 H228       -4.9368  -18.7550  -52.1962 H         1 UNK         0.0600 
    229 H229       -4.7908  -18.0308  -53.7892 H         1 UNK         0.0600 
    230 H230       -2.8615  -21.4719  -54.6851 H         1 UNK         0.3000 
    231 H231       -2.4123  -20.2897  -57.2902 H         1 UNK         0.0600 
    232 H232       -2.0779  -22.6751  -57.9551 H         1 UNK         0.0600 
    233 H233       -3.5432  -22.4808  -57.0060 H         1 UNK         0.0600 
    234 H234       -2.0965  -23.1617  -56.2633 H         1 UNK         0.0600 
    235 H235       -0.2864  -21.0655  -54.5946 H         1 UNK         0.3000 
    236 H236        2.0299  -21.8054  -56.0864 H         1 UNK         0.0600 
    237 H237        3.1677  -21.6922  -53.9200 H         1 UNK         0.0600 
    238 H238        1.8656  -20.7458  -53.2192 H         1 UNK         0.0600 
    239 H239        1.5891  -22.4265  -53.6823 H         1 UNK         0.0600 
    240 H240        0.6782  -18.6892  -55.4138 H         1 UNK         0.3000 
    241 H241        3.1376  -17.1719  -55.8097 H         1 UNK         0.0600 
    242 H242        1.6416  -17.9344  -59.4770 H         1 UNK         0.3800 
    243 H243        1.1707  -18.8885  -58.0947 H         1 UNK         0.3800 
    244 H244        0.2569  -16.1630  -55.8364 H         1 UNK         0.0800 
    245 H245        1.6865  -15.1755  -55.8110 H         1 UNK         0.0800 
    246 H246       -1.0083  -16.5922  -54.0004 H         1 UNK         0.0800 
    247 H247       -0.1560  -18.0060  -53.4223 H         1 UNK         0.0800 
@<TRIPOS>BOND
     1    1    2 1    
     2    1  127 1    
     3    1  128 1    
     4    1  129 1    
     5    2    3 2    
     6    2    4 am   BACKBONE|DICT|INTERRES
     7    4    5 1    
     8    4  130 1    
     9    5    6 1    
    10    5   65 1    
    11    5  131 1    
    12    6    7 1    
    13    6  132 1    
    14    6  133 1    
    15    7    8 1    
    16    8    9 1    
    17    8  134 1    
    18    8  135 1    
    19    9   10 ar   
    20    9   14 ar   
    21   10   11 ar   
    22   10  136 1    
    23   11   12 ar   
    24   11  126 1    
    25   12   13 ar   
    26   12  137 1    
    27   13   14 ar   
    28   13   15 1    
    29   14  138 1    
    30   15   16 1    
    31   15  139 1    
    32   15  140 1    
    33   16   17 1    
    34   17   18 1    
    35   17  141 1    
    36   17  142 1    
    37   18   19 1    
    38   18   67 1    
    39   18  143 1    
    40   19   20 am   BACKBONE|DICT|INTERRES
    41   19  144 1    
    42   20   21 2    
    43   20   22 1    
    44   22   23 1    
    45   22   24 1    
    46   22  145 1    
    47   23  146 1    
    48   23  147 1    
    49   23  148 1    
    50   24   25 am   BACKBONE|DICT|INTERRES
    51   24  149 1    
    52   25   26 2    
    53   25   27 1    
    54   27   28 1    
    55   27   29 1    
    56   27  150 1    
    57   28  151 1    
    58   28  152 1    
    59   28  153 1    
    60   29   30 am   BACKBONE|DICT|INTERRES
    61   29  154 1    
    62   30   31 2    
    63   30   32 1    
    64   32   33 1    
    65   32   34 1    
    66   32  155 1    
    67   33  156 1    
    68   33  157 1    
    69   33  158 1    
    70   34   35 am   BACKBONE|DICT|INTERRES
    71   34  159 1    
    72   35   36 2    
    73   35   37 1    
    74   37   38 1    
    75   37   39 1    
    76   37  160 1    
    77   38  161 1    
    78   38  162 1    
    79   38  163 1    
    80   39   40 am   BACKBONE|DICT|INTERRES
    81   39  164 1    
    82   40   41 2    
    83   40   42 1    
    84   42   43 1    
    85   42   44 1    
    86   42  165 1    
    87   43  166 1    
    88   43  167 1    
    89   43  168 1    
    90   44   45 am   BACKBONE|DICT|INTERRES
    91   44  169 1    
    92   45   46 2    
    93   45   47 1    
    94   47   48 1    
    95   47   49 1    
    96   47  170 1    
    97   48  171 1    
    98   48  172 1    
    99   48  173 1    
   100   49   50 am   BACKBONE|DICT|INTERRES
   101   49  174 1    
   102   50   51 2    
   103   50   52 1    
   104   52   53 1    
   105   52   54 1    
   106   52  175 1    
   107   53  176 1    
   108   53  177 1    
   109   53  178 1    
   110   54   55 am   BACKBONE|DICT|INTERRES
   111   54  179 1    
   112   55   56 2    
   113   55   57 1    
   114   57   58 1    
   115   57   59 1    
   116   57  180 1    
   117   58  181 1    
   118   58  182 1    
   119   58  183 1    
   120   59   60 am   BACKBONE|DICT|INTERRES
   121   59  184 1    
   122   60   61 2    
   123   60   62 1    
   124   62   63 1    
   125   62   64 1    
   126   62  185 1    
   127   63  186 1    
   128   63  187 1    
   129   63  188 1    
   130   64   65 am   BACKBONE|DICT|INTERRES
   131   64  189 1    
   132   65   66 2    
   133   67   68 2    
   134   67   69 am   BACKBONE|DICT|INTERRES
   135   69   70 1    
   136   69  190 1    
   137   70   71 1    
   138   70   72 1    
   139   70  191 1    
   140   71  192 1    
   141   71  193 1    
   142   71  194 1    
   143   72   73 2    
   144   72   74 am   BACKBONE|DICT|INTERRES
   145   74   75 1    
   146   74  195 1    
   147   75   76 1    
   148   75   77 1    
   149   75  196 1    
   150   76  197 1    
   151   76  198 1    
   152   76  199 1    
   153   77   78 2    
   154   77   79 am   BACKBONE|DICT|INTERRES
   155   79   80 1    
   156   79  200 1    
   157   80   81 1    
   158   80   82 1    
   159   80  201 1    
   160   81  202 1    
   161   81  203 1    
   162   81  204 1    
   163   82   83 2    
   164   82   84 am   BACKBONE|DICT|INTERRES
   165   84   85 1    
   166   84  205 1    
   167   85   86 1    
   168   85   87 1    
   169   85  206 1    
   170   86  207 1    
   171   86  208 1    
   172   86  209 1    
   173   87   88 2    
   174   87   89 am   BACKBONE|DICT|INTERRES
   175   89   90 1    
   176   89  210 1    
   177   90   91 1    
   178   90   92 1    
   179   90  211 1    
   180   91  212 1    
   181   91  213 1    
   182   91  214 1    
   183   92   93 2    
   184   92   94 am   BACKBONE|DICT|INTERRES
   185   94   95 1    
   186   94  215 1    
   187   95   96 1    
   188   95   97 1    
   189   95  216 1    
   190   96  217 1    
   191   96  218 1    
   192   96  219 1    
   193   97   98 2    
   194   97   99 am   BACKBONE|DICT|INTERRES
   195   99  100 1    
   196   99  220 1    
   197  100  101 1    
   198  100  102 1    
   199  100  221 1    
   200  101  222 1    
   201  101  223 1    
   202  101  224 1    
   203  102  103 2    
   204  102  104 am   BACKBONE|DICT|INTERRES
   205  104  105 1    
   206  104  225 1    
   207  105  106 1    
   208  105  107 1    
   209  105  226 1    
   210  106  227 1    
   211  106  228 1    
   212  106  229 1    
   213  107  108 2    
   214  107  109 am   BACKBONE|DICT|INTERRES
   215  109  110 1    
   216  109  230 1    
   217  110  111 1    
   218  110  112 1    
   219  110  231 1    
   220  111  232 1    
   221  111  233 1    
   222  111  234 1    
   223  112  113 2    
   224  112  114 am   BACKBONE|DICT|INTERRES
   225  114  115 1    
   226  114  235 1    
   227  115  116 1    
   228  115  117 1    
   229  115  236 1    
   230  116  237 1    
   231  116  238 1    
   232  116  239 1    
   233  117  118 2    
   234  117  119 am   BACKBONE|DICT|INTERRES
   235  119  120 1    
   236  119  240 1    
   237  120  121 1    
   238  120  124 1    
   239  120  241 1    
   240  121  122 am   BACKBONE|DICT|INTERRES
   241  121  123 2    
   242  122  242 1    
   243  122  243 1    
   244  124  125 1    
   245  124  244 1    
   246  124  245 1    
   247  125  126 1    
   248  126  246 1    
   249  126  247 1    
@<TRIPOS>SUBSTRUCTURE
     1 UNK         1 GROUP             0       ****    0 ROOT    
