@<TRIPOS>MOLECULE
3R540
247   249    1
SMALL
USER_CHARGES


@<TRIPOS>ATOM
      1 CA          6.4433  -19.2566  -44.7867 C.3       0 UNK        -0.1800 
      2 C           5.4857  -18.1350  -44.4166 C.2       0 UNK         0.5000 
      3 O           5.0147  -18.0799  -43.2819 O.2       0 UNK        -0.5000 
      4 N           5.2037  -17.2287  -45.3604 N.am      1 UNK        -0.5000 
      5 CA          4.2397  -16.1240  -45.2285 C.3       1 UNK         0.1400 
      6 C6          3.9652  -15.4386  -46.5884 C.3       23 UNK        -0.0398 
      7 S7          3.2792  -16.6301  -47.7794 S.3       23 UNK        -0.2404 
      8 C8          3.4229  -15.7356  -49.3536 C.3       23 UNK        -0.0205 
      9 C9          2.7683  -16.5385  -50.4670 C.ar      23 UNK        -0.0193 
     10 C10         1.5442  -16.1357  -51.0101 C.ar      23 UNK        -0.1150 
     11 C11         0.9049  -16.9165  -51.9778 C.ar      23 UNK        -0.0193 
     12 C12         1.5145  -18.0936  -52.4216 C.ar      23 UNK        -0.1150 
     13 C13         2.7477  -18.4975  -51.8996 C.ar      23 UNK        -0.0193 
     14 C14         3.3705  -17.7130  -50.9263 C.ar      23 UNK        -0.1150 
     15 C15         3.4129  -19.7785  -52.3830 C.3       23 UNK        -0.0205 
     16 S16         3.2372  -21.1439  -51.1876 S.3       23 UNK        -0.2404 
     17 C17         1.4550  -21.5130  -51.3186 C.3       23 UNK        -0.0398 
     18 CA          0.7884  -21.8626  -49.9658 C.3       11 UNK         0.1400 
     19 N           1.0743  -20.8961  -48.8986 N.am      11 UNK        -0.5000 
     20 C           0.7750  -21.0954  -47.6062 C.2       10 UNK         0.5000 
     21 O           0.2308  -22.1135  -47.1786 O.2       10 UNK        -0.5000 
     22 CA          1.0920  -19.9464  -46.6323 C.3       10 UNK         0.1400 
     23 CB          2.5608  -20.0040  -46.1858 C.3       10 UNK        -0.1800 
     24 N           0.8062  -18.6174  -47.1754 N.am      10 UNK        -0.5000 
     25 C          -0.3821  -18.1954  -47.6234 C.2       9 UNK         0.5000 
     26 O          -1.3911  -18.8993  -47.6583 O.2       9 UNK        -0.5000 
     27 CA         -0.4474  -16.7250  -48.0467 C.3       9 UNK         0.1400 
     28 CB         -1.7026  -16.3801  -48.8699 C.3       9 UNK        -0.1800 
     29 N          -0.3896  -15.9135  -46.8407 N.am      9 UNK        -0.5000 
     30 C           0.0147  -14.6403  -46.7669 C.2       8 UNK         0.5000 
     31 O           0.4369  -14.0030  -47.7328 O.2       8 UNK        -0.5000 
     32 CA         -0.0511  -13.9776  -45.3724 C.3       8 UNK         0.1400 
     33 CB         -0.3362  -12.4639  -45.4404 C.3       8 UNK        -0.1800 
     34 N          -0.9773  -14.6469  -44.4505 N.am      8 UNK        -0.5000 
     35 C          -2.3086  -14.7831  -44.5666 C.2       7 UNK         0.5000 
     36 O          -2.9810  -14.2971  -45.4756 O.2       7 UNK        -0.5000 
     37 CA         -2.9970  -15.6300  -43.4844 C.3       7 UNK         0.1400 
     38 CB         -2.7752  -17.1285  -43.7548 C.3       7 UNK        -0.1800 
     39 N          -2.4781  -15.2937  -42.1599 N.am      7 UNK        -0.5000 
     40 C          -3.0394  -14.4075  -41.3256 C.2       6 UNK         0.5000 
     41 O          -4.1195  -13.8544  -41.5359 O.2       6 UNK        -0.5000 
     42 CA         -2.2535  -14.0664  -40.0429 C.3       6 UNK         0.1400 
     43 CB         -2.6515  -15.0109  -38.8986 C.3       6 UNK        -0.1800 
     44 N          -0.8034  -14.1289  -40.2336 N.am      6 UNK        -0.5000 
     45 C          -0.0992  -13.2923  -41.0091 C.2       5 UNK         0.5000 
     46 O          -0.5839  -12.3039  -41.5602 O.2       5 UNK        -0.5000 
     47 CA          1.3894  -13.6235  -41.2305 C.3       5 UNK         0.1400 
     48 CB          2.2816  -12.7130  -40.3741 C.3       5 UNK        -0.1800 
     49 N           1.7533  -15.0197  -40.9696 N.am      5 UNK        -0.5000 
     50 C           1.3093  -16.0903  -41.6409 C.2       4 UNK         0.5000 
     51 O           0.4261  -16.0262  -42.4974 O.2       4 UNK        -0.5000 
     52 CA          1.9545  -17.4508  -41.2998 C.3       4 UNK         0.1400 
     53 CB          1.6976  -18.5017  -42.3957 C.3       4 UNK        -0.1800 
     54 N           3.3989  -17.3405  -41.0881 N.am      4 UNK        -0.5000 
     55 C           4.0045  -16.9432  -39.9614 C.2       3 UNK         0.5000 
     56 O           3.3976  -16.6169  -38.9414 O.2       3 UNK        -0.5000 
     57 CA          5.5351  -16.8263  -40.0122 C.3       3 UNK         0.1400 
     58 CB          6.1975  -18.2128  -39.9754 C.3       3 UNK        -0.1800 
     59 N           5.9498  -16.1143  -41.2204 N.am      3 UNK        -0.5000 
     60 C           6.0757  -14.7825  -41.3112 C.2       2 UNK         0.5000 
     61 O           5.9250  -14.0161  -40.3595 O.2       2 UNK        -0.5000 
     62 CA          6.4281  -14.2026  -42.6959 C.3       2 UNK         0.1400 
     63 CB          7.9501  -14.0575  -42.8461 C.3       2 UNK        -0.1800 
     64 N           5.9157  -15.0183  -43.7972 N.am      2 UNK        -0.5000 
     65 C           4.6262  -15.0817  -44.1575 C.2       1 UNK         0.5000 
     66 O           3.7474  -14.3742  -43.6668 O.2       1 UNK        -0.5000 
     67 C          -0.7284  -22.0383  -50.1698 C.2       11 UNK         0.5000 
     68 O          -1.1957  -23.1662  -50.3194 O.2       11 UNK        -0.5000 
     69 N          -1.4662  -20.9176  -50.1439 N.am      12 UNK        -0.5000 
     70 CA         -2.9225  -20.8873  -50.2602 C.3       12 UNK         0.1400 
     71 CB         -3.4043  -19.4439  -50.4701 C.3       12 UNK        -0.1800 
     72 C          -3.5963  -21.5144  -49.0314 C.2       12 UNK         0.5000 
     73 O          -4.5257  -22.2997  -49.1947 O.2       12 UNK        -0.5000 
     74 N          -3.0882  -21.1964  -47.8322 N.am      13 UNK        -0.5000 
     75 CA         -3.5408  -21.7523  -46.5569 C.3       13 UNK         0.1400 
     76 CB         -2.8141  -21.0488  -45.4004 C.3       13 UNK        -0.1800 
     77 C          -3.3629  -23.2799  -46.4781 C.2       13 UNK         0.5000 
     78 O          -4.2990  -23.9774  -46.0863 O.2       13 UNK        -0.5000 
     79 N          -2.1934  -23.7779  -46.9068 N.am      14 UNK        -0.5000 
     80 CA         -1.8848  -25.2078  -47.0097 C.3       14 UNK         0.1400 
     81 CB         -0.3970  -25.3822  -47.3491 C.3       14 UNK        -0.1800 
     82 C          -2.7643  -25.9446  -48.0400 C.2       14 UNK         0.5000 
     83 O          -3.1248  -27.1013  -47.8216 O.2       14 UNK        -0.5000 
     84 N          -3.1175  -25.2470  -49.1256 N.am      15 UNK        -0.5000 
     85 CA         -4.0049  -25.7098  -50.1923 C.3       15 UNK         0.1400 
     86 CB         -3.6171  -24.9641  -51.4756 C.3       15 UNK        -0.1800 
     87 C          -5.5056  -25.5151  -49.8822 C.2       15 UNK         0.5000 
     88 O          -6.3375  -25.7936  -50.7514 O.2       15 UNK        -0.5000 
     89 N          -5.8263  -24.9992  -48.6835 N.am      16 UNK        -0.5000 
     90 CA         -7.1602  -24.6659  -48.1643 C.3       16 UNK         0.1400 
     91 CB         -7.9733  -25.9550  -47.9272 C.3       16 UNK        -0.1800 
     92 C          -7.9281  -23.6377  -49.0264 C.2       16 UNK         0.5000 
     93 O          -9.1598  -23.6196  -49.0092 O.2       16 UNK        -0.5000 
     94 N          -7.1815  -22.8325  -49.7975 N.am      17 UNK        -0.5000 
     95 CA         -7.6142  -21.9158  -50.8573 C.3       17 UNK         0.1400 
     96 CB         -8.3770  -20.7186  -50.2563 C.3       17 UNK        -0.1800 
     97 C          -8.3949  -22.6043  -52.0024 C.2       17 UNK         0.5000 
     98 O          -9.0867  -21.9216  -52.7601 O.2       17 UNK        -0.5000 
     99 N          -8.2897  -23.9368  -52.1009 N.am      18 UNK        -0.5000 
    100 CA        -9.0725  -24.7783  -52.9996 C.3       18 UNK         0.1400 
    101 CB        -9.7679  -25.8758  -52.1771 C.3       18 UNK        -0.1800 
    102 C         -8.1827  -25.3931  -54.0848 C.2       18 UNK         0.5000 
    103 O         -8.5176  -25.2958  -55.2661 O.2       18 UNK        -0.5000 
    104 N         -7.0637  -26.0087  -53.6760 N.am      19 UNK        -0.5000 
    105 CA        -6.1207  -26.6559  -54.5928 C.3       19 UNK         0.1400 
    106 CB        -5.3297  -27.7347  -53.8352 C.3       19 UNK        -0.1800 
    107 C         -5.1812  -25.6560  -55.2965 C.2       19 UNK         0.5000 
    108 O         -4.6491  -25.9750  -56.3605 O.2       19 UNK        -0.5000 
    109 N         -5.0048  -24.4700  -54.7038 N.am      20 UNK        -0.5000 
    110 CA        -4.1752  -23.3691  -55.1771 C.3       20 UNK         0.1400 
    111 CB        -2.6795  -23.7226  -55.0550 C.3       20 UNK        -0.1800 
    112 C         -4.4969  -22.1280  -54.3341 C.2       20 UNK         0.5000 
    113 O         -4.9520  -22.2632  -53.1953 O.2       20 UNK        -0.5000 
    114 N         -4.2247  -20.9496  -54.8994 N.am      21 UNK        -0.5000 
    115 CA        -4.3312  -19.6369  -54.2715 C.3       21 UNK         0.1400 
    116 CB        -5.8038  -19.2732  -53.9930 C.3       21 UNK        -0.1800 
    117 C         -3.6840  -18.6047  -55.2077 C.2       21 UNK         0.5000 
    118 O         -3.5718  -18.8603  -56.4106 O.2       21 UNK        -0.5000 
    119 N         -3.2882  -17.4555  -54.6500 N.am      22 UNK        -0.5000 
    120 CA        -2.8558  -16.2773  -55.4186 C.3       22 UNK         0.1400 
    121 C         -4.0711  -15.5359  -56.0429 C.2       22 UNK         0.5000 
    122 N         -3.9251  -14.9928  -57.2436 N.am      22 UNK        -0.7600 
    123 O         -5.1312  -15.4141  -55.4325 O.2       22 UNK        -0.5000 
    124 C124       -2.0133  -15.3049  -54.5541 C.3       23 UNK        -0.0398 
    125 S125       -0.3264  -15.9271  -54.2444 S.3       23 UNK        -0.2404 
    126 C126       -0.4534  -16.5040  -52.5259 C.3       23 UNK        -0.0205 
    127 H127        6.7999  -19.1630  -45.8127 H         1 UNK         0.0600 
    128 H128        5.9439  -20.2202  -44.6860 H         1 UNK         0.0600 
    129 H129        7.3068  -19.2469  -44.1219 H         1 UNK         0.0600 
    130 H130        5.6179  -17.3294  -46.2762 H         1 UNK         0.3000 
    131 H131        3.3006  -16.5643  -44.8857 H         1 UNK         0.0600 
    132 H132        4.8798  -15.0044  -46.9960 H         1 UNK         0.0800 
    133 H133        3.2497  -14.6212  -46.4795 H         1 UNK         0.0800 
    134 H134        4.4746  -15.5652  -49.5880 H         1 UNK         0.0800 
    135 H135        2.9546  -14.7545  -49.2572 H         1 UNK         0.0800 
    136 H136        1.0742  -15.2287  -50.6552 H         1 UNK         0.1150 
    137 H137        1.0248  -18.6931  -53.1762 H         1 UNK         0.1150 
    138 H138        4.3152  -18.0298  -50.5065 H         1 UNK         0.1150 
    139 H139        3.0070  -20.0853  -53.3483 H         1 UNK         0.0800 
    140 H140        4.4750  -19.5907  -52.5473 H         1 UNK         0.0800 
    141 H141        1.3407  -22.3448  -52.0161 H         1 UNK         0.0800 
    142 H142        0.9452  -20.6688  -51.7810 H         1 UNK         0.0800 
    143 H143        1.1868  -22.8267  -49.6415 H         1 UNK         0.0600 
    144 H144        1.5402  -20.0425  -49.1699 H         1 UNK         0.3000 
    145 H145        0.4633  -20.0796  -45.7498 H         1 UNK         0.0600 
    146 H146        2.7732  -19.2460  -45.4327 H         1 UNK         0.0600 
    147 H147        2.7991  -20.9732  -45.7460 H         1 UNK         0.0600 
    148 H148        3.2435  -19.8443  -47.0214 H         1 UNK         0.0600 
    149 H149        1.5832  -17.9685  -47.1969 H         1 UNK         0.3000 
    150 H150        0.4329  -16.5216  -48.6516 H         1 UNK         0.0600 
    151 H151       -1.7544  -16.9913  -49.7705 H         1 UNK         0.0600 
    152 H152       -1.6928  -15.3379  -49.1887 H         1 UNK         0.0600 
    153 H153       -2.6173  -16.5463  -48.2995 H         1 UNK         0.0600 
    154 H154       -0.6969  -16.3680  -45.9928 H         1 UNK         0.3000 
    155 H155        0.9415  -14.1034  -44.9367 H         1 UNK         0.0600 
    156 H156        0.4452  -11.9430  -45.9948 H         1 UNK         0.0600 
    157 H157       -0.3717  -12.0254  -44.4430 H         1 UNK         0.0600 
    158 H158       -1.2841  -12.2515  -45.9352 H         1 UNK         0.0600 
    159 H159       -0.5201  -15.1281  -43.6770 H         1 UNK         0.3000 
    160 H160       -4.0705  -15.4346  -43.5314 H         1 UNK         0.0600 
    161 H161       -1.7204  -17.4019  -43.7050 H         1 UNK         0.0600 
    162 H162       -3.1395  -17.4049  -44.7453 H         1 UNK         0.0600 
    163 H163       -3.3114  -17.7408  -43.0297 H         1 UNK         0.0600 
    164 H164       -1.5645  -15.6641  -41.9294 H         1 UNK         0.3000 
    165 H165       -2.5156  -13.0467  -39.7530 H         1 UNK         0.0600 
    166 H166       -2.1537  -14.7357  -37.9685 H         1 UNK         0.0600 
    167 H167       -3.7260  -14.9701  -38.7152 H         1 UNK         0.0600 
    168 H168       -2.3960  -16.0472  -39.1235 H         1 UNK         0.0600 
    169 H169       -0.3182  -14.9026  -39.8042 H         1 UNK         0.3000 
    170 H170        1.6043  -13.4195  -42.2812 H         1 UNK         0.0600 
    171 H171        2.0571  -11.6608  -40.5540 H         1 UNK         0.0600 
    172 H172        2.1444  -12.9025  -39.3088 H         1 UNK         0.0600 
    173 H173        3.3354  -12.8627  -40.6099 H         1 UNK         0.0600 
    174 H174        2.4501  -15.1780  -40.2529 H         1 UNK         0.3000 
    175 H175        1.4882  -17.8060  -40.3789 H         1 UNK         0.0600 
    176 H176        0.6303  -18.6868  -42.5238 H         1 UNK         0.0600 
    177 H177        2.0931  -18.1778  -43.3585 H         1 UNK         0.0600 
    178 H178        2.1638  -19.4551  -42.1470 H         1 UNK         0.0600 
    179 H179        3.9819  -17.5797  -41.8882 H         1 UNK         0.3000 
    180 H180        5.8639  -16.2756  -39.1282 H         1 UNK         0.0600 
    181 H181        5.9123  -18.8260  -40.8308 H         1 UNK         0.0600 
    182 H182        5.9122  -18.7559  -39.0736 H         1 UNK         0.0600 
    183 H183        7.2842  -18.1281  -39.9736 H         1 UNK         0.0600 
    184 H184        6.0222  -16.6707  -42.0628 H         1 UNK         0.3000 
    185 H185        5.9824  -13.2077  -42.7628 H         1 UNK         0.0600 
    186 H186        8.2098  -13.5882  -43.7952 H         1 UNK         0.0600 
    187 H187        8.3627  -13.4331  -42.0524 H         1 UNK         0.0600 
    188 H188        8.4541  -15.0237  -42.7992 H         1 UNK         0.0600 
    189 H189        6.5736  -15.6281  -44.2604 H         1 UNK         0.3000 
    190 H190       -1.0099  -20.0410  -49.9411 H         1 UNK         0.3000 
    191 H191       -3.2024  -21.4705  -51.1400 H         1 UNK         0.0600 
    192 H192       -3.2932  -18.8445  -49.5668 H         1 UNK         0.0600 
    193 H193       -4.4609  -19.4279  -50.7406 H         1 UNK         0.0600 
    194 H194       -2.8523  -18.9496  -51.2688 H         1 UNK         0.0600 
    195 H195       -2.3521  -20.4958  -47.7877 H         1 UNK         0.3000 
    196 H196       -4.6077  -21.5382  -46.4668 H         1 UNK         0.0600 
    197 H197       -3.1675  -21.4159  -44.4362 H         1 UNK         0.0600 
    198 H198       -2.9871  -19.9727  -45.4228 H         1 UNK         0.0600 
    199 H199       -1.7376  -21.2140  -45.4404 H         1 UNK         0.0600 
    200 H200       -1.4550  -23.1341  -47.1774 H         1 UNK         0.3000 
    201 H201       -2.0683  -25.6612  -46.0335 H         1 UNK         0.0600 
    202 H202        0.2367  -24.9371  -46.5818 H         1 UNK         0.0600 
    203 H203       -0.1453  -24.9149  -48.3020 H         1 UNK         0.0600 
    204 H204       -0.1316  -26.4378  -47.4187 H         1 UNK         0.0600 
    205 H205       -2.7380  -24.3146  -49.2419 H         1 UNK         0.3000 
    206 H206       -3.8454  -26.7773  -50.3555 H         1 UNK         0.0600 
    207 H207       -2.5837  -25.1689  -51.7552 H         1 UNK         0.0600 
    208 H208       -4.2427  -25.2638  -52.3104 H         1 UNK         0.0600 
    209 H209       -3.7264  -23.8859  -51.3613 H         1 UNK         0.0600 
    210 H210       -5.0611  -24.7560  -48.0670 H         1 UNK         0.3000 
    211 H211       -6.9989  -24.1893  -47.1965 H         1 UNK         0.0600 
    212 H212       -8.2287  -26.4492  -48.8653 H         1 UNK         0.0600 
    213 H213       -8.9068  -25.7410  -47.4054 H         1 UNK         0.0600 
    214 H214       -7.4170  -26.6644  -47.3146 H         1 UNK         0.0600 
    215 H215       -6.1715  -22.8761  -49.6673 H         1 UNK         0.3000 
    216 H216       -6.6987  -21.5290  -51.3054 H         1 UNK         0.0600 
    217 H217       -8.5720  -19.9578  -51.0130 H         1 UNK         0.0600 
    218 H218       -7.7999  -20.2434  -49.4630 H         1 UNK         0.0600 
    219 H219       -9.3381  -21.0201  -49.8392 H         1 UNK         0.0600 
    220 H220       -7.6699  -24.4198  -51.4597 H         1 UNK         0.3000 
    221 H221       -9.8484  -24.1933  -53.4978 H         1 UNK         0.0600 
    222 H222       -9.0515  -26.4942  -51.6346 H         1 UNK         0.0600 
    223 H223      -10.4500  -25.4419  -51.4456 H         1 UNK         0.0600 
    224 H224      -10.3540  -26.5346  -52.8191 H         1 UNK         0.0600 
    225 H225       -6.8471  -26.0471  -52.6848 H         1 UNK         0.3000 
    226 H226       -6.6885  -27.1624  -55.3765 H         1 UNK         0.0600 
    227 H227       -5.9960  -28.5033  -53.4433 H         1 UNK         0.0600 
    228 H228       -4.6165  -28.2313  -54.4944 H         1 UNK         0.0600 
    229 H229       -4.7694  -27.3256  -52.9965 H         1 UNK         0.0600 
    230 H230       -5.5002  -24.2650  -53.8450 H         1 UNK         0.3000 
    231 H231       -4.4250  -23.1633  -56.2199 H         1 UNK         0.0600 
    232 H232       -2.4169  -24.5836  -55.6691 H         1 UNK         0.0600 
    233 H233       -2.4049  -23.9507  -54.0246 H         1 UNK         0.0600 
    234 H234       -2.0528  -22.8930  -55.3840 H         1 UNK         0.0600 
    235 H235       -3.8520  -20.9105  -55.8409 H         1 UNK         0.3000 
    236 H236       -3.7712  -19.6567  -53.3364 H         1 UNK         0.0600 
    237 H237       -5.8889  -18.2682  -53.5781 H         1 UNK         0.0600 
    238 H238       -6.4009  -19.3025  -54.9051 H         1 UNK         0.0600 
    239 H239       -6.2600  -19.9528  -53.2738 H         1 UNK         0.0600 
    240 H240       -3.4579  -17.3025  -53.6677 H         1 UNK         0.3000 
    241 H241       -2.2272  -16.6223  -56.2426 H         1 UNK         0.0600 
    242 H242       -4.7012  -14.4964  -57.6542 H         1 UNK         0.3800 
    243 H243       -3.0627  -15.0732  -57.7607 H         1 UNK         0.3800 
    244 H244       -1.8937  -14.3469  -55.0639 H         1 UNK         0.0800 
    245 H245       -2.5181  -15.0784  -53.6136 H         1 UNK         0.0800 
    246 H246       -0.8867  -15.7143  -51.9101 H         1 UNK         0.0800 
    247 H247       -1.1383  -17.3513  -52.4767 H         1 UNK         0.0800 
@<TRIPOS>BOND
     1    1    2 1    
     2    1  127 1    
     3    1  128 1    
     4    1  129 1    
     5    2    3 2    
     6    2    4 am   BACKBONE|DICT|INTERRES
     7    4    5 1    
     8    4  130 1    
     9    5    6 1    
    10    5   65 1    
    11    5  131 1    
    12    6    7 1    
    13    6  132 1    
    14    6  133 1    
    15    7    8 1    
    16    8    9 1    
    17    8  134 1    
    18    8  135 1    
    19    9   10 ar   
    20    9   14 ar   
    21   10   11 ar   
    22   10  136 1    
    23   11   12 ar   
    24   11  126 1    
    25   12   13 ar   
    26   12  137 1    
    27   13   14 ar   
    28   13   15 1    
    29   14  138 1    
    30   15   16 1    
    31   15  139 1    
    32   15  140 1    
    33   16   17 1    
    34   17   18 1    
    35   17  141 1    
    36   17  142 1    
    37   18   19 1    
    38   18   67 1    
    39   18  143 1    
    40   19   20 am   BACKBONE|DICT|INTERRES
    41   19  144 1    
    42   20   21 2    
    43   20   22 1    
    44   22   23 1    
    45   22   24 1    
    46   22  145 1    
    47   23  146 1    
    48   23  147 1    
    49   23  148 1    
    50   24   25 am   BACKBONE|DICT|INTERRES
    51   24  149 1    
    52   25   26 2    
    53   25   27 1    
    54   27   28 1    
    55   27   29 1    
    56   27  150 1    
    57   28  151 1    
    58   28  152 1    
    59   28  153 1    
    60   29   30 am   BACKBONE|DICT|INTERRES
    61   29  154 1    
    62   30   31 2    
    63   30   32 1    
    64   32   33 1    
    65   32   34 1    
    66   32  155 1    
    67   33  156 1    
    68   33  157 1    
    69   33  158 1    
    70   34   35 am   BACKBONE|DICT|INTERRES
    71   34  159 1    
    72   35   36 2    
    73   35   37 1    
    74   37   38 1    
    75   37   39 1    
    76   37  160 1    
    77   38  161 1    
    78   38  162 1    
    79   38  163 1    
    80   39   40 am   BACKBONE|DICT|INTERRES
    81   39  164 1    
    82   40   41 2    
    83   40   42 1    
    84   42   43 1    
    85   42   44 1    
    86   42  165 1    
    87   43  166 1    
    88   43  167 1    
    89   43  168 1    
    90   44   45 am   BACKBONE|DICT|INTERRES
    91   44  169 1    
    92   45   46 2    
    93   45   47 1    
    94   47   48 1    
    95   47   49 1    
    96   47  170 1    
    97   48  171 1    
    98   48  172 1    
    99   48  173 1    
   100   49   50 am   BACKBONE|DICT|INTERRES
   101   49  174 1    
   102   50   51 2    
   103   50   52 1    
   104   52   53 1    
   105   52   54 1    
   106   52  175 1    
   107   53  176 1    
   108   53  177 1    
   109   53  178 1    
   110   54   55 am   BACKBONE|DICT|INTERRES
   111   54  179 1    
   112   55   56 2    
   113   55   57 1    
   114   57   58 1    
   115   57   59 1    
   116   57  180 1    
   117   58  181 1    
   118   58  182 1    
   119   58  183 1    
   120   59   60 am   BACKBONE|DICT|INTERRES
   121   59  184 1    
   122   60   61 2    
   123   60   62 1    
   124   62   63 1    
   125   62   64 1    
   126   62  185 1    
   127   63  186 1    
   128   63  187 1    
   129   63  188 1    
   130   64   65 am   BACKBONE|DICT|INTERRES
   131   64  189 1    
   132   65   66 2    
   133   67   68 2    
   134   67   69 am   BACKBONE|DICT|INTERRES
   135   69   70 1    
   136   69  190 1    
   137   70   71 1    
   138   70   72 1    
   139   70  191 1    
   140   71  192 1    
   141   71  193 1    
   142   71  194 1    
   143   72   73 2    
   144   72   74 am   BACKBONE|DICT|INTERRES
   145   74   75 1    
   146   74  195 1    
   147   75   76 1    
   148   75   77 1    
   149   75  196 1    
   150   76  197 1    
   151   76  198 1    
   152   76  199 1    
   153   77   78 2    
   154   77   79 am   BACKBONE|DICT|INTERRES
   155   79   80 1    
   156   79  200 1    
   157   80   81 1    
   158   80   82 1    
   159   80  201 1    
   160   81  202 1    
   161   81  203 1    
   162   81  204 1    
   163   82   83 2    
   164   82   84 am   BACKBONE|DICT|INTERRES
   165   84   85 1    
   166   84  205 1    
   167   85   86 1    
   168   85   87 1    
   169   85  206 1    
   170   86  207 1    
   171   86  208 1    
   172   86  209 1    
   173   87   88 2    
   174   87   89 am   BACKBONE|DICT|INTERRES
   175   89   90 1    
   176   89  210 1    
   177   90   91 1    
   178   90   92 1    
   179   90  211 1    
   180   91  212 1    
   181   91  213 1    
   182   91  214 1    
   183   92   93 2    
   184   92   94 am   BACKBONE|DICT|INTERRES
   185   94   95 1    
   186   94  215 1    
   187   95   96 1    
   188   95   97 1    
   189   95  216 1    
   190   96  217 1    
   191   96  218 1    
   192   96  219 1    
   193   97   98 2    
   194   97   99 am   BACKBONE|DICT|INTERRES
   195   99  100 1    
   196   99  220 1    
   197  100  101 1    
   198  100  102 1    
   199  100  221 1    
   200  101  222 1    
   201  101  223 1    
   202  101  224 1    
   203  102  103 2    
   204  102  104 am   BACKBONE|DICT|INTERRES
   205  104  105 1    
   206  104  225 1    
   207  105  106 1    
   208  105  107 1    
   209  105  226 1    
   210  106  227 1    
   211  106  228 1    
   212  106  229 1    
   213  107  108 2    
   214  107  109 am   BACKBONE|DICT|INTERRES
   215  109  110 1    
   216  109  230 1    
   217  110  111 1    
   218  110  112 1    
   219  110  231 1    
   220  111  232 1    
   221  111  233 1    
   222  111  234 1    
   223  112  113 2    
   224  112  114 am   BACKBONE|DICT|INTERRES
   225  114  115 1    
   226  114  235 1    
   227  115  116 1    
   228  115  117 1    
   229  115  236 1    
   230  116  237 1    
   231  116  238 1    
   232  116  239 1    
   233  117  118 2    
   234  117  119 am   BACKBONE|DICT|INTERRES
   235  119  120 1    
   236  119  240 1    
   237  120  121 1    
   238  120  124 1    
   239  120  241 1    
   240  121  122 am   BACKBONE|DICT|INTERRES
   241  121  123 2    
   242  122  242 1    
   243  122  243 1    
   244  124  125 1    
   245  124  244 1    
   246  124  245 1    
   247  125  126 1    
   248  126  246 1    
   249  126  247 1    
@<TRIPOS>SUBSTRUCTURE
     1 UNK         1 GROUP             0       ****    0 ROOT    
