@<TRIPOS>MOLECULE
3R540
247   249    1
SMALL
USER_CHARGES


@<TRIPOS>ATOM
      1 CA          2.2226  -12.4247  -45.0987 C.3       0 UNK        -0.1800 
      2 C           0.8196  -12.7140  -45.6064 C.2       0 UNK         0.5000 
      3 O          -0.1193  -12.7810  -44.8126 O.2       0 UNK        -0.5000 
      4 N           0.6609  -12.8977  -46.9228 N.am      1 UNK        -0.5000 
      5 CA         -0.6153  -13.2150  -47.5807 C.3       1 UNK         0.1400 
      6 C6         -0.4349  -13.5917  -49.0705 C.3       23 UNK        -0.0398 
      7 S7          0.7645  -14.9470  -49.3243 S.3       23 UNK        -0.2404 
      8 C8         -0.3075  -16.3008  -49.8952 C.3       23 UNK        -0.0205 
      9 C9          0.5164  -17.4043  -50.5396 C.ar      23 UNK        -0.0193 
     10 C10         0.8234  -17.3375  -51.9006 C.ar      23 UNK        -0.1150 
     11 C11         1.5694  -18.3472  -52.5141 C.ar      23 UNK        -0.0193 
     12 C12         2.0348  -19.4193  -51.7441 C.ar      23 UNK        -0.1150 
     13 C13         1.7546  -19.4872  -50.3752 C.ar      23 UNK        -0.0193 
     14 C14         0.9831  -18.4825  -49.7836 C.ar      23 UNK        -0.1150 
     15 C15         2.3336  -20.6116  -49.5261 C.3       23 UNK        -0.0205 
     16 S16         1.1841  -22.0063  -49.3151 S.3       23 UNK        -0.2404 
     17 C17        -0.0118  -21.3262  -48.1209 C.3       23 UNK        -0.0398 
     18 CA         -0.6956  -22.4339  -47.2887 C.3       11 UNK         0.1400 
     19 N           0.2463  -23.2092  -46.4783 N.am      11 UNK        -0.5000 
     20 C          -0.0432  -24.3862  -45.9057 C.2       10 UNK         0.5000 
     21 O          -1.1324  -24.9471  -46.0115 O.2       10 UNK        -0.5000 
     22 CA          1.0499  -25.0165  -45.0250 C.3       10 UNK         0.1400 
     23 CB          2.0680  -25.7744  -45.8899 C.3       10 UNK        -0.1800 
     24 N           1.7487  -24.0259  -44.2059 N.am      10 UNK        -0.5000 
     25 C           1.1692  -23.2784  -43.2556 C.2       9 UNK         0.5000 
     26 O          -0.0093  -23.3930  -42.9212 O.2       9 UNK        -0.5000 
     27 CA          2.0367  -22.1850  -42.6048 C.3       9 UNK         0.1400 
     28 CB          2.6925  -22.7134  -41.3207 C.3       9 UNK        -0.1800 
     29 N           3.0729  -21.6490  -43.4933 N.am      9 UNK        -0.5000 
     30 C           2.8348  -20.9987  -44.6393 C.2       8 UNK         0.5000 
     31 O           1.7072  -20.8164  -45.1089 O.2       8 UNK        -0.5000 
     32 CA          4.0633  -20.5148  -45.4159 C.3       8 UNK         0.1400 
     33 CB          4.5216  -21.5793  -46.4278 C.3       8 UNK        -0.1800 
     34 N           3.7016  -19.2856  -46.1078 N.am      8 UNK        -0.5000 
     35 C           4.5409  -18.2977  -46.4401 C.2       7 UNK         0.5000 
     36 O           5.7588  -18.3506  -46.2642 O.2       7 UNK        -0.5000 
     37 CA          3.9240  -17.0306  -47.0692 C.3       7 UNK         0.1400 
     38 CB          4.1783  -17.0012  -48.5842 C.3       7 UNK        -0.1800 
     39 N           2.4845  -16.9003  -46.8234 N.am      7 UNK        -0.5000 
     40 C           1.9456  -16.5681  -45.6429 C.2       6 UNK         0.5000 
     41 O           2.6182  -16.2888  -44.6487 O.2       6 UNK        -0.5000 
     42 CA          0.4042  -16.5432  -45.5972 C.3       6 UNK         0.1400 
     43 CB         -0.1919  -17.9621  -45.6762 C.3       6 UNK        -0.1800 
     44 N          -0.1310  -15.8072  -44.4473 N.am      6 UNK        -0.5000 
     45 C          -0.1127  -16.1393  -43.1460 C.2       5 UNK         0.5000 
     46 O           0.3204  -17.2004  -42.6968 O.2       5 UNK        -0.5000 
     47 CA         -0.6975  -15.0974  -42.1737 C.3       5 UNK         0.1400 
     48 CB          0.4234  -14.2345  -41.5731 C.3       5 UNK        -0.1800 
     49 N          -1.6609  -14.2185  -42.8361 N.am      5 UNK        -0.5000 
     50 C          -2.9637  -14.4836  -42.9993 C.2       4 UNK         0.5000 
     51 O          -3.5141  -15.4835  -42.5357 O.2       4 UNK        -0.5000 
     52 CA         -3.7795  -13.4816  -43.8479 C.3       4 UNK         0.1400 
     53 CB         -5.2386  -13.3377  -43.3674 C.3       4 UNK        -0.1800 
     54 N          -3.1325  -12.1720  -43.9951 N.am      4 UNK        -0.5000 
     55 C          -2.8859  -11.2603  -43.0400 C.2       3 UNK         0.5000 
     56 O          -3.2634  -11.3708  -41.8732 O.2       3 UNK        -0.5000 
     57 CA         -2.0406  -10.0331  -43.4398 C.3       3 UNK         0.1400 
     58 CB         -0.7219  -10.0067  -42.6479 C.3       3 UNK        -0.1800 
     59 N          -1.7201  -10.0130  -44.8682 N.am      3 UNK        -0.5000 
     60 C          -2.4714   -9.4444  -45.8205 C.2       2 UNK         0.5000 
     61 O          -3.5059   -8.8172  -45.5923 O.2       2 UNK        -0.5000 
     62 CA         -1.9955   -9.6216  -47.2769 C.3       2 UNK         0.1400 
     63 CB         -1.1897   -8.3949  -47.7308 C.3       2 UNK        -0.1800 
     64 N          -1.1842  -10.8259  -47.4808 N.am      2 UNK        -0.5000 
     65 C          -1.6509  -12.0819  -47.4244 C.2       1 UNK         0.5000 
     66 O          -2.8283  -12.3623  -47.2007 O.2       1 UNK        -0.5000 
     67 C          -1.8236  -21.8468  -46.4222 C.2       11 UNK         0.5000 
     68 O          -2.9717  -21.8446  -46.8645 O.2       11 UNK        -0.5000 
     69 N          -1.4947  -21.4011  -45.1999 N.am      12 UNK        -0.5000 
     70 CA         -2.4709  -20.9331  -44.2131 C.3       12 UNK         0.1400 
     71 CB         -1.7540  -20.3067  -43.0070 C.3       12 UNK        -0.1800 
     72 C          -3.4205  -22.0566  -43.7601 C.2       12 UNK         0.5000 
     73 O          -4.6368  -21.8663  -43.7780 O.2       12 UNK        -0.5000 
     74 N          -2.8499  -23.2178  -43.4076 N.am      13 UNK        -0.5000 
     75 CA         -3.5765  -24.4164  -42.9822 C.3       13 UNK         0.1400 
     76 CB         -2.5723  -25.4761  -42.5043 C.3       13 UNK        -0.1800 
     77 C          -4.4918  -24.9940  -44.0776 C.2       13 UNK         0.5000 
     78 O          -5.6065  -25.4220  -43.7765 O.2       13 UNK        -0.5000 
     79 N          -4.0161  -24.9703  -45.3290 N.am      14 UNK        -0.5000 
     80 CA         -4.7527  -25.4195  -46.5103 C.3       14 UNK         0.1400 
     81 CB         -3.7405  -25.7835  -47.6063 C.3       14 UNK        -0.1800 
     82 C          -5.7638  -24.3857  -47.0444 C.2       14 UNK         0.5000 
     83 O          -6.4744  -24.6986  -47.9987 O.2       14 UNK        -0.5000 
     84 N          -5.7904  -23.1714  -46.4731 N.am      15 UNK        -0.5000 
     85 CA         -6.6039  -22.0213  -46.8892 C.3       15 UNK         0.1400 
     86 CB         -8.0965  -22.2735  -46.5919 C.3       15 UNK        -0.1800 
     87 C          -6.3342  -21.6141  -48.3553 C.2       15 UNK         0.5000 
     88 O          -7.2668  -21.4044  -49.1324 O.2       15 UNK        -0.5000 
     89 N          -5.0405  -21.5513  -48.6982 N.am      16 UNK        -0.5000 
     90 CA         -4.4515  -21.2461  -50.0043 C.3       16 UNK         0.1400 
     91 CB         -4.8617  -19.8455  -50.5027 C.3       16 UNK        -0.1800 
     92 C          -4.6545  -22.3318  -51.0810 C.2       16 UNK         0.5000 
     93 O          -4.2808  -22.0978  -52.2299 O.2       16 UNK        -0.5000 
     94 N          -5.1751  -23.5158  -50.7238 N.am      17 UNK        -0.5000 
     95 CA         -5.3190  -24.6420  -51.6555 C.3       17 UNK         0.1400 
     96 CB         -6.2921  -25.6788  -51.0772 C.3       17 UNK        -0.1800 
     97 C          -3.9721  -25.3028  -52.0138 C.2       17 UNK         0.5000 
     98 O          -3.8393  -25.8496  -53.1077 O.2       17 UNK        -0.5000 
     99 N          -2.9959  -25.2261  -51.0980 N.am      18 UNK        -0.5000 
    100 CA        -1.6382  -25.7513  -51.2773 C.3       18 UNK         0.1400 
    101 CB        -1.0626  -26.1182  -49.8992 C.3       18 UNK        -0.1800 
    102 C         -0.6971  -24.7664  -51.9996 C.2       18 UNK         0.5000 
    103 O          0.3791  -25.1759  -52.4352 O.2       18 UNK        -0.5000 
    104 N         -1.1019  -23.4922  -52.0866 N.am      19 UNK        -0.5000 
    105 CA        -0.3361  -22.3894  -52.6669 C.3       19 UNK         0.1400 
    106 CB        -1.0334  -21.0547  -52.3589 C.3       19 UNK        -0.1800 
    107 C          0.0412  -22.5508  -54.1607 C.2       19 UNK         0.5000 
    108 O          1.2211  -22.4012  -54.4741 O.2       19 UNK        -0.5000 
    109 N         -0.8647  -22.8905  -55.0918 N.am      20 UNK        -0.5000 
    110 CA        -2.3211  -22.9398  -54.9976 C.3       20 UNK         0.1400 
    111 CB        -2.8291  -24.1397  -55.8104 C.3       20 UNK        -0.1800 
    112 C         -2.8995  -21.6316  -55.5545 C.2       20 UNK         0.5000 
    113 O         -2.5173  -21.2180  -56.6523 O.2       20 UNK        -0.5000 
    114 N         -3.8085  -21.0184  -54.7871 N.am      21 UNK        -0.5000 
    115 CA        -4.4916  -19.7402  -55.0067 C.3       21 UNK         0.1400 
    116 CB        -5.3795  -19.7804  -56.2661 C.3       21 UNK        -0.1800 
    117 C         -3.5497  -18.5199  -55.0063 C.2       21 UNK         0.5000 
    118 O         -3.6917  -17.6530  -54.1437 O.2       21 UNK        -0.5000 
    119 N         -2.6198  -18.4732  -55.9693 N.am      22 UNK        -0.5000 
    120 CA        -1.6312  -17.4011  -56.1960 C.3       22 UNK         0.1400 
    121 C         -2.2440  -16.0071  -56.5455 C.2       22 UNK         0.5000 
    122 N         -3.4817  -15.9313  -57.0200 N.am      22 UNK        -0.7600 
    123 O         -1.5839  -14.9785  -56.4229 O.2       22 UNK        -0.5000 
    124 C124       -0.5589  -17.3316  -55.0720 C.3       23 UNK        -0.0398 
    125 S125        0.4998  -18.8183  -55.0432 S.3       23 UNK        -0.2404 
    126 C126        1.8910  -18.2676  -54.0008 C.3       23 UNK        -0.0205 
    127 H127        2.2317  -11.4928  -44.5337 H         1 UNK         0.0600 
    128 H128        2.9389  -12.3376  -45.9158 H         1 UNK         0.0600 
    129 H129        2.5519  -13.2285  -44.4402 H         1 UNK         0.0600 
    130 H130        1.4653  -12.8513  -47.5327 H         1 UNK         0.3000 
    131 H131       -1.0368  -14.0828  -47.0713 H         1 UNK         0.0600 
    132 H132       -0.0822  -12.7303  -49.6405 H         1 UNK         0.0800 
    133 H133       -1.3950  -13.8685  -49.5095 H         1 UNK         0.0800 
    134 H134       -1.0304  -15.9220  -50.6195 H         1 UNK         0.0800 
    135 H135       -0.8845  -16.6917  -49.0558 H         1 UNK         0.0800 
    136 H136        0.4809  -16.4938  -52.4818 H         1 UNK         0.1150 
    137 H137        2.6246  -20.1969  -52.2091 H         1 UNK         0.1150 
    138 H138        0.7613  -18.5318  -48.7307 H         1 UNK         0.1150 
    139 H139        3.2486  -20.9864  -49.9871 H         1 UNK         0.0800 
    140 H140        2.6296  -20.2268  -48.5506 H         1 UNK         0.0800 
    141 H141       -0.7510  -20.7516  -48.6823 H         1 UNK         0.0800 
    142 H142        0.4982  -20.6226  -47.4632 H         1 UNK         0.0800 
    143 H143       -1.1692  -23.1235  -47.9908 H         1 UNK         0.0600 
    144 H144        1.1433  -22.7808  -46.2999 H         1 UNK         0.3000 
    145 H145        0.5677  -25.7307  -44.3543 H         1 UNK         0.0600 
    146 H146        2.8039  -26.2897  -45.2724 H         1 UNK         0.0600 
    147 H147        1.5731  -26.5293  -46.5025 H         1 UNK         0.0600 
    148 H148        2.6039  -25.1047  -46.5639 H         1 UNK         0.0600 
    149 H149        2.7237  -23.8680  -44.4112 H         1 UNK         0.3000 
    150 H150        1.3736  -21.3603  -42.3354 H         1 UNK         0.0600 
    151 H151        1.9418  -23.0981  -40.6288 H         1 UNK         0.0600 
    152 H152        3.2359  -21.9239  -40.8012 H         1 UNK         0.0600 
    153 H153        3.3925  -23.5234  -41.5293 H         1 UNK         0.0600 
    154 H154        4.0281  -21.7688  -43.1876 H         1 UNK         0.3000 
    155 H155        4.8689  -20.3088  -44.7078 H         1 UNK         0.0600 
    156 H156        3.7213  -21.8565  -47.1145 H         1 UNK         0.0600 
    157 H157        4.8437  -22.4881  -45.9183 H         1 UNK         0.0600 
    158 H158        5.3645  -21.2255  -47.0217 H         1 UNK         0.0600 
    159 H159        2.7063  -19.1530  -46.2236 H         1 UNK         0.3000 
    160 H160        4.4261  -16.1675  -46.6267 H         1 UNK         0.0600 
    161 H161        3.7428  -17.8652  -49.0846 H         1 UNK         0.0600 
    162 H162        5.2476  -17.0069  -48.7992 H         1 UNK         0.0600 
    163 H163        3.7613  -16.1030  -49.0403 H         1 UNK         0.0600 
    164 H164        1.8842  -17.0500  -47.6202 H         1 UNK         0.3000 
    165 H165        0.0698  -15.9975  -46.4782 H         1 UNK         0.0600 
    166 H166       -1.2723  -17.9514  -45.5314 H         1 UNK         0.0600 
    167 H167       -0.0039  -18.4169  -46.6455 H         1 UNK         0.0600 
    168 H168        0.2427  -18.6201  -44.9252 H         1 UNK         0.0600 
    169 H169       -0.4567  -14.8717  -44.6543 H         1 UNK         0.3000 
    170 H170       -1.1913  -15.6333  -41.3604 H         1 UNK         0.0600 
    171 H171        1.1518  -14.8525  -41.0468 H         1 UNK         0.0600 
    172 H172        0.9601  -13.6779  -42.3423 H         1 UNK         0.0600 
    173 H173        0.0259  -13.5160  -40.8560 H         1 UNK         0.0600 
    174 H174       -1.2754  -13.4040  -43.3024 H         1 UNK         0.3000 
    175 H175       -3.8105  -13.9058  -44.8524 H         1 UNK         0.0600 
    176 H176       -5.2955  -13.0065  -42.3304 H         1 UNK         0.0600 
    177 H177       -5.7867  -12.6222  -43.9803 H         1 UNK         0.0600 
    178 H178       -5.7666  -14.2897  -43.4326 H         1 UNK         0.0600 
    179 H179       -2.7779  -11.9774  -44.9222 H         1 UNK         0.3000 
    180 H180       -2.6128   -9.1406  -43.1785 H         1 UNK         0.0600 
    181 H181       -0.1234   -9.1334  -42.9076 H         1 UNK         0.0600 
    182 H182       -0.1183  -10.8952  -42.8364 H         1 UNK         0.0600 
    183 H183       -0.9097   -9.9615  -41.5745 H         1 UNK         0.0600 
    184 H184       -0.9027  -10.5377  -45.1463 H         1 UNK         0.3000 
    185 H185       -2.8847   -9.6989  -47.9062 H         1 UNK         0.0600 
    186 H186       -0.9098   -8.4732  -48.7815 H         1 UNK         0.0600 
    187 H187       -1.7738   -7.4804  -47.6191 H         1 UNK         0.0600 
    188 H188       -0.2763   -8.2744  -47.1470 H         1 UNK         0.0600 
    189 H189       -0.1984  -10.6852  -47.6488 H         1 UNK         0.3000 
    190 H190       -0.5236  -21.4258  -44.9160 H         1 UNK         0.3000 
    191 H191       -3.0753  -20.1553  -44.6850 H         1 UNK         0.0600 
    192 H192       -2.4750  -19.9313  -42.2799 H         1 UNK         0.0600 
    193 H193       -1.1340  -19.4638  -43.3049 H         1 UNK         0.0600 
    194 H194       -1.1165  -21.0238  -42.4915 H         1 UNK         0.0600 
    195 H195       -1.8345  -23.2778  -43.3903 H         1 UNK         0.3000 
    196 H196       -4.2079  -24.1384  -42.1359 H         1 UNK         0.0600 
    197 H197       -1.8855  -25.7659  -43.3005 H         1 UNK         0.0600 
    198 H198       -1.9773  -25.1063  -41.6690 H         1 UNK         0.0600 
    199 H199       -3.0844  -26.3775  -42.1656 H         1 UNK         0.0600 
    200 H200       -3.0607  -24.6639  -45.4845 H         1 UNK         0.3000 
    201 H201       -5.3134  -26.3209  -46.2546 H         1 UNK         0.0600 
    202 H202       -3.1718  -24.9104  -47.9273 H         1 UNK         0.0600 
    203 H203       -4.2366  -26.2006  -48.4823 H         1 UNK         0.0600 
    204 H204       -3.0328  -26.5338  -47.2534 H         1 UNK         0.0600 
    205 H205       -5.1526  -22.9955  -45.7070 H         1 UNK         0.3000 
    206 H206       -6.2818  -21.1803  -46.2734 H         1 UNK         0.0600 
    207 H207       -8.2493  -22.5366  -45.5453 H         1 UNK         0.0600 
    208 H208       -8.6902  -21.3808  -46.7921 H         1 UNK         0.0600 
    209 H209       -8.5027  -23.0799  -47.2032 H         1 UNK         0.0600 
    210 H210       -4.3575  -21.7377  -47.9632 H         1 UNK         0.3000 
    211 H211       -3.3753  -21.2164  -49.8285 H         1 UNK         0.0600 
    212 H212       -4.2819  -19.5562  -51.3805 H         1 UNK         0.0600 
    213 H213       -4.6870  -19.0882  -49.7386 H         1 UNK         0.0600 
    214 H214       -5.9145  -19.8056  -50.7828 H         1 UNK         0.0600 
    215 H215       -5.5151  -23.6510  -49.7797 H         1 UNK         0.3000 
    216 H216       -5.7540  -24.2620  -52.5826 H         1 UNK         0.0600 
    217 H217       -5.8945  -26.1531  -50.1806 H         1 UNK         0.0600 
    218 H218       -6.4920  -26.4696  -51.8012 H         1 UNK         0.0600 
    219 H219       -7.2488  -25.2236  -50.8203 H         1 UNK         0.0600 
    220 H220       -3.1971  -24.7706  -50.2215 H         1 UNK         0.3000 
    221 H221       -1.6815  -26.6622  -51.8783 H         1 UNK         0.0600 
    222 H222       -1.6729  -26.8746  -49.4062 H         1 UNK         0.0600 
    223 H223       -0.9998  -25.2512  -49.2408 H         1 UNK         0.0600 
    224 H224       -0.0566  -26.5294  -49.9914 H         1 UNK         0.0600 
    225 H225       -2.0163  -23.2631  -51.7307 H         1 UNK         0.3000 
    226 H226        0.6139  -22.3686  -52.1308 H         1 UNK         0.0600 
    227 H227       -2.0397  -21.0042  -52.7613 H         1 UNK         0.0600 
    228 H228       -1.0956  -20.8823  -51.2848 H         1 UNK         0.0600 
    229 H229       -0.4826  -20.2190  -52.7811 H         1 UNK         0.0600 
    230 H230       -0.5269  -22.9597  -56.0402 H         1 UNK         0.3000 
    231 H231       -2.6585  -23.0738  -53.9751 H         1 UNK         0.0600 
    232 H232       -2.5634  -24.0599  -56.8653 H         1 UNK         0.0600 
    233 H233       -3.9152  -24.2187  -55.7482 H         1 UNK         0.0600 
    234 H234       -2.4146  -25.0737  -55.4304 H         1 UNK         0.0600 
    235 H235       -4.0244  -21.4474  -53.8873 H         1 UNK         0.3000 
    236 H236       -5.1567  -19.6190  -54.1498 H         1 UNK         0.0600 
    237 H237       -6.1026  -20.5940  -56.2088 H         1 UNK         0.0600 
    238 H238       -5.9432  -18.8529  -56.3727 H         1 UNK         0.0600 
    239 H239       -4.7990  -19.9151  -57.1788 H         1 UNK         0.0600 
    240 H240       -2.5460  -19.2840  -56.5768 H         1 UNK         0.3000 
    241 H241       -1.1113  -17.6840  -57.1119 H         1 UNK         0.0600 
    242 H242       -3.8688  -15.0308  -57.2556 H         1 UNK         0.3800 
    243 H243       -4.0341  -16.7640  -57.1463 H         1 UNK         0.3800 
    244 H244       -1.0337  -17.2046  -54.0993 H         1 UNK         0.0800 
    245 H245        0.0960  -16.4705  -55.2116 H         1 UNK         0.0800 
    246 H246        2.7553  -18.8943  -54.2255 H         1 UNK         0.0800 
    247 H247        2.1812  -17.2506  -54.2679 H         1 UNK         0.0800 
@<TRIPOS>BOND
     1    1    2 1    
     2    1  127 1    
     3    1  128 1    
     4    1  129 1    
     5    2    3 2    
     6    2    4 am   BACKBONE|DICT|INTERRES
     7    4    5 1    
     8    4  130 1    
     9    5    6 1    
    10    5   65 1    
    11    5  131 1    
    12    6    7 1    
    13    6  132 1    
    14    6  133 1    
    15    7    8 1    
    16    8    9 1    
    17    8  134 1    
    18    8  135 1    
    19    9   10 ar   
    20    9   14 ar   
    21   10   11 ar   
    22   10  136 1    
    23   11   12 ar   
    24   11  126 1    
    25   12   13 ar   
    26   12  137 1    
    27   13   14 ar   
    28   13   15 1    
    29   14  138 1    
    30   15   16 1    
    31   15  139 1    
    32   15  140 1    
    33   16   17 1    
    34   17   18 1    
    35   17  141 1    
    36   17  142 1    
    37   18   19 1    
    38   18   67 1    
    39   18  143 1    
    40   19   20 am   BACKBONE|DICT|INTERRES
    41   19  144 1    
    42   20   21 2    
    43   20   22 1    
    44   22   23 1    
    45   22   24 1    
    46   22  145 1    
    47   23  146 1    
    48   23  147 1    
    49   23  148 1    
    50   24   25 am   BACKBONE|DICT|INTERRES
    51   24  149 1    
    52   25   26 2    
    53   25   27 1    
    54   27   28 1    
    55   27   29 1    
    56   27  150 1    
    57   28  151 1    
    58   28  152 1    
    59   28  153 1    
    60   29   30 am   BACKBONE|DICT|INTERRES
    61   29  154 1    
    62   30   31 2    
    63   30   32 1    
    64   32   33 1    
    65   32   34 1    
    66   32  155 1    
    67   33  156 1    
    68   33  157 1    
    69   33  158 1    
    70   34   35 am   BACKBONE|DICT|INTERRES
    71   34  159 1    
    72   35   36 2    
    73   35   37 1    
    74   37   38 1    
    75   37   39 1    
    76   37  160 1    
    77   38  161 1    
    78   38  162 1    
    79   38  163 1    
    80   39   40 am   BACKBONE|DICT|INTERRES
    81   39  164 1    
    82   40   41 2    
    83   40   42 1    
    84   42   43 1    
    85   42   44 1    
    86   42  165 1    
    87   43  166 1    
    88   43  167 1    
    89   43  168 1    
    90   44   45 am   BACKBONE|DICT|INTERRES
    91   44  169 1    
    92   45   46 2    
    93   45   47 1    
    94   47   48 1    
    95   47   49 1    
    96   47  170 1    
    97   48  171 1    
    98   48  172 1    
    99   48  173 1    
   100   49   50 am   BACKBONE|DICT|INTERRES
   101   49  174 1    
   102   50   51 2    
   103   50   52 1    
   104   52   53 1    
   105   52   54 1    
   106   52  175 1    
   107   53  176 1    
   108   53  177 1    
   109   53  178 1    
   110   54   55 am   BACKBONE|DICT|INTERRES
   111   54  179 1    
   112   55   56 2    
   113   55   57 1    
   114   57   58 1    
   115   57   59 1    
   116   57  180 1    
   117   58  181 1    
   118   58  182 1    
   119   58  183 1    
   120   59   60 am   BACKBONE|DICT|INTERRES
   121   59  184 1    
   122   60   61 2    
   123   60   62 1    
   124   62   63 1    
   125   62   64 1    
   126   62  185 1    
   127   63  186 1    
   128   63  187 1    
   129   63  188 1    
   130   64   65 am   BACKBONE|DICT|INTERRES
   131   64  189 1    
   132   65   66 2    
   133   67   68 2    
   134   67   69 am   BACKBONE|DICT|INTERRES
   135   69   70 1    
   136   69  190 1    
   137   70   71 1    
   138   70   72 1    
   139   70  191 1    
   140   71  192 1    
   141   71  193 1    
   142   71  194 1    
   143   72   73 2    
   144   72   74 am   BACKBONE|DICT|INTERRES
   145   74   75 1    
   146   74  195 1    
   147   75   76 1    
   148   75   77 1    
   149   75  196 1    
   150   76  197 1    
   151   76  198 1    
   152   76  199 1    
   153   77   78 2    
   154   77   79 am   BACKBONE|DICT|INTERRES
   155   79   80 1    
   156   79  200 1    
   157   80   81 1    
   158   80   82 1    
   159   80  201 1    
   160   81  202 1    
   161   81  203 1    
   162   81  204 1    
   163   82   83 2    
   164   82   84 am   BACKBONE|DICT|INTERRES
   165   84   85 1    
   166   84  205 1    
   167   85   86 1    
   168   85   87 1    
   169   85  206 1    
   170   86  207 1    
   171   86  208 1    
   172   86  209 1    
   173   87   88 2    
   174   87   89 am   BACKBONE|DICT|INTERRES
   175   89   90 1    
   176   89  210 1    
   177   90   91 1    
   178   90   92 1    
   179   90  211 1    
   180   91  212 1    
   181   91  213 1    
   182   91  214 1    
   183   92   93 2    
   184   92   94 am   BACKBONE|DICT|INTERRES
   185   94   95 1    
   186   94  215 1    
   187   95   96 1    
   188   95   97 1    
   189   95  216 1    
   190   96  217 1    
   191   96  218 1    
   192   96  219 1    
   193   97   98 2    
   194   97   99 am   BACKBONE|DICT|INTERRES
   195   99  100 1    
   196   99  220 1    
   197  100  101 1    
   198  100  102 1    
   199  100  221 1    
   200  101  222 1    
   201  101  223 1    
   202  101  224 1    
   203  102  103 2    
   204  102  104 am   BACKBONE|DICT|INTERRES
   205  104  105 1    
   206  104  225 1    
   207  105  106 1    
   208  105  107 1    
   209  105  226 1    
   210  106  227 1    
   211  106  228 1    
   212  106  229 1    
   213  107  108 2    
   214  107  109 am   BACKBONE|DICT|INTERRES
   215  109  110 1    
   216  109  230 1    
   217  110  111 1    
   218  110  112 1    
   219  110  231 1    
   220  111  232 1    
   221  111  233 1    
   222  111  234 1    
   223  112  113 2    
   224  112  114 am   BACKBONE|DICT|INTERRES
   225  114  115 1    
   226  114  235 1    
   227  115  116 1    
   228  115  117 1    
   229  115  236 1    
   230  116  237 1    
   231  116  238 1    
   232  116  239 1    
   233  117  118 2    
   234  117  119 am   BACKBONE|DICT|INTERRES
   235  119  120 1    
   236  119  240 1    
   237  120  121 1    
   238  120  124 1    
   239  120  241 1    
   240  121  122 am   BACKBONE|DICT|INTERRES
   241  121  123 2    
   242  122  242 1    
   243  122  243 1    
   244  124  125 1    
   245  124  244 1    
   246  124  245 1    
   247  125  126 1    
   248  126  246 1    
   249  126  247 1    
@<TRIPOS>SUBSTRUCTURE
     1 UNK         1 GROUP             0       ****    0 ROOT    
