@<TRIPOS>MOLECULE
3R540
247   249    1
SMALL
USER_CHARGES


@<TRIPOS>ATOM
      1 CA          1.7415  -13.4293  -52.5592 C.3       0 UNK        -0.1800 
      2 C           1.8856  -13.4152  -51.0443 C.2       0 UNK         0.5000 
      3 O           2.6612  -12.6241  -50.5091 O.2       0 UNK        -0.5000 
      4 N           1.1391  -14.2877  -50.3608 N.am      1 UNK        -0.5000 
      5 CA          1.1125  -14.4522  -48.9035 C.3       1 UNK         0.1400 
      6 C6          1.5354  -15.8875  -48.4882 C.3       23 UNK        -0.0398 
      7 S7          3.3502  -16.0453  -48.3536 S.3       23 UNK        -0.2404 
      8 C8          3.8893  -16.4472  -50.0457 C.3       23 UNK        -0.0205 
      9 C9          3.3536  -17.7810  -50.5377 C.ar      23 UNK        -0.0193 
     10 C10         2.3626  -17.8214  -51.5218 C.ar      23 UNK        -0.1150 
     11 C11         1.8879  -19.0447  -52.0026 C.ar      23 UNK        -0.0193 
     12 C12         2.4140  -20.2332  -51.4861 C.ar      23 UNK        -0.1150 
     13 C13         3.3901  -20.2065  -50.4875 C.ar      23 UNK        -0.0193 
     14 C14         3.8677  -18.9757  -50.0281 C.ar      23 UNK        -0.1150 
     15 C15         3.9144  -21.5117  -49.9047 C.3       23 UNK        -0.0205 
     16 S16         3.7093  -21.6031  -48.0969 S.3       23 UNK        -0.2404 
     17 C17         1.9122  -21.3343  -47.8803 C.3       23 UNK        -0.0398 
     18 CA          1.2055  -22.5152  -47.1727 C.3       11 UNK         0.1400 
     19 N           1.8680  -22.8996  -45.9246 N.am      11 UNK        -0.5000 
     20 C           1.8201  -24.1167  -45.3713 C.2       10 UNK         0.5000 
     21 O           1.2331  -25.0735  -45.8760 O.2       10 UNK        -0.5000 
     22 CA          2.5399  -24.2930  -44.0195 C.3       10 UNK         0.1400 
     23 CB          3.9828  -24.7713  -44.2399 C.3       10 UNK        -0.1800 
     24 N           2.5600  -23.0715  -43.2104 N.am      10 UNK        -0.5000 
     25 C           1.4782  -22.5250  -42.6387 C.2       9 UNK         0.5000 
     26 O           0.3496  -23.0086  -42.7155 O.2       9 UNK        -0.5000 
     27 CA          1.6840  -21.1962  -41.8846 C.3       9 UNK         0.1400 
     28 CB          2.1191  -21.4725  -40.4377 C.3       9 UNK        -0.1800 
     29 N           2.6358  -20.2681  -42.5077 N.am      9 UNK        -0.5000 
     30 C           2.6142  -19.8468  -43.7812 C.2       8 UNK         0.5000 
     31 O           1.8188  -20.2628  -44.6236 O.2       8 UNK        -0.5000 
     32 CA          3.6454  -18.7711  -44.1550 C.3       8 UNK         0.1400 
     33 CB          3.5173  -18.2983  -45.6121 C.3       8 UNK        -0.1800 
     34 N           3.4622  -17.6279  -43.2687 N.am      8 UNK        -0.5000 
     35 C           4.4032  -17.0911  -42.4812 C.2       7 UNK         0.5000 
     36 O           5.5748  -17.4698  -42.4594 O.2       7 UNK        -0.5000 
     37 CA          3.9638  -15.9494  -41.5392 C.3       7 UNK         0.1400 
     38 CB          4.3335  -14.5855  -42.1424 C.3       7 UNK        -0.1800 
     39 N           2.5301  -15.9589  -41.2418 N.am      7 UNK        -0.5000 
     40 C           1.8810  -16.9300  -40.5841 C.2       6 UNK         0.5000 
     41 O           2.4480  -17.8805  -40.0456 O.2       6 UNK        -0.5000 
     42 CA          0.3411  -16.8482  -40.5486 C.3       6 UNK         0.1400 
     43 CB         -0.1438  -16.4457  -39.1475 C.3       6 UNK        -0.1800 
     44 N          -0.2449  -15.9317  -41.5348 N.am      6 UNK        -0.5000 
     45 C          -0.1866  -16.0770  -42.8658 C.2       5 UNK         0.5000 
     46 O           0.4444  -16.9734  -43.4311 O.2       5 UNK        -0.5000 
     47 CA         -0.9038  -14.9951  -43.6969 C.3       5 UNK         0.1400 
     48 CB          0.1188  -13.9888  -44.2477 C.3       5 UNK        -0.1800 
     49 N          -1.6764  -15.5495  -44.8086 N.am      5 UNK        -0.5000 
     50 C          -2.7004  -16.4052  -44.6840 C.2       4 UNK         0.5000 
     51 O          -3.1431  -16.7921  -43.6004 O.2       4 UNK        -0.5000 
     52 CA         -3.3459  -16.8719  -46.0031 C.3       4 UNK         0.1400 
     53 CB         -4.3743  -18.0092  -45.8186 C.3       4 UNK        -0.1800 
     54 N          -3.9468  -15.7615  -46.7487 N.am      4 UNK        -0.5000 
     55 C          -4.9647  -14.9763  -46.3630 C.2       3 UNK         0.5000 
     56 O          -5.5506  -15.0851  -45.2847 O.2       3 UNK        -0.5000 
     57 CA         -5.3809  -13.8696  -47.3552 C.3       3 UNK         0.1400 
     58 CB         -6.5251  -12.9862  -46.8244 C.3       3 UNK        -0.1800 
     59 N          -4.2435  -13.0134  -47.6840 N.am      3 UNK        -0.5000 
     60 C          -3.3079  -13.2896  -48.5991 C.2       2 UNK         0.5000 
     61 O          -3.3600  -14.2744  -49.3382 O.2       2 UNK        -0.5000 
     62 CA         -2.1089  -12.3218  -48.6881 C.3       2 UNK         0.1400 
     63 CB         -1.9119  -11.4586  -47.4209 C.3       2 UNK        -0.1800 
     64 N          -0.8559  -13.0044  -49.0183 N.am      2 UNK        -0.5000 
     65 C          -0.2708  -14.0222  -48.3655 C.2       1 UNK         0.5000 
     66 O          -0.7600  -14.5765  -47.3780 O.2       1 UNK        -0.5000 
     67 C          -0.2672  -22.1706  -46.8861 C.2       11 UNK         0.5000 
     68 O          -1.1587  -22.6228  -47.6055 O.2       11 UNK        -0.5000 
     69 N          -0.4924  -21.4237  -45.7956 N.am      12 UNK        -0.5000 
     70 CA         -1.7989  -21.0120  -45.2831 C.3       12 UNK         0.1400 
     71 CB         -1.5814  -20.0369  -44.1166 C.3       12 UNK        -0.1800 
     72 C          -2.6971  -22.1852  -44.8445 C.2       12 UNK         0.5000 
     73 O          -3.9176  -22.0337  -44.8215 O.2       12 UNK        -0.5000 
     74 N          -2.0901  -23.3372  -44.5264 N.am      13 UNK        -0.5000 
     75 CA         -2.7801  -24.5985  -44.2564 C.3       13 UNK         0.1400 
     76 CB         -1.7725  -25.6191  -43.7064 C.3       13 UNK        -0.1800 
     77 C          -3.5047  -25.1651  -45.4946 C.2       13 UNK         0.5000 
     78 O          -4.5390  -25.8153  -45.3384 O.2       13 UNK        -0.5000 
     79 N          -2.9646  -24.9008  -46.6932 N.am      14 UNK        -0.5000 
     80 CA         -3.6015  -25.2168  -47.9701 C.3       14 UNK         0.1400 
     81 CB         -2.5289  -25.5568  -49.0189 C.3       14 UNK        -0.1800 
     82 C          -4.4692  -24.0393  -48.4381 C.2       14 UNK         0.5000 
     83 O          -5.6332  -24.2435  -48.7870 O.2       14 UNK        -0.5000 
     84 N          -3.8832  -22.8313  -48.4323 N.am      15 UNK        -0.5000 
     85 CA         -4.4649  -21.5664  -48.8868 C.3       15 UNK         0.1400 
     86 CB         -5.4829  -21.0391  -47.8526 C.3       15 UNK        -0.1800 
     87 C          -5.0266  -21.6896  -50.3176 C.2       15 UNK         0.5000 
     88 O          -4.2767  -22.0543  -51.2239 O.2       15 UNK        -0.5000 
     89 N          -6.3355  -21.4550  -50.4851 N.am      16 UNK        -0.5000 
     90 CA         -7.0786  -21.5273  -51.7451 C.3       16 UNK         0.1400 
     91 CB         -8.5420  -21.1451  -51.4782 C.3       16 UNK        -0.1800 
     92 C          -6.9983  -22.8803  -52.4829 C.2       16 UNK         0.5000 
     93 O          -7.2279  -22.9085  -53.6924 O.2       16 UNK        -0.5000 
     94 N          -6.6543  -23.9659  -51.7712 N.am      17 UNK        -0.5000 
     95 CA         -6.3769  -25.2779  -52.3614 C.3       17 UNK         0.1400 
     96 CB         -6.3107  -26.3402  -51.2538 C.3       17 UNK        -0.1800 
     97 C          -5.0849  -25.2957  -53.2044 C.2       17 UNK         0.5000 
     98 O          -4.9898  -26.0967  -54.1353 O.2       17 UNK        -0.5000 
     99 N          -4.1290  -24.4129  -52.8809 N.am      18 UNK        -0.5000 
    100 CA        -2.9389  -24.1529  -53.6846 C.3       18 UNK         0.1400 
    101 CB        -1.7598  -23.7870  -52.7671 C.3       18 UNK        -0.1800 
    102 C         -3.2500  -23.0475  -54.7078 C.2       18 UNK         0.5000 
    103 O         -3.2010  -23.3071  -55.9107 O.2       18 UNK        -0.5000 
    104 N         -3.6161  -21.8592  -54.2115 N.am      19 UNK        -0.5000 
    105 CA        -4.0557  -20.6908  -54.9732 C.3       19 UNK         0.1400 
    106 CB        -2.9254  -20.1296  -55.8602 C.3       19 UNK        -0.1800 
    107 C         -4.5189  -19.6185  -53.9800 C.2       19 UNK         0.5000 
    108 O         -4.0573  -19.6048  -52.8390 O.2       19 UNK        -0.5000 
    109 N         -5.3947  -18.7073  -54.4229 N.am      20 UNK        -0.5000 
    110 CA        -5.9603  -17.6318  -53.5955 C.3       20 UNK         0.1400 
    111 CB        -6.9836  -16.8417  -54.4246 C.3       20 UNK        -0.1800 
    112 C         -4.9074  -16.6825  -52.9843 C.2       20 UNK         0.5000 
    113 O         -5.1054  -16.1872  -51.8752 O.2       20 UNK        -0.5000 
    114 N         -3.7891  -16.4910  -53.6975 N.am      21 UNK        -0.5000 
    115 CA        -2.6249  -15.7199  -53.2565 C.3       21 UNK         0.1400 
    116 CB        -1.7396  -15.4315  -54.4792 C.3       21 UNK        -0.1800 
    117 C         -1.7980  -16.4071  -52.1497 C.2       21 UNK         0.5000 
    118 O         -0.9411  -15.7529  -51.5542 O.2       21 UNK        -0.5000 
    119 N         -2.0327  -17.7035  -51.9084 N.am      22 UNK        -0.5000 
    120 CA        -1.3889  -18.4809  -50.8395 C.3       22 UNK         0.1400 
    121 C         -2.1336  -18.3774  -49.4773 C.2       22 UNK         0.5000 
    122 N         -3.2937  -17.7337  -49.3960 N.am      22 UNK        -0.7600 
    123 O         -1.6565  -18.9019  -48.4762 O.2       22 UNK        -0.5000 
    124 C124       -1.1982  -19.9722  -51.2285 C.3       23 UNK        -0.0398 
    125 S125       -0.4647  -20.3272  -52.8677 S.3       23 UNK        -0.2404 
    126 C126        0.8295  -19.0613  -53.0988 C.3       23 UNK        -0.0205 
    127 H127        2.7214  -13.5135  -53.0291 H         1 UNK         0.0600 
    128 H128        1.2743  -12.5063  -52.9021 H         1 UNK         0.0600 
    129 H129        1.1329  -14.2681  -52.8976 H         1 UNK         0.0600 
    130 H130        0.4594  -14.8630  -50.8598 H         1 UNK         0.3000 
    131 H131        1.8057  -13.7505  -48.4354 H         1 UNK         0.0600 
    132 H132        1.1524  -16.1511  -47.5013 H         1 UNK         0.0800 
    133 H133        1.1296  -16.6365  -49.1689 H         1 UNK         0.0800 
    134 H134        3.6095  -15.6428  -50.7240 H         1 UNK         0.0800 
    135 H135        4.9795  -16.4797  -50.0603 H         1 UNK         0.0800 
    136 H136        1.9655  -16.8977  -51.9195 H         1 UNK         0.1150 
    137 H137        2.0546  -21.1829  -51.8563 H         1 UNK         0.1150 
    138 H138        4.6289  -18.9471  -49.2608 H         1 UNK         0.1150 
    139 H139        3.4152  -22.3702  -50.3567 H         1 UNK         0.0800 
    140 H140        4.9736  -21.6073  -50.1464 H         1 UNK         0.0800 
    141 H141        1.7867  -20.4079  -47.3173 H         1 UNK         0.0800 
    142 H142        1.4422  -21.1579  -48.8485 H         1 UNK         0.0800 
    143 H143        1.2216  -23.3680  -47.8550 H         1 UNK         0.0600 
    144 H144        2.3191  -22.1485  -45.4183 H         1 UNK         0.3000 
    145 H145        2.0054  -25.0636  -43.4597 H         1 UNK         0.0600 
    146 H146        4.4821  -24.9708  -43.2916 H         1 UNK         0.0600 
    147 H147        4.0032  -25.6964  -44.8177 H         1 UNK         0.0600 
    148 H148        4.5733  -24.0323  -44.7832 H         1 UNK         0.0600 
    149 H149        3.4497  -22.6074  -43.1016 H         1 UNK         0.3000 
    150 H150        0.7207  -20.6864  -41.8493 H         1 UNK         0.0600 
    151 H151        1.4261  -22.1550  -39.9437 H         1 UNK         0.0600 
    152 H152        2.1413  -20.5563  -39.8483 H         1 UNK         0.0600 
    153 H153        3.1112  -21.9234  -40.3948 H         1 UNK         0.0600 
    154 H154        3.3069  -19.8435  -41.8833 H         1 UNK         0.3000 
    155 H155        4.6336  -19.2162  -44.0248 H         1 UNK         0.0600 
    156 H156        4.2587  -17.5326  -45.8394 H         1 UNK         0.0600 
    157 H157        2.5302  -17.8805  -45.8155 H         1 UNK         0.0600 
    158 H158        3.6796  -19.1204  -46.3088 H         1 UNK         0.0600 
    159 H159        2.5098  -17.2817  -43.2053 H         1 UNK         0.3000 
    160 H160        4.5051  -16.0706  -40.5987 H         1 UNK         0.0600 
    161 H161        3.8038  -14.4031  -43.0785 H         1 UNK         0.0600 
    162 H162        5.4022  -14.5282  -42.3535 H         1 UNK         0.0600 
    163 H163        4.0954  -13.7723  -41.4565 H         1 UNK         0.0600 
    164 H164        1.9814  -15.2129  -41.6415 H         1 UNK         0.3000 
    165 H165       -0.0347  -17.8504  -40.7659 H         1 UNK         0.0600 
    166 H166        0.1830  -15.4394  -38.8828 H         1 UNK         0.0600 
    167 H167       -1.2317  -16.4751  -39.0823 H         1 UNK         0.0600 
    168 H168        0.2429  -17.1268  -38.3881 H         1 UNK         0.0600 
    169 H169       -0.7678  -15.1552  -41.1557 H         1 UNK         0.3000 
    170 H170       -1.6017  -14.4586  -43.0511 H         1 UNK         0.0600 
    171 H171        0.6959  -13.5324  -43.4427 H         1 UNK         0.0600 
    172 H172        0.8244  -14.4670  -44.9288 H         1 UNK         0.0600 
    173 H173       -0.3740  -13.1824  -44.7907 H         1 UNK         0.0600 
    174 H174       -1.3769  -15.2726  -45.7411 H         1 UNK         0.3000 
    175 H175       -2.5303  -17.2563  -46.6149 H         1 UNK         0.0600 
    176 H176       -4.7993  -18.3154  -46.7731 H         1 UNK         0.0600 
    177 H177       -3.9148  -18.8888  -45.3737 H         1 UNK         0.0600 
    178 H178       -5.1984  -17.7164  -45.1679 H         1 UNK         0.0600 
    179 H179       -3.4991  -15.5260  -47.6289 H         1 UNK         0.3000 
    180 H180       -5.7379  -14.3637  -48.2616 H         1 UNK         0.0600 
    181 H181       -6.8189  -12.2382  -47.5610 H         1 UNK         0.0600 
    182 H182       -7.4098  -13.5840  -46.6014 H         1 UNK         0.0600 
    183 H183       -6.2412  -12.4632  -45.9103 H         1 UNK         0.0600 
    184 H184       -4.1118  -12.2048  -47.0941 H         1 UNK         0.3000 
    185 H185       -2.3210  -11.6508  -49.5214 H         1 UNK         0.0600 
    186 H186       -1.0253  -10.8306  -47.5101 H         1 UNK         0.0600 
    187 H187       -2.7561  -10.7880  -47.2574 H         1 UNK         0.0600 
    188 H188       -1.7920  -12.0722  -46.5271 H         1 UNK         0.0600 
    189 H189       -0.3827  -12.6648  -49.8428 H         1 UNK         0.3000 
    190 H190        0.3147  -21.0714  -45.2848 H         1 UNK         0.3000 
    191 H191       -2.3144  -20.4872  -46.0896 H         1 UNK         0.0600 
    192 H192       -2.5283  -19.6913  -43.7015 H         1 UNK         0.0600 
    193 H193       -1.0222  -19.1569  -44.4356 H         1 UNK         0.0600 
    194 H194       -1.0298  -20.5085  -43.3054 H         1 UNK         0.0600 
    195 H195       -1.0802  -23.3479  -44.4716 H         1 UNK         0.3000 
    196 H196       -3.5325  -24.4124  -43.4873 H         1 UNK         0.0600 
    197 H197       -2.2634  -26.5637  -43.4692 H         1 UNK         0.0600 
    198 H198       -1.3043  -25.2582  -42.7905 H         1 UNK         0.0600 
    199 H199       -0.9818  -25.8318  -44.4264 H         1 UNK         0.0600 
    200 H200       -2.1376  -24.3183  -46.7358 H         1 UNK         0.3000 
    201 H201       -4.2471  -26.0908  -47.8596 H         1 UNK         0.0600 
    202 H202       -1.9447  -26.4252  -48.7145 H         1 UNK         0.0600 
    203 H203       -1.8365  -24.7303  -49.1812 H         1 UNK         0.0600 
    204 H204       -2.9851  -25.7923  -49.9813 H         1 UNK         0.0600 
    205 H205       -2.9038  -22.7796  -48.1603 H         1 UNK         0.3000 
    206 H206       -3.6439  -20.8523  -48.9417 H         1 UNK         0.0600 
    207 H207       -5.0022  -20.8723  -46.8903 H         1 UNK         0.0600 
    208 H208       -5.9050  -20.0823  -48.1619 H         1 UNK         0.0600 
    209 H209       -6.3059  -21.7361  -47.6906 H         1 UNK         0.0600 
    210 H210       -6.8751  -21.2102  -49.6681 H         1 UNK         0.3000 
    211 H211       -6.6531  -20.7771  -52.4115 H         1 UNK         0.0600 
    212 H212       -9.0172  -21.8388  -50.7836 H         1 UNK         0.0600 
    213 H213       -9.1241  -21.1536  -52.4008 H         1 UNK         0.0600 
    214 H214       -8.6184  -20.1417  -51.0587 H         1 UNK         0.0600 
    215 H215       -6.4692  -23.8657  -50.7794 H         1 UNK         0.3000 
    216 H216       -7.2081  -25.5315  -53.0226 H         1 UNK         0.0600 
    217 H217       -6.2234  -27.3399  -51.6808 H         1 UNK         0.0600 
    218 H218       -7.2085  -26.3271  -50.6357 H         1 UNK         0.0600 
    219 H219       -5.4502  -26.1903  -50.6020 H         1 UNK         0.0600 
    220 H220       -4.3116  -23.7426  -52.1395 H         1 UNK         0.3000 
    221 H221       -2.6578  -25.0532  -54.2351 H         1 UNK         0.0600 
    222 H222       -1.9755  -22.9208  -52.1425 H         1 UNK         0.0600 
    223 H223       -1.5083  -24.6154  -52.1049 H         1 UNK         0.0600 
    224 H224       -0.8691  -23.5548  -53.3519 H         1 UNK         0.0600 
    225 H225       -3.6483  -21.7264  -53.2030 H         1 UNK         0.3000 
    226 H226       -4.9040  -20.9838  -55.5944 H         1 UNK         0.0600 
    227 H227       -2.6016  -20.8488  -56.6115 H         1 UNK         0.0600 
    228 H228       -3.2550  -19.2398  -56.3976 H         1 UNK         0.0600 
    229 H229       -2.0533  -19.8479  -55.2710 H         1 UNK         0.0600 
    230 H230       -5.7238  -18.7620  -55.3762 H         1 UNK         0.3000 
    231 H231       -6.4885  -18.1033  -52.7640 H         1 UNK         0.0600 
    232 H232       -7.4391  -16.0484  -53.8302 H         1 UNK         0.0600 
    233 H233       -7.7899  -17.4861  -54.7752 H         1 UNK         0.0600 
    234 H234       -6.5216  -16.3754  -55.2956 H         1 UNK         0.0600 
    235 H235       -3.7123  -16.9515  -54.5921 H         1 UNK         0.3000 
    236 H236       -2.9765  -14.7681  -52.8527 H         1 UNK         0.0600 
    237 H237       -1.3506  -16.3509  -54.9190 H         1 UNK         0.0600 
    238 H238       -2.2934  -14.8965  -55.2508 H         1 UNK         0.0600 
    239 H239       -0.8855  -14.8106  -54.2074 H         1 UNK         0.0600 
    240 H240       -2.7573  -18.1950  -52.4217 H         1 UNK         0.3000 
    241 H241       -0.3985  -18.0641  -50.6568 H         1 UNK         0.0600 
    242 H242       -3.7762  -17.6910  -48.5166 H         1 UNK         0.3800 
    243 H243       -3.6798  -17.2679  -50.2053 H         1 UNK         0.3800 
    244 H244       -2.1580  -20.4874  -51.2002 H         1 UNK         0.0800 
    245 H245       -0.5776  -20.4706  -50.4820 H         1 UNK         0.0800 
    246 H246        1.3285  -19.2556  -54.0487 H         1 UNK         0.0800 
    247 H247        0.3621  -18.0828  -53.2027 H         1 UNK         0.0800 
@<TRIPOS>BOND
     1    1    2 1    
     2    1  127 1    
     3    1  128 1    
     4    1  129 1    
     5    2    3 2    
     6    2    4 am   BACKBONE|DICT|INTERRES
     7    4    5 1    
     8    4  130 1    
     9    5    6 1    
    10    5   65 1    
    11    5  131 1    
    12    6    7 1    
    13    6  132 1    
    14    6  133 1    
    15    7    8 1    
    16    8    9 1    
    17    8  134 1    
    18    8  135 1    
    19    9   10 ar   
    20    9   14 ar   
    21   10   11 ar   
    22   10  136 1    
    23   11   12 ar   
    24   11  126 1    
    25   12   13 ar   
    26   12  137 1    
    27   13   14 ar   
    28   13   15 1    
    29   14  138 1    
    30   15   16 1    
    31   15  139 1    
    32   15  140 1    
    33   16   17 1    
    34   17   18 1    
    35   17  141 1    
    36   17  142 1    
    37   18   19 1    
    38   18   67 1    
    39   18  143 1    
    40   19   20 am   BACKBONE|DICT|INTERRES
    41   19  144 1    
    42   20   21 2    
    43   20   22 1    
    44   22   23 1    
    45   22   24 1    
    46   22  145 1    
    47   23  146 1    
    48   23  147 1    
    49   23  148 1    
    50   24   25 am   BACKBONE|DICT|INTERRES
    51   24  149 1    
    52   25   26 2    
    53   25   27 1    
    54   27   28 1    
    55   27   29 1    
    56   27  150 1    
    57   28  151 1    
    58   28  152 1    
    59   28  153 1    
    60   29   30 am   BACKBONE|DICT|INTERRES
    61   29  154 1    
    62   30   31 2    
    63   30   32 1    
    64   32   33 1    
    65   32   34 1    
    66   32  155 1    
    67   33  156 1    
    68   33  157 1    
    69   33  158 1    
    70   34   35 am   BACKBONE|DICT|INTERRES
    71   34  159 1    
    72   35   36 2    
    73   35   37 1    
    74   37   38 1    
    75   37   39 1    
    76   37  160 1    
    77   38  161 1    
    78   38  162 1    
    79   38  163 1    
    80   39   40 am   BACKBONE|DICT|INTERRES
    81   39  164 1    
    82   40   41 2    
    83   40   42 1    
    84   42   43 1    
    85   42   44 1    
    86   42  165 1    
    87   43  166 1    
    88   43  167 1    
    89   43  168 1    
    90   44   45 am   BACKBONE|DICT|INTERRES
    91   44  169 1    
    92   45   46 2    
    93   45   47 1    
    94   47   48 1    
    95   47   49 1    
    96   47  170 1    
    97   48  171 1    
    98   48  172 1    
    99   48  173 1    
   100   49   50 am   BACKBONE|DICT|INTERRES
   101   49  174 1    
   102   50   51 2    
   103   50   52 1    
   104   52   53 1    
   105   52   54 1    
   106   52  175 1    
   107   53  176 1    
   108   53  177 1    
   109   53  178 1    
   110   54   55 am   BACKBONE|DICT|INTERRES
   111   54  179 1    
   112   55   56 2    
   113   55   57 1    
   114   57   58 1    
   115   57   59 1    
   116   57  180 1    
   117   58  181 1    
   118   58  182 1    
   119   58  183 1    
   120   59   60 am   BACKBONE|DICT|INTERRES
   121   59  184 1    
   122   60   61 2    
   123   60   62 1    
   124   62   63 1    
   125   62   64 1    
   126   62  185 1    
   127   63  186 1    
   128   63  187 1    
   129   63  188 1    
   130   64   65 am   BACKBONE|DICT|INTERRES
   131   64  189 1    
   132   65   66 2    
   133   67   68 2    
   134   67   69 am   BACKBONE|DICT|INTERRES
   135   69   70 1    
   136   69  190 1    
   137   70   71 1    
   138   70   72 1    
   139   70  191 1    
   140   71  192 1    
   141   71  193 1    
   142   71  194 1    
   143   72   73 2    
   144   72   74 am   BACKBONE|DICT|INTERRES
   145   74   75 1    
   146   74  195 1    
   147   75   76 1    
   148   75   77 1    
   149   75  196 1    
   150   76  197 1    
   151   76  198 1    
   152   76  199 1    
   153   77   78 2    
   154   77   79 am   BACKBONE|DICT|INTERRES
   155   79   80 1    
   156   79  200 1    
   157   80   81 1    
   158   80   82 1    
   159   80  201 1    
   160   81  202 1    
   161   81  203 1    
   162   81  204 1    
   163   82   83 2    
   164   82   84 am   BACKBONE|DICT|INTERRES
   165   84   85 1    
   166   84  205 1    
   167   85   86 1    
   168   85   87 1    
   169   85  206 1    
   170   86  207 1    
   171   86  208 1    
   172   86  209 1    
   173   87   88 2    
   174   87   89 am   BACKBONE|DICT|INTERRES
   175   89   90 1    
   176   89  210 1    
   177   90   91 1    
   178   90   92 1    
   179   90  211 1    
   180   91  212 1    
   181   91  213 1    
   182   91  214 1    
   183   92   93 2    
   184   92   94 am   BACKBONE|DICT|INTERRES
   185   94   95 1    
   186   94  215 1    
   187   95   96 1    
   188   95   97 1    
   189   95  216 1    
   190   96  217 1    
   191   96  218 1    
   192   96  219 1    
   193   97   98 2    
   194   97   99 am   BACKBONE|DICT|INTERRES
   195   99  100 1    
   196   99  220 1    
   197  100  101 1    
   198  100  102 1    
   199  100  221 1    
   200  101  222 1    
   201  101  223 1    
   202  101  224 1    
   203  102  103 2    
   204  102  104 am   BACKBONE|DICT|INTERRES
   205  104  105 1    
   206  104  225 1    
   207  105  106 1    
   208  105  107 1    
   209  105  226 1    
   210  106  227 1    
   211  106  228 1    
   212  106  229 1    
   213  107  108 2    
   214  107  109 am   BACKBONE|DICT|INTERRES
   215  109  110 1    
   216  109  230 1    
   217  110  111 1    
   218  110  112 1    
   219  110  231 1    
   220  111  232 1    
   221  111  233 1    
   222  111  234 1    
   223  112  113 2    
   224  112  114 am   BACKBONE|DICT|INTERRES
   225  114  115 1    
   226  114  235 1    
   227  115  116 1    
   228  115  117 1    
   229  115  236 1    
   230  116  237 1    
   231  116  238 1    
   232  116  239 1    
   233  117  118 2    
   234  117  119 am   BACKBONE|DICT|INTERRES
   235  119  120 1    
   236  119  240 1    
   237  120  121 1    
   238  120  124 1    
   239  120  241 1    
   240  121  122 am   BACKBONE|DICT|INTERRES
   241  121  123 2    
   242  122  242 1    
   243  122  243 1    
   244  124  125 1    
   245  124  244 1    
   246  124  245 1    
   247  125  126 1    
   248  126  246 1    
   249  126  247 1    
@<TRIPOS>SUBSTRUCTURE
     1 UNK         1 GROUP             0       ****    0 ROOT    
