@<TRIPOS>MOLECULE
3R540
247   249    1
SMALL
USER_CHARGES


@<TRIPOS>ATOM
      1 CA          3.6176  -13.4166  -49.1111 C.3       0 UNK        -0.1800 
      2 C           4.7422  -13.5387  -48.0948 C.2       0 UNK         0.5000 
      3 O           5.2831  -12.5225  -47.6596 O.2       0 UNK        -0.5000 
      4 N           5.0796  -14.7763  -47.7054 N.am      1 UNK        -0.5000 
      5 CA          6.1891  -15.1500  -46.8115 C.3       1 UNK         0.1400 
      6 C6          6.2566  -16.6806  -46.5880 C.3       23 UNK        -0.0398 
      7 S7          6.4628  -17.6323  -48.1349 S.3       23 UNK        -0.2404 
      8 C8          5.0178  -18.7426  -48.1177 C.3       23 UNK        -0.0205 
      9 C9          3.9506  -18.2996  -49.1066 C.ar      23 UNK        -0.0193 
     10 C10         3.8425  -18.9352  -50.3497 C.ar      23 UNK        -0.1150 
     11 C11         2.8489  -18.5523  -51.2547 C.ar      23 UNK        -0.0193 
     12 C12         1.9928  -17.5032  -50.9269 C.ar      23 UNK        -0.1150 
     13 C13         2.0516  -16.8987  -49.6725 C.ar      23 UNK        -0.0193 
     14 C14         3.0412  -17.2915  -48.7666 C.ar      23 UNK        -0.1150 
     15 C15         0.9818  -15.8895  -49.2867 C.3       23 UNK        -0.0205 
     16 S16        -0.6772  -16.6492  -49.3378 S.3       23 UNK        -0.2404 
     17 C17        -0.5049  -17.9534  -48.0768 C.3       23 UNK        -0.0398 
     18 CA         -0.2108  -19.3673  -48.6497 C.3       11 UNK         0.1400 
     19 N           0.5648  -20.1396  -47.6796 N.am      11 UNK        -0.5000 
     20 C           0.9233  -21.4289  -47.7433 C.2       10 UNK         0.5000 
     21 O           0.6962  -22.1761  -48.6928 O.2       10 UNK        -0.5000 
     22 CA          1.5981  -21.9891  -46.4772 C.3       10 UNK         0.1400 
     23 CB          3.1238  -21.8581  -46.5835 C.3       10 UNK        -0.1800 
     24 N           1.1505  -21.3394  -45.2402 N.am      10 UNK        -0.5000 
     25 C          -0.1104  -21.2030  -44.8050 C.2       9 UNK         0.5000 
     26 O          -1.0905  -21.6599  -45.3972 O.2       9 UNK        -0.5000 
     27 CA         -0.3189  -20.3443  -43.5421 C.3       9 UNK         0.1400 
     28 CB         -0.0423  -21.1505  -42.2603 C.3       9 UNK        -0.1800 
     29 N           0.4183  -19.0710  -43.5559 N.am      9 UNK        -0.5000 
     30 C           1.7416  -18.8515  -43.5017 C.2       8 UNK         0.5000 
     31 O           2.5871  -19.7439  -43.4327 O.2       8 UNK        -0.5000 
     32 CA          2.2024  -17.3852  -43.5670 C.3       8 UNK         0.1400 
     33 CB          2.2787  -16.9081  -45.0236 C.3       8 UNK        -0.1800 
     34 N           1.3360  -16.4844  -42.8116 N.am      8 UNK        -0.5000 
     35 C           1.2737  -16.4444  -41.4730 C.2       7 UNK         0.5000 
     36 O           1.9573  -17.1486  -40.7292 O.2       7 UNK        -0.5000 
     37 CA          0.2685  -15.4524  -40.8670 C.3       7 UNK         0.1400 
     38 CB          0.8622  -14.0358  -40.8247 C.3       7 UNK        -0.1800 
     39 N          -0.9891  -15.4420  -41.6142 N.am      7 UNK        -0.5000 
     40 C          -1.9093  -16.4152  -41.5465 C.2       6 UNK         0.5000 
     41 O          -1.8264  -17.3851  -40.7927 O.2       6 UNK        -0.5000 
     42 CA         -3.1226  -16.2941  -42.4866 C.3       6 UNK         0.1400 
     43 CB         -4.2721  -15.5518  -41.7885 C.3       6 UNK        -0.1800 
     44 N          -2.8097  -15.6156  -43.7449 N.am      6 UNK        -0.5000 
     45 C          -2.0430  -16.1276  -44.7172 C.2       5 UNK         0.5000 
     46 O          -1.5003  -17.2312  -44.6603 O.2       5 UNK        -0.5000 
     47 CA         -1.8136  -15.2289  -45.9438 C.3       5 UNK         0.1400 
     48 CB         -3.0021  -15.3282  -46.9130 C.3       5 UNK        -0.1800 
     49 N          -1.5901  -13.8249  -45.5957 N.am      5 UNK        -0.5000 
     50 C          -0.5576  -13.3735  -44.8732 C.2       4 UNK         0.5000 
     51 O           0.3059  -14.1031  -44.3771 O.2       4 UNK        -0.5000 
     52 CA         -0.5176  -11.8581  -44.6252 C.3       4 UNK         0.1400 
     53 CB         -1.0600  -11.5242  -43.2276 C.3       4 UNK        -0.1800 
     54 N           0.8471  -11.3575  -44.7412 N.am      4 UNK        -0.5000 
     55 C           1.4515  -11.0390  -45.8903 C.2       3 UNK         0.5000 
     56 O           0.8945  -11.0777  -46.9880 O.2       3 UNK        -0.5000 
     57 CA          2.9304  -10.6153  -45.8066 C.3       3 UNK         0.1400 
     58 CB          3.0982   -9.2559  -45.0998 C.3       3 UNK        -0.1800 
     59 N           3.8031  -11.6438  -45.2289 N.am      3 UNK        -0.5000 
     60 C           3.8231  -12.1341  -43.9791 C.2       2 UNK         0.5000 
     61 O           3.1034  -11.7184  -43.0692 O.2       2 UNK        -0.5000 
     62 CA          4.7909  -13.3037  -43.7158 C.3       2 UNK         0.1400 
     63 CB          4.2885  -14.2399  -42.6039 C.3       2 UNK        -0.1800 
     64 N           4.9993  -14.0800  -44.9397 N.am      2 UNK        -0.5000 
     65 C           6.1893  -14.4304  -45.4421 C.2       1 UNK         0.5000 
     66 O           7.2625  -14.2029  -44.8818 O.2       1 UNK        -0.5000 
     67 C          -1.5101  -20.0842  -49.0719 C.2       11 UNK         0.5000 
     68 O          -1.7607  -20.2495  -50.2665 O.2       11 UNK        -0.5000 
     69 N          -2.2901  -20.5185  -48.0716 N.am      12 UNK        -0.5000 
     70 CA         -3.5480  -21.2357  -48.2572 C.3       12 UNK         0.1400 
     71 CB         -4.5094  -20.8706  -47.1166 C.3       12 UNK        -0.1800 
     72 C          -3.3340  -22.7551  -48.3083 C.2       12 UNK         0.5000 
     73 O          -4.0141  -23.4311  -49.0817 O.2       12 UNK        -0.5000 
     74 N          -2.3973  -23.2753  -47.4991 N.am      13 UNK        -0.5000 
     75 CA         -2.1146  -24.7095  -47.3805 C.3       13 UNK         0.1400 
     76 CB         -1.1721  -24.9668  -46.1983 C.3       13 UNK        -0.1800 
     77 C          -1.5680  -25.3491  -48.6712 C.2       13 UNK         0.5000 
     78 O          -1.7924  -26.5401  -48.8852 O.2       13 UNK        -0.5000 
     79 N          -0.9393  -24.5500  -49.5462 N.am      14 UNK        -0.5000 
     80 CA         -0.5514  -24.9356  -50.9081 C.3       14 UNK         0.1400 
     81 CB          0.2278  -23.7806  -51.5526 C.3       14 UNK        -0.1800 
     82 C          -1.7447  -25.3332  -51.8048 C.2       14 UNK         0.5000 
     83 O          -1.5688  -26.1266  -52.7298 O.2       14 UNK        -0.5000 
     84 N          -2.9332  -24.7983  -51.4973 N.am      15 UNK        -0.5000 
     85 CA         -4.2129  -25.1240  -52.1257 C.3       15 UNK         0.1400 
     86 CB         -4.8982  -23.8047  -52.5173 C.3       15 UNK        -0.1800 
     87 C          -5.1076  -25.9544  -51.1811 C.2       15 UNK         0.5000 
     88 O          -6.3103  -26.0632  -51.4264 O.2       15 UNK        -0.5000 
     89 N          -4.5285  -26.4768  -50.0858 N.am      16 UNK        -0.5000 
     90 CA         -5.1628  -27.2244  -48.9901 C.3       16 UNK         0.1400 
     91 CB         -5.6459  -28.5984  -49.4982 C.3       16 UNK        -0.1800 
     92 C          -6.2837  -26.4491  -48.2601 C.2       16 UNK         0.5000 
     93 O          -7.1200  -27.0681  -47.6008 O.2       16 UNK        -0.5000 
     94 N          -6.3083  -25.1167  -48.4295 N.am      17 UNK        -0.5000 
     95 CA         -7.3858  -24.1841  -48.0786 C.3       17 UNK         0.1400 
     96 CB         -7.5063  -24.0445  -46.5478 C.3       17 UNK        -0.1800 
     97 C          -8.7399  -24.5033  -48.7619 C.2       17 UNK         0.5000 
     98 O          -9.7795  -24.0247  -48.3057 O.2       17 UNK        -0.5000 
     99 N          -8.7105  -25.2986  -49.8413 N.am      18 UNK        -0.5000 
    100 CA        -9.8798  -25.7644  -50.5891 C.3       18 UNK         0.1400 
    101 CB        -9.6610  -27.2421  -50.9526 C.3       18 UNK        -0.1800 
    102 C        -10.1301  -24.9304  -51.8590 C.2       18 UNK         0.5000 
    103 O        -11.1879  -25.0664  -52.4757 O.2       18 UNK        -0.5000 
    104 N         -9.1628  -24.0862  -52.2267 N.am      19 UNK        -0.5000 
    105 CA        -9.1990  -23.1606  -53.3510 C.3       19 UNK         0.1400 
    106 CB        -8.6718  -23.8652  -54.6159 C.3       19 UNK        -0.1800 
    107 C         -8.3808  -21.9121  -52.9807 C.2       19 UNK         0.5000 
    108 O         -7.8820  -21.8158  -51.8545 O.2       19 UNK        -0.5000 
    109 N         -8.2754  -20.9689  -53.9254 N.am      20 UNK        -0.5000 
    110 CA        -7.5338  -19.7144  -53.7846 C.3       20 UNK         0.1400 
    111 CB        -7.7256  -18.8758  -55.0579 C.3       20 UNK        -0.1800 
    112 C         -6.0336  -19.9303  -53.5023 C.2       20 UNK         0.5000 
    113 O         -5.4295  -20.8539  -54.0525 O.2       20 UNK        -0.5000 
    114 N         -5.4727  -19.0581  -52.6569 N.am      21 UNK        -0.5000 
    115 CA        -4.0725  -19.0570  -52.2337 C.3       21 UNK         0.1400 
    116 CB        -3.9089  -17.9802  -51.1481 C.3       21 UNK        -0.1800 
    117 C         -3.0843  -18.8073  -53.3909 C.2       21 UNK         0.5000 
    118 O         -3.4501  -18.1744  -54.3852 O.2       21 UNK        -0.5000 
    119 N         -1.8391  -19.2720  -53.2233 N.am      22 UNK        -0.5000 
    120 CA        -0.7450  -19.0872  -54.1976 C.3       22 UNK         0.1400 
    121 C         -0.1649  -17.6425  -54.2919 C.2       22 UNK         0.5000 
    122 N         -0.5844  -16.6935  -53.4638 N.am      22 UNK        -0.7600 
    123 O          0.6703  -17.3715  -55.1503 O.2       22 UNK        -0.5000 
    124 C124        0.3647  -20.1694  -54.0699 C.3       23 UNK        -0.0398 
    125 S125        1.1081  -20.3161  -52.4095 S.3       23 UNK        -0.2404 
    126 C126        2.6207  -19.3069  -52.5526 C.3       23 UNK        -0.0205 
    127 H127        3.8220  -12.6007  -49.8044 H         1 UNK         0.0600 
    128 H128        3.5078  -14.3301  -49.6949 H         1 UNK         0.0600 
    129 H129        2.6744  -13.2074  -48.6061 H         1 UNK         0.0600 
    130 H130        4.6192  -15.5588  -48.1476 H         1 UNK         0.3000 
    131 H131        7.1065  -14.8450  -47.3191 H         1 UNK         0.0600 
    132 H132        5.3708  -17.0197  -46.0497 H         1 UNK         0.0800 
    133 H133        7.1058  -16.9316  -45.9492 H         1 UNK         0.0800 
    134 H134        5.3581  -19.7491  -48.3659 H         1 UNK         0.0800 
    135 H135        4.5925  -18.8170  -47.1173 H         1 UNK         0.0800 
    136 H136        4.5117  -19.7461  -50.6006 H         1 UNK         0.1150 
    137 H137        1.2130  -17.2191  -51.6161 H         1 UNK         0.1150 
    138 H138        3.0864  -16.8323  -47.7914 H         1 UNK         0.1150 
    139 H139        1.1649  -15.4773  -48.2931 H         1 UNK         0.0800 
    140 H140        1.0098  -15.0511  -49.9837 H         1 UNK         0.0800 
    141 H141       -1.3969  -17.9558  -47.4491 H         1 UNK         0.0800 
    142 H142        0.3004  -17.6459  -47.4110 H         1 UNK         0.0800 
    143 H143        0.4158  -19.2799  -49.5371 H         1 UNK         0.0600 
    144 H144        0.8095  -19.6536  -46.8313 H         1 UNK         0.3000 
    145 H145        1.3572  -23.0477  -46.4070 H         1 UNK         0.0600 
    146 H146        3.6206  -22.3509  -45.7476 H         1 UNK         0.0600 
    147 H147        3.4958  -22.3177  -47.5003 H         1 UNK         0.0600 
    148 H148        3.4345  -20.8139  -46.5877 H         1 UNK         0.0600 
    149 H149        1.8734  -20.9132  -44.6646 H         1 UNK         0.3000 
    150 H150       -1.3739  -20.0655  -43.5284 H         1 UNK         0.0600 
    151 H151       -0.6792  -22.0347  -42.2140 H         1 UNK         0.0600 
    152 H152       -0.2477  -20.5542  -41.3710 H         1 UNK         0.0600 
    153 H153        0.9914  -21.4920  -42.2039 H         1 UNK         0.0600 
    154 H154       -0.1760  -18.2592  -43.7033 H         1 UNK         0.3000 
    155 H155        3.2069  -17.3345  -43.1410 H         1 UNK         0.0600 
    156 H156        2.7309  -15.9195  -45.0907 H         1 UNK         0.0600 
    157 H157        1.2894  -16.8489  -45.4762 H         1 UNK         0.0600 
    158 H158        2.8826  -17.5901  -45.6219 H         1 UNK         0.0600 
    159 H159        0.7801  -15.8261  -43.3471 H         1 UNK         0.3000 
    160 H160        0.0625  -15.7630  -39.8403 H         1 UNK         0.0600 
    161 H161        1.1211  -13.6729  -41.8197 H         1 UNK         0.0600 
    162 H162        1.7741  -14.0155  -40.2268 H         1 UNK         0.0600 
    163 H163        0.1650  -13.3278  -40.3768 H         1 UNK         0.0600 
    164 H164       -1.1177  -14.6972  -42.2823 H         1 UNK         0.3000 
    165 H165       -3.4608  -17.3059  -42.7209 H         1 UNK         0.0600 
    166 H166       -4.0002  -14.5236  -41.5465 H         1 UNK         0.0600 
    167 H167       -5.1634  -15.5256  -42.4157 H         1 UNK         0.0600 
    168 H168       -4.5472  -16.0467  -40.8561 H         1 UNK         0.0600 
    169 H169       -3.2103  -14.6990  -43.8796 H         1 UNK         0.3000 
    170 H170       -0.9174  -15.5871  -46.4524 H         1 UNK         0.0600 
    171 H171       -3.2039  -16.3644  -47.1870 H         1 UNK         0.0600 
    172 H172       -3.9156  -14.9233  -46.4760 H         1 UNK         0.0600 
    173 H173       -2.8027  -14.7841  -47.8363 H         1 UNK         0.0600 
    174 H174       -2.2586  -13.1616  -45.9605 H         1 UNK         0.3000 
    175 H175       -1.1467  -11.3571  -45.3641 H         1 UNK         0.0600 
    176 H176       -1.0939  -10.4463  -43.0688 H         1 UNK         0.0600 
    177 H177       -2.0744  -11.9034  -43.0973 H         1 UNK         0.0600 
    178 H178       -0.4425  -11.9552  -42.4403 H         1 UNK         0.0600 
    179 H179        1.4254  -11.3951  -43.9062 H         1 UNK         0.3000 
    180 H180        3.2758  -10.4868  -46.8339 H         1 UNK         0.0600 
    181 H181        2.7672   -9.2849  -44.0616 H         1 UNK         0.0600 
    182 H182        2.5153   -8.4840  -45.6036 H         1 UNK         0.0600 
    183 H183        4.1397   -8.9346  -45.1098 H         1 UNK         0.0600 
    184 H184        4.4517  -12.0495  -45.8970 H         1 UNK         0.3000 
    185 H185        5.7294  -12.8533  -43.3869 H         1 UNK         0.0600 
    186 H186        4.9624  -15.0840  -42.4581 H         1 UNK         0.0600 
    187 H187        4.2113  -13.7158  -41.6506 H         1 UNK         0.0600 
    188 H188        3.3023  -14.6324  -42.8432 H         1 UNK         0.0600 
    189 H189        4.1711  -14.2876  -45.4786 H         1 UNK         0.3000 
    190 H190       -1.9673  -20.4160  -47.1187 H         1 UNK         0.3000 
    191 H191       -4.0105  -20.9307  -49.1987 H         1 UNK         0.0600 
    192 H192       -4.7177  -19.8006  -47.1061 H         1 UNK         0.0600 
    193 H193       -5.4640  -21.3865  -47.2298 H         1 UNK         0.0600 
    194 H194       -4.1019  -21.1424  -46.1418 H         1 UNK         0.0600 
    195 H195       -1.8934  -22.6606  -46.8667 H         1 UNK         0.3000 
    196 H196       -3.0636  -25.2017  -47.1571 H         1 UNK         0.0600 
    197 H197       -1.0810  -26.0358  -46.0025 H         1 UNK         0.0600 
    198 H198       -1.5388  -24.4985  -45.2846 H         1 UNK         0.0600 
    199 H199       -0.1720  -24.5900  -46.3962 H         1 UNK         0.0600 
    200 H200       -0.7271  -23.5961  -49.2725 H         1 UNK         0.3000 
    201 H201        0.1097  -25.8015  -50.8365 H         1 UNK         0.0600 
    202 H202        1.1434  -23.5647  -51.0020 H         1 UNK         0.0600 
    203 H203       -0.3678  -22.8670  -51.5815 H         1 UNK         0.0600 
    204 H204        0.5159  -24.0191  -52.5771 H         1 UNK         0.0600 
    205 H205       -2.9945  -24.1740  -50.7000 H         1 UNK         0.3000 
    206 H206       -4.0598  -25.7156  -53.0301 H         1 UNK         0.0600 
    207 H207       -4.2661  -23.2167  -53.1828 H         1 UNK         0.0600 
    208 H208       -5.8352  -23.9863  -53.0418 H         1 UNK         0.0600 
    209 H209       -5.1261  -23.1902  -51.6453 H         1 UNK         0.0600 
    210 H210       -3.5307  -26.3393  -49.9735 H         1 UNK         0.3000 
    211 H211       -4.3840  -27.3997  -48.2471 H         1 UNK         0.0600 
    212 H212       -6.4791  -28.5014  -50.1951 H         1 UNK         0.0600 
    213 H213       -5.9816  -29.2277  -48.6732 H         1 UNK         0.0600 
    214 H214       -4.8442  -29.1346  -50.0060 H         1 UNK         0.0600 
    215 H215       -5.5353  -24.6963  -48.9370 H         1 UNK         0.3000 
    216 H216       -7.0774  -23.2148  -48.4730 H         1 UNK         0.0600 
    217 H217       -6.5427  -23.8044  -46.0982 H         1 UNK         0.0600 
    218 H218       -7.8745  -24.9605  -46.0854 H         1 UNK         0.0600 
    219 H219       -8.1958  -23.2433  -46.2799 H         1 UNK         0.0600 
    220 H220       -7.8121  -25.6264  -50.1840 H         1 UNK         0.3000 
    221 H221      -10.7746  -25.6958  -49.9672 H         1 UNK         0.0600 
    222 H222       -8.7932  -27.3726  -51.6005 H         1 UNK         0.0600 
    223 H223       -9.5050  -27.8480  -50.0597 H         1 UNK         0.0600 
    224 H224      -10.5267  -27.6501  -51.4758 H         1 UNK         0.0600 
    225 H225       -8.3566  -23.9805  -51.6247 H         1 UNK         0.3000 
    226 H226      -10.2274  -22.8352  -53.5208 H         1 UNK         0.0600 
    227 H227       -9.2559  -24.7580  -54.8398 H         1 UNK         0.0600 
    228 H228       -8.7337  -23.2170  -55.4902 H         1 UNK         0.0600 
    229 H229       -7.6315  -24.1701  -54.5050 H         1 UNK         0.0600 
    230 H230       -8.6961  -21.1357  -54.8273 H         1 UNK         0.3000 
    231 H231       -7.9714  -19.1707  -52.9446 H         1 UNK         0.0600 
    232 H232       -7.2046  -17.9206  -54.9792 H         1 UNK         0.0600 
    233 H233       -8.7790  -18.6567  -55.2336 H         1 UNK         0.0600 
    234 H234       -7.3362  -19.3889  -55.9382 H         1 UNK         0.0600 
    235 H235       -6.0430  -18.3131  -52.2855 H         1 UNK         0.3000 
    236 H236       -3.8576  -20.0375  -51.8048 H         1 UNK         0.0600 
    237 H237       -2.8720  -17.9000  -50.8258 H         1 UNK         0.0600 
    238 H238       -4.2111  -16.9958  -51.5074 H         1 UNK         0.0600 
    239 H239       -4.5025  -18.2160  -50.2646 H         1 UNK         0.0600 
    240 H240       -1.5952  -19.7364  -52.3541 H         1 UNK         0.3000 
    241 H241       -1.1906  -19.2494  -55.1810 H         1 UNK         0.0600 
    242 H242       -1.2760  -16.8957  -52.7613 H         1 UNK         0.3800 
    243 H243       -0.2130  -15.7612  -53.5519 H         1 UNK         0.3800 
    244 H244       -0.0681  -21.1420  -54.3073 H         1 UNK         0.0800 
    245 H245        1.1500  -20.0197  -54.8128 H         1 UNK         0.0800 
    246 H246        3.4680  -19.9524  -52.7877 H         1 UNK         0.0800 
    247 H247        2.5336  -18.5919  -53.3713 H         1 UNK         0.0800 
@<TRIPOS>BOND
     1    1    2 1    
     2    1  127 1    
     3    1  128 1    
     4    1  129 1    
     5    2    3 2    
     6    2    4 am   BACKBONE|DICT|INTERRES
     7    4    5 1    
     8    4  130 1    
     9    5    6 1    
    10    5   65 1    
    11    5  131 1    
    12    6    7 1    
    13    6  132 1    
    14    6  133 1    
    15    7    8 1    
    16    8    9 1    
    17    8  134 1    
    18    8  135 1    
    19    9   10 ar   
    20    9   14 ar   
    21   10   11 ar   
    22   10  136 1    
    23   11   12 ar   
    24   11  126 1    
    25   12   13 ar   
    26   12  137 1    
    27   13   14 ar   
    28   13   15 1    
    29   14  138 1    
    30   15   16 1    
    31   15  139 1    
    32   15  140 1    
    33   16   17 1    
    34   17   18 1    
    35   17  141 1    
    36   17  142 1    
    37   18   19 1    
    38   18   67 1    
    39   18  143 1    
    40   19   20 am   BACKBONE|DICT|INTERRES
    41   19  144 1    
    42   20   21 2    
    43   20   22 1    
    44   22   23 1    
    45   22   24 1    
    46   22  145 1    
    47   23  146 1    
    48   23  147 1    
    49   23  148 1    
    50   24   25 am   BACKBONE|DICT|INTERRES
    51   24  149 1    
    52   25   26 2    
    53   25   27 1    
    54   27   28 1    
    55   27   29 1    
    56   27  150 1    
    57   28  151 1    
    58   28  152 1    
    59   28  153 1    
    60   29   30 am   BACKBONE|DICT|INTERRES
    61   29  154 1    
    62   30   31 2    
    63   30   32 1    
    64   32   33 1    
    65   32   34 1    
    66   32  155 1    
    67   33  156 1    
    68   33  157 1    
    69   33  158 1    
    70   34   35 am   BACKBONE|DICT|INTERRES
    71   34  159 1    
    72   35   36 2    
    73   35   37 1    
    74   37   38 1    
    75   37   39 1    
    76   37  160 1    
    77   38  161 1    
    78   38  162 1    
    79   38  163 1    
    80   39   40 am   BACKBONE|DICT|INTERRES
    81   39  164 1    
    82   40   41 2    
    83   40   42 1    
    84   42   43 1    
    85   42   44 1    
    86   42  165 1    
    87   43  166 1    
    88   43  167 1    
    89   43  168 1    
    90   44   45 am   BACKBONE|DICT|INTERRES
    91   44  169 1    
    92   45   46 2    
    93   45   47 1    
    94   47   48 1    
    95   47   49 1    
    96   47  170 1    
    97   48  171 1    
    98   48  172 1    
    99   48  173 1    
   100   49   50 am   BACKBONE|DICT|INTERRES
   101   49  174 1    
   102   50   51 2    
   103   50   52 1    
   104   52   53 1    
   105   52   54 1    
   106   52  175 1    
   107   53  176 1    
   108   53  177 1    
   109   53  178 1    
   110   54   55 am   BACKBONE|DICT|INTERRES
   111   54  179 1    
   112   55   56 2    
   113   55   57 1    
   114   57   58 1    
   115   57   59 1    
   116   57  180 1    
   117   58  181 1    
   118   58  182 1    
   119   58  183 1    
   120   59   60 am   BACKBONE|DICT|INTERRES
   121   59  184 1    
   122   60   61 2    
   123   60   62 1    
   124   62   63 1    
   125   62   64 1    
   126   62  185 1    
   127   63  186 1    
   128   63  187 1    
   129   63  188 1    
   130   64   65 am   BACKBONE|DICT|INTERRES
   131   64  189 1    
   132   65   66 2    
   133   67   68 2    
   134   67   69 am   BACKBONE|DICT|INTERRES
   135   69   70 1    
   136   69  190 1    
   137   70   71 1    
   138   70   72 1    
   139   70  191 1    
   140   71  192 1    
   141   71  193 1    
   142   71  194 1    
   143   72   73 2    
   144   72   74 am   BACKBONE|DICT|INTERRES
   145   74   75 1    
   146   74  195 1    
   147   75   76 1    
   148   75   77 1    
   149   75  196 1    
   150   76  197 1    
   151   76  198 1    
   152   76  199 1    
   153   77   78 2    
   154   77   79 am   BACKBONE|DICT|INTERRES
   155   79   80 1    
   156   79  200 1    
   157   80   81 1    
   158   80   82 1    
   159   80  201 1    
   160   81  202 1    
   161   81  203 1    
   162   81  204 1    
   163   82   83 2    
   164   82   84 am   BACKBONE|DICT|INTERRES
   165   84   85 1    
   166   84  205 1    
   167   85   86 1    
   168   85   87 1    
   169   85  206 1    
   170   86  207 1    
   171   86  208 1    
   172   86  209 1    
   173   87   88 2    
   174   87   89 am   BACKBONE|DICT|INTERRES
   175   89   90 1    
   176   89  210 1    
   177   90   91 1    
   178   90   92 1    
   179   90  211 1    
   180   91  212 1    
   181   91  213 1    
   182   91  214 1    
   183   92   93 2    
   184   92   94 am   BACKBONE|DICT|INTERRES
   185   94   95 1    
   186   94  215 1    
   187   95   96 1    
   188   95   97 1    
   189   95  216 1    
   190   96  217 1    
   191   96  218 1    
   192   96  219 1    
   193   97   98 2    
   194   97   99 am   BACKBONE|DICT|INTERRES
   195   99  100 1    
   196   99  220 1    
   197  100  101 1    
   198  100  102 1    
   199  100  221 1    
   200  101  222 1    
   201  101  223 1    
   202  101  224 1    
   203  102  103 2    
   204  102  104 am   BACKBONE|DICT|INTERRES
   205  104  105 1    
   206  104  225 1    
   207  105  106 1    
   208  105  107 1    
   209  105  226 1    
   210  106  227 1    
   211  106  228 1    
   212  106  229 1    
   213  107  108 2    
   214  107  109 am   BACKBONE|DICT|INTERRES
   215  109  110 1    
   216  109  230 1    
   217  110  111 1    
   218  110  112 1    
   219  110  231 1    
   220  111  232 1    
   221  111  233 1    
   222  111  234 1    
   223  112  113 2    
   224  112  114 am   BACKBONE|DICT|INTERRES
   225  114  115 1    
   226  114  235 1    
   227  115  116 1    
   228  115  117 1    
   229  115  236 1    
   230  116  237 1    
   231  116  238 1    
   232  116  239 1    
   233  117  118 2    
   234  117  119 am   BACKBONE|DICT|INTERRES
   235  119  120 1    
   236  119  240 1    
   237  120  121 1    
   238  120  124 1    
   239  120  241 1    
   240  121  122 am   BACKBONE|DICT|INTERRES
   241  121  123 2    
   242  122  242 1    
   243  122  243 1    
   244  124  125 1    
   245  124  244 1    
   246  124  245 1    
   247  125  126 1    
   248  126  246 1    
   249  126  247 1    
@<TRIPOS>SUBSTRUCTURE
     1 UNK         1 GROUP             0       ****    0 ROOT    
