@<TRIPOS>MOLECULE
3R540
247   249    1
SMALL
USER_CHARGES


@<TRIPOS>ATOM
      1 CA          1.0190  -10.5029  -51.3418 C.3       0 UNK        -0.1800 
      2 C           1.2569  -11.2509  -50.0383 C.2       0 UNK         0.5000 
      3 O           1.5189  -10.6250  -49.0106 O.2       0 UNK        -0.5000 
      4 N           1.1515  -12.5872  -50.0709 N.am      1 UNK        -0.5000 
      5 CA          1.3916  -13.4884  -48.9324 C.3       1 UNK         0.1400 
      6 C6          1.3752  -14.9805  -49.3439 C.3       23 UNK        -0.0398 
      7 S7          2.6229  -15.3720  -50.6217 S.3       23 UNK        -0.2404 
      8 C8          1.6144  -16.1714  -51.9230 C.3       23 UNK        -0.0205 
      9 C9          1.2816  -17.6501  -51.7006 C.ar      23 UNK        -0.0193 
     10 C10         0.8667  -18.4130  -52.7975 C.ar      23 UNK        -0.1150 
     11 C11         0.5206  -19.7598  -52.6484 C.ar      23 UNK        -0.0193 
     12 C12         0.5798  -20.3503  -51.3849 C.ar      23 UNK        -0.1150 
     13 C13         0.9786  -19.6008  -50.2780 C.ar      23 UNK        -0.0193 
     14 C14         1.3408  -18.2619  -50.4420 C.ar      23 UNK        -0.1150 
     15 C15         0.9447  -20.2096  -48.8908 C.3       23 UNK        -0.0205 
     16 S16         2.3383  -21.3382  -48.5788 S.3       23 UNK        -0.2404 
     17 C17         2.1736  -21.5495  -46.7663 C.3       23 UNK        -0.0398 
     18 CA          1.3929  -22.7825  -46.2201 C.3       11 UNK         0.1400 
     19 N           0.8732  -22.5071  -44.8774 N.am      11 UNK        -0.5000 
     20 C           0.2935  -23.3969  -44.0604 C.2       10 UNK         0.5000 
     21 O           0.1865  -24.5971  -44.3137 O.2       10 UNK        -0.5000 
     22 CA         -0.3215  -22.8302  -42.7673 C.3       10 UNK         0.1400 
     23 CB          0.7561  -22.5883  -41.6998 C.3       10 UNK        -0.1800 
     24 N          -1.0652  -21.5908  -43.0062 N.am      10 UNK        -0.5000 
     25 C          -2.1889  -21.5177  -43.7345 C.2       9 UNK         0.5000 
     26 O          -2.7338  -22.4941  -44.2480 O.2       9 UNK        -0.5000 
     27 CA         -2.7840  -20.1170  -43.9625 C.3       9 UNK         0.1400 
     28 CB         -3.6013  -19.6717  -42.7408 C.3       9 UNK        -0.1800 
     29 N          -1.7692  -19.1091  -44.2706 N.am      9 UNK        -0.5000 
     30 C          -0.9748  -19.1311  -45.3499 C.2       8 UNK         0.5000 
     31 O          -1.0362  -19.9888  -46.2273 O.2       8 UNK        -0.5000 
     32 CA          0.1132  -18.0497  -45.4423 C.3       8 UNK         0.1400 
     33 CB         -0.4567  -16.7433  -46.0063 C.3       8 UNK        -0.1800 
     34 N           0.7728  -17.7999  -44.1635 N.am      8 UNK        -0.5000 
     35 C           1.4726  -18.7118  -43.4731 C.2       7 UNK         0.5000 
     36 O           1.6504  -19.8710  -43.8491 O.2       7 UNK        -0.5000 
     37 CA          2.0278  -18.2613  -42.1137 C.3       7 UNK         0.1400 
     38 CB          3.3386  -17.4795  -42.2880 C.3       7 UNK        -0.1800 
     39 N           1.0570  -17.4412  -41.3914 N.am      7 UNK        -0.5000 
     40 C          -0.0387  -17.9268  -40.7925 C.2       6 UNK         0.5000 
     41 O          -0.3163  -19.1260  -40.7405 O.2       6 UNK        -0.5000 
     42 CA         -1.0003  -16.8924  -40.1776 C.3       6 UNK         0.1400 
     43 CB         -0.5255  -16.4748  -38.7778 C.3       6 UNK        -0.1800 
     44 N          -1.1668  -15.6982  -41.0106 N.am      6 UNK        -0.5000 
     45 C          -1.7550  -15.6995  -42.2147 C.2       5 UNK         0.5000 
     46 O          -2.2099  -16.7094  -42.7491 O.2       5 UNK        -0.5000 
     47 CA         -1.8289  -14.3564  -42.9647 C.3       5 UNK         0.1400 
     48 CB         -3.0407  -13.5488  -42.4751 C.3       5 UNK        -0.1800 
     49 N          -0.6265  -13.5189  -42.8901 N.am      5 UNK        -0.5000 
     50 C           0.6354  -13.9040  -43.1325 C.2       4 UNK         0.5000 
     51 O           0.9712  -15.0733  -43.3251 O.2       4 UNK        -0.5000 
     52 CA          1.6775  -12.7752  -43.2067 C.3       4 UNK         0.1400 
     53 CB          3.0878  -13.2874  -43.5506 C.3       4 UNK        -0.1800 
     54 N           1.2528  -11.8306  -44.2354 N.am      4 UNK        -0.5000 
     55 C           0.9850  -10.5309  -44.0519 C.2       3 UNK         0.5000 
     56 O           1.1434   -9.9470  -42.9794 O.2       3 UNK        -0.5000 
     57 CA          0.4215   -9.7492  -45.2601 C.3       3 UNK         0.1400 
     58 CB          1.5419   -8.9676  -45.9621 C.3       3 UNK        -0.1800 
     59 N          -0.2497  -10.6030  -46.2436 N.am      3 UNK        -0.5000 
     60 C          -1.3710  -11.3022  -46.0102 C.2       2 UNK         0.5000 
     61 O          -2.0385  -11.1808  -44.9834 O.2       2 UNK        -0.5000 
     62 CA         -1.8065  -12.3398  -47.0685 C.3       2 UNK         0.1400 
     63 CB         -3.0413  -11.8432  -47.8357 C.3       2 UNK        -0.1800 
     64 N          -0.7682  -12.7081  -48.0364 N.am      2 UNK        -0.5000 
     65 C           0.4252  -13.2511  -47.7513 C.2       1 UNK         0.5000 
     66 O           0.7938  -13.5152  -46.6075 O.2       1 UNK        -0.5000 
     67 C           0.2759  -23.3113  -47.1485 C.2       11 UNK         0.5000 
     68 O           0.4613  -24.3410  -47.7957 O.2       11 UNK        -0.5000 
     69 N          -0.8757  -22.6264  -47.1612 N.am      12 UNK        -0.5000 
     70 CA         -2.0462  -22.9720  -47.9641 C.3       12 UNK         0.1400 
     71 CB         -3.0826  -21.8454  -47.8651 C.3       12 UNK        -0.1800 
     72 C          -2.6605  -24.3245  -47.5715 C.2       12 UNK         0.5000 
     73 O          -3.0177  -25.1008  -48.4567 O.2       12 UNK        -0.5000 
     74 N          -2.7282  -24.6033  -46.2624 N.am      13 UNK        -0.5000 
     75 CA         -3.1711  -25.8831  -45.7105 C.3       13 UNK         0.1400 
     76 CB         -3.3085  -25.7697  -44.1848 C.3       13 UNK        -0.1800 
     77 C          -2.2387  -27.0471  -46.0924 C.2       13 UNK         0.5000 
     78 O          -2.7287  -28.1160  -46.4575 O.2       13 UNK        -0.5000 
     79 N          -0.9197  -26.8116  -46.0367 N.am      14 UNK        -0.5000 
     80 CA          0.1100  -27.7700  -46.4437 C.3       14 UNK         0.1400 
     81 CB          1.4864  -27.2758  -45.9728 C.3       14 UNK        -0.1800 
     82 C           0.1106  -28.0359  -47.9616 C.2       14 UNK         0.5000 
     83 O           0.2588  -29.1856  -48.3776 O.2       14 UNK        -0.5000 
     84 N          -0.0751  -26.9745  -48.7578 N.am      15 UNK        -0.5000 
     85 CA         -0.1698  -27.0255  -50.2184 C.3       15 UNK         0.1400 
     86 CB          0.0138  -25.6044  -50.7764 C.3       15 UNK        -0.1800 
     87 C          -1.4942  -27.6236  -50.7330 C.2       15 UNK         0.5000 
     88 O          -1.5452  -28.0537  -51.8860 O.2       15 UNK        -0.5000 
     89 N          -2.5344  -27.6121  -49.8856 N.am      16 UNK        -0.5000 
     90 CA         -3.9354  -27.9284  -50.1818 C.3       16 UNK         0.1400 
     91 CB         -4.1085  -29.4140  -50.5609 C.3       16 UNK        -0.1800 
     92 C          -4.5194  -26.9493  -51.2225 C.2       16 UNK         0.5000 
     93 O          -5.1172  -27.3681  -52.2161 O.2       16 UNK        -0.5000 
     94 N          -4.2953  -25.6546  -50.9763 N.am      17 UNK        -0.5000 
     95 CA         -4.6603  -24.5361  -51.8400 C.3       17 UNK         0.1400 
     96 CB         -3.4132  -24.1124  -52.6437 C.3       17 UNK        -0.1800 
     97 C          -5.2362  -23.3875  -50.9904 C.2       17 UNK         0.5000 
     98 O          -5.6215  -23.6013  -49.8386 O.2       17 UNK        -0.5000 
     99 N          -5.2846  -22.1853  -51.5713 N.am      18 UNK        -0.5000 
    100 CA        -5.6292  -20.9346  -50.9083 C.3       18 UNK         0.1400 
    101 CB        -7.0905  -20.5634  -51.2084 C.3       18 UNK        -0.1800 
    102 C         -4.6588  -19.8811  -51.4479 C.2       18 UNK         0.5000 
    103 O         -4.6247  -19.6745  -52.6627 O.2       18 UNK        -0.5000 
    104 N         -3.8839  -19.2488  -50.5557 N.am      19 UNK        -0.5000 
    105 CA        -2.7895  -18.3259  -50.8868 C.3       19 UNK         0.1400 
    106 CB        -2.1346  -17.8360  -49.5852 C.3       19 UNK        -0.1800 
    107 C         -3.2123  -17.1293  -51.7596 C.2       19 UNK         0.5000 
    108 O         -2.4617  -16.7159  -52.6431 O.2       19 UNK        -0.5000 
    109 N         -4.4287  -16.6233  -51.5199 N.am      20 UNK        -0.5000 
    110 CA        -5.0427  -15.5389  -52.2853 C.3       20 UNK         0.1400 
    111 CB        -6.2443  -14.9969  -51.4957 C.3       20 UNK        -0.1800 
    112 C         -5.4739  -15.9520  -53.7076 C.2       20 UNK         0.5000 
    113 O         -5.6212  -15.0768  -54.5617 O.2       20 UNK        -0.5000 
    114 N         -5.6813  -17.2561  -53.9391 N.am      21 UNK        -0.5000 
    115 CA        -6.0724  -17.8094  -55.2328 C.3       21 UNK         0.1400 
    116 CB        -6.9919  -19.0241  -55.0250 C.3       21 UNK        -0.1800 
    117 C         -4.8393  -18.1874  -56.0668 C.2       21 UNK         0.5000 
    118 O         -4.7636  -17.7995  -57.2338 O.2       21 UNK        -0.5000 
    119 N         -3.9023  -18.9356  -55.4667 N.am      22 UNK        -0.5000 
    120 CA        -2.6708  -19.3875  -56.1374 C.3       22 UNK         0.1400 
    121 C         -1.5425  -18.3190  -56.2236 C.2       22 UNK         0.5000 
    122 N         -1.5471  -17.2673  -55.4138 N.am      22 UNK        -0.7600 
    123 O         -0.6511  -18.4389  -57.0597 O.2       22 UNK        -0.5000 
    124 C124       -2.1606  -20.7482  -55.5946 C.3       23 UNK        -0.0398 
    125 S125       -1.7605  -20.7428  -53.8157 S.3       23 UNK        -0.2404 
    126 C126        0.0488  -20.5683  -53.8435 C.3       23 UNK        -0.0205 
    127 H127        0.1843   -9.8109  -51.2297 H         1 UNK         0.0600 
    128 H128        0.7907  -11.1820  -52.1635 H         1 UNK         0.0600 
    129 H129        1.9055   -9.9288  -51.6110 H         1 UNK         0.0600 
    130 H130        0.9496  -13.0425  -50.9494 H         1 UNK         0.3000 
    131 H131        2.3918  -13.2606  -48.5575 H         1 UNK         0.0600 
    132 H132        1.5874  -15.6097  -48.4773 H         1 UNK         0.0800 
    133 H133        0.3830  -15.2697  -49.6942 H         1 UNK         0.0800 
    134 H134        0.6856  -15.6163  -52.0618 H         1 UNK         0.0800 
    135 H135        2.1657  -16.0779  -52.8598 H         1 UNK         0.0800 
    136 H136        0.7992  -17.9521  -53.7730 H         1 UNK         0.1150 
    137 H137        0.2884  -21.3839  -51.2587 H         1 UNK         0.1150 
    138 H138        1.6417  -17.7006  -49.5721 H         1 UNK         0.1150 
    139 H139        0.9441  -19.4136  -48.1486 H         1 UNK         0.0800 
    140 H140        0.0014  -20.7387  -48.7680 H         1 UNK         0.0800 
    141 H141        1.7269  -20.6353  -46.3788 H         1 UNK         0.0800 
    142 H142        3.1798  -21.5594  -46.3456 H         1 UNK         0.0800 
    143 H143        2.1111  -23.5990  -46.1201 H         1 UNK         0.0600 
    144 H144        0.9476  -21.5459  -44.5565 H         1 UNK         0.3000 
    145 H145       -1.0216  -23.5731  -42.3793 H         1 UNK         0.0600 
    146 H146        0.3137  -22.2397  -40.7663 H         1 UNK         0.0600 
    147 H147        1.2993  -23.5082  -41.4797 H         1 UNK         0.0600 
    148 H148        1.4862  -21.8448  -42.0199 H         1 UNK         0.0600 
    149 H149       -0.6783  -20.7408  -42.6181 H         1 UNK         0.3000 
    150 H150       -3.4598  -20.1796  -44.8175 H         1 UNK         0.0600 
    151 H151       -4.3576  -20.4140  -42.4829 H         1 UNK         0.0600 
    152 H152       -4.1211  -18.7338  -42.9368 H         1 UNK         0.0600 
    153 H153       -2.9685  -19.5259  -41.8644 H         1 UNK         0.0600 
    154 H154       -1.6980  -18.3269  -43.6251 H         1 UNK         0.3000 
    155 H155        0.8826  -18.4006  -46.1295 H         1 UNK         0.0600 
    156 H156        0.3208  -15.9852  -46.0788 H         1 UNK         0.0600 
    157 H157       -0.8637  -16.8926  -47.0068 H         1 UNK         0.0600 
    158 H158       -1.2556  -16.3476  -45.3809 H         1 UNK         0.0600 
    159 H159        0.7159  -16.8527  -43.7959 H         1 UNK         0.3000 
    160 H160        2.2408  -19.1549  -41.5229 H         1 UNK         0.0600 
    161 H161        3.1968  -16.5755  -42.8811 H         1 UNK         0.0600 
    162 H162        4.0890  -18.0881  -42.7940 H         1 UNK         0.0600 
    163 H163        3.7538  -17.1862  -41.3238 H         1 UNK         0.0600 
    164 H164        1.1661  -16.4392  -41.4667 H         1 UNK         0.3000 
    165 H165       -1.9769  -17.3708  -40.0760 H         1 UNK         0.0600 
    166 H166       -1.2445  -15.8091  -38.2999 H         1 UNK         0.0600 
    167 H167       -0.4091  -17.3446  -38.1298 H         1 UNK         0.0600 
    168 H168        0.4360  -15.9611  -38.8138 H         1 UNK         0.0600 
    169 H169       -0.8098  -14.8271  -40.6466 H         1 UNK         0.3000 
    170 H170       -1.9858  -14.5831  -44.0201 H         1 UNK         0.0600 
    171 H171       -3.9550  -14.1414  -42.5307 H         1 UNK         0.0600 
    172 H172       -2.9191  -13.2288  -41.4396 H         1 UNK         0.0600 
    173 H173       -3.1985  -12.6591  -43.0838 H         1 UNK         0.0600 
    174 H174       -0.7943  -12.5304  -42.7684 H         1 UNK         0.3000 
    175 H175        1.7122  -12.2999  -42.2246 H         1 UNK         0.0600 
    176 H176        3.4444  -13.9891  -42.7958 H         1 UNK         0.0600 
    177 H177        3.1052  -13.7996  -44.5138 H         1 UNK         0.0600 
    178 H178        3.8035  -12.4665  -43.5955 H         1 UNK         0.0600 
    179 H179        1.0587  -12.2491  -45.1416 H         1 UNK         0.3000 
    180 H180       -0.3098   -9.0339  -44.8783 H         1 UNK         0.0600 
    181 H181        2.2989   -9.6359  -46.3747 H         1 UNK         0.0600 
    182 H182        2.0425   -8.2913  -45.2679 H         1 UNK         0.0600 
    183 H183        1.1490   -8.3625  -46.7795 H         1 UNK         0.0600 
    184 H184        0.2376  -10.7467  -47.1198 H         1 UNK         0.3000 
    185 H185       -2.0818  -13.2469  -46.5265 H         1 UNK         0.0600 
    186 H186       -3.8529  -11.5911  -47.1518 H         1 UNK         0.0600 
    187 H187       -2.8170  -10.9513  -48.4221 H         1 UNK         0.0600 
    188 H188       -3.4185  -12.6076  -48.5155 H         1 UNK         0.0600 
    189 H189       -0.9669  -12.4981  -49.0036 H         1 UNK         0.3000 
    190 H190       -0.9393  -21.7618  -46.6277 H         1 UNK         0.3000 
    191 H191       -1.7260  -23.0454  -49.0054 H         1 UNK         0.0600 
    192 H192       -3.3827  -21.6646  -46.8332 H         1 UNK         0.0600 
    193 H193       -3.9815  -22.0933  -48.4256 H         1 UNK         0.0600 
    194 H194       -2.6885  -20.9135  -48.2691 H         1 UNK         0.0600 
    195 H195       -2.4660  -23.8848  -45.5935 H         1 UNK         0.3000 
    196 H196       -4.1583  -26.0994  -46.1243 H         1 UNK         0.0600 
    197 H197       -3.6478  -26.7112  -43.7514 H         1 UNK         0.0600 
    198 H198       -4.0357  -25.0049  -43.9115 H         1 UNK         0.0600 
    199 H199       -2.3603  -25.5121  -43.7123 H         1 UNK         0.0600 
    200 H200       -0.5955  -25.9147  -45.6890 H         1 UNK         0.3000 
    201 H201       -0.0968  -28.7176  -45.9420 H         1 UNK         0.0600 
    202 H202        1.5127  -27.1594  -44.8892 H         1 UNK         0.0600 
    203 H203        1.7446  -26.3143  -46.4170 H         1 UNK         0.0600 
    204 H204        2.2698  -27.9845  -46.2438 H         1 UNK         0.0600 
    205 H205       -0.1074  -26.0492  -48.3355 H         1 UNK         0.3000 
    206 H206        0.6434  -27.6495  -50.5943 H         1 UNK         0.0600 
    207 H207        0.9754  -25.1843  -50.4806 H         1 UNK         0.0600 
    208 H208       -0.0209  -25.6018  -51.8665 H         1 UNK         0.0600 
    209 H209       -0.7683  -24.9318  -50.4222 H         1 UNK         0.0600 
    210 H210       -2.3799  -27.1758  -48.9854 H         1 UNK         0.3000 
    211 H211       -4.4873  -27.7591  -49.2559 H         1 UNK         0.0600 
    212 H212       -3.6299  -29.6534  -51.5106 H         1 UNK         0.0600 
    213 H213       -5.1645  -29.6689  -50.6558 H         1 UNK         0.0600 
    214 H214       -3.6841  -30.0659  -49.7973 H         1 UNK         0.0600 
    215 H215       -3.8590  -25.3985  -50.0918 H         1 UNK         0.3000 
    216 H216       -5.4451  -24.8411  -52.5348 H         1 UNK         0.0600 
    217 H217       -2.6437  -23.6883  -51.9970 H         1 UNK         0.0600 
    218 H218       -3.6563  -23.3686  -53.4030 H         1 UNK         0.0600 
    219 H219       -2.9738  -24.9635  -53.1646 H         1 UNK         0.0600 
    220 H220       -4.9235  -22.0717  -52.5095 H         1 UNK         0.3000 
    221 H221       -5.5023  -21.0201  -49.8279 H         1 UNK         0.0600 
    222 H222       -7.7739  -21.3111  -50.8059 H         1 UNK         0.0600 
    223 H223       -7.2776  -20.4851  -52.2796 H         1 UNK         0.0600 
    224 H224       -7.3514  -19.6057  -50.7568 H         1 UNK         0.0600 
    225 H225       -3.9937  -19.4676  -49.5770 H         1 UNK         0.3000 
    226 H226       -2.0448  -18.8893  -51.4505 H         1 UNK         0.0600 
    227 H227       -1.7240  -18.6664  -49.0108 H         1 UNK         0.0600 
    228 H228       -1.3118  -17.1526  -49.7968 H         1 UNK         0.0600 
    229 H229       -2.8449  -17.3065  -48.9493 H         1 UNK         0.0600 
    230 H230       -4.9829  -17.0319  -50.7820 H         1 UNK         0.3000 
    231 H231       -4.3106  -14.7348  -52.3862 H         1 UNK         0.0600 
    232 H232       -7.0075  -15.7623  -51.3490 H         1 UNK         0.0600 
    233 H233       -6.7128  -14.1628  -52.0200 H         1 UNK         0.0600 
    234 H234       -5.9400  -14.6317  -50.5146 H         1 UNK         0.0600 
    235 H235       -5.4624  -17.9292  -53.2139 H         1 UNK         0.3000 
    236 H236       -6.6417  -17.0633  -55.7916 H         1 UNK         0.0600 
    237 H237       -6.4795  -19.8468  -54.5267 H         1 UNK         0.0600 
    238 H238       -7.8642  -18.7608  -54.4267 H         1 UNK         0.0600 
    239 H239       -7.3553  -19.4013  -55.9816 H         1 UNK         0.0600 
    240 H240       -4.0244  -19.2170  -54.4983 H         1 UNK         0.3000 
    241 H241       -2.9364  -19.5837  -57.1783 H         1 UNK         0.0600 
    242 H242       -0.8184  -16.5790  -55.5035 H         1 UNK         0.3800 
    243 H243       -2.2056  -17.1904  -54.6482 H         1 UNK         0.3800 
    244 H244       -1.2997  -21.0962  -56.1679 H         1 UNK         0.0800 
    245 H245       -2.9320  -21.5035  -55.7492 H         1 UNK         0.0800 
    246 H246        0.5082  -21.5576  -53.8329 H         1 UNK         0.0800 
    247 H247        0.3725  -20.0873  -54.7673 H         1 UNK         0.0800 
@<TRIPOS>BOND
     1    1    2 1    
     2    1  127 1    
     3    1  128 1    
     4    1  129 1    
     5    2    3 2    
     6    2    4 am   BACKBONE|DICT|INTERRES
     7    4    5 1    
     8    4  130 1    
     9    5    6 1    
    10    5   65 1    
    11    5  131 1    
    12    6    7 1    
    13    6  132 1    
    14    6  133 1    
    15    7    8 1    
    16    8    9 1    
    17    8  134 1    
    18    8  135 1    
    19    9   10 ar   
    20    9   14 ar   
    21   10   11 ar   
    22   10  136 1    
    23   11   12 ar   
    24   11  126 1    
    25   12   13 ar   
    26   12  137 1    
    27   13   14 ar   
    28   13   15 1    
    29   14  138 1    
    30   15   16 1    
    31   15  139 1    
    32   15  140 1    
    33   16   17 1    
    34   17   18 1    
    35   17  141 1    
    36   17  142 1    
    37   18   19 1    
    38   18   67 1    
    39   18  143 1    
    40   19   20 am   BACKBONE|DICT|INTERRES
    41   19  144 1    
    42   20   21 2    
    43   20   22 1    
    44   22   23 1    
    45   22   24 1    
    46   22  145 1    
    47   23  146 1    
    48   23  147 1    
    49   23  148 1    
    50   24   25 am   BACKBONE|DICT|INTERRES
    51   24  149 1    
    52   25   26 2    
    53   25   27 1    
    54   27   28 1    
    55   27   29 1    
    56   27  150 1    
    57   28  151 1    
    58   28  152 1    
    59   28  153 1    
    60   29   30 am   BACKBONE|DICT|INTERRES
    61   29  154 1    
    62   30   31 2    
    63   30   32 1    
    64   32   33 1    
    65   32   34 1    
    66   32  155 1    
    67   33  156 1    
    68   33  157 1    
    69   33  158 1    
    70   34   35 am   BACKBONE|DICT|INTERRES
    71   34  159 1    
    72   35   36 2    
    73   35   37 1    
    74   37   38 1    
    75   37   39 1    
    76   37  160 1    
    77   38  161 1    
    78   38  162 1    
    79   38  163 1    
    80   39   40 am   BACKBONE|DICT|INTERRES
    81   39  164 1    
    82   40   41 2    
    83   40   42 1    
    84   42   43 1    
    85   42   44 1    
    86   42  165 1    
    87   43  166 1    
    88   43  167 1    
    89   43  168 1    
    90   44   45 am   BACKBONE|DICT|INTERRES
    91   44  169 1    
    92   45   46 2    
    93   45   47 1    
    94   47   48 1    
    95   47   49 1    
    96   47  170 1    
    97   48  171 1    
    98   48  172 1    
    99   48  173 1    
   100   49   50 am   BACKBONE|DICT|INTERRES
   101   49  174 1    
   102   50   51 2    
   103   50   52 1    
   104   52   53 1    
   105   52   54 1    
   106   52  175 1    
   107   53  176 1    
   108   53  177 1    
   109   53  178 1    
   110   54   55 am   BACKBONE|DICT|INTERRES
   111   54  179 1    
   112   55   56 2    
   113   55   57 1    
   114   57   58 1    
   115   57   59 1    
   116   57  180 1    
   117   58  181 1    
   118   58  182 1    
   119   58  183 1    
   120   59   60 am   BACKBONE|DICT|INTERRES
   121   59  184 1    
   122   60   61 2    
   123   60   62 1    
   124   62   63 1    
   125   62   64 1    
   126   62  185 1    
   127   63  186 1    
   128   63  187 1    
   129   63  188 1    
   130   64   65 am   BACKBONE|DICT|INTERRES
   131   64  189 1    
   132   65   66 2    
   133   67   68 2    
   134   67   69 am   BACKBONE|DICT|INTERRES
   135   69   70 1    
   136   69  190 1    
   137   70   71 1    
   138   70   72 1    
   139   70  191 1    
   140   71  192 1    
   141   71  193 1    
   142   71  194 1    
   143   72   73 2    
   144   72   74 am   BACKBONE|DICT|INTERRES
   145   74   75 1    
   146   74  195 1    
   147   75   76 1    
   148   75   77 1    
   149   75  196 1    
   150   76  197 1    
   151   76  198 1    
   152   76  199 1    
   153   77   78 2    
   154   77   79 am   BACKBONE|DICT|INTERRES
   155   79   80 1    
   156   79  200 1    
   157   80   81 1    
   158   80   82 1    
   159   80  201 1    
   160   81  202 1    
   161   81  203 1    
   162   81  204 1    
   163   82   83 2    
   164   82   84 am   BACKBONE|DICT|INTERRES
   165   84   85 1    
   166   84  205 1    
   167   85   86 1    
   168   85   87 1    
   169   85  206 1    
   170   86  207 1    
   171   86  208 1    
   172   86  209 1    
   173   87   88 2    
   174   87   89 am   BACKBONE|DICT|INTERRES
   175   89   90 1    
   176   89  210 1    
   177   90   91 1    
   178   90   92 1    
   179   90  211 1    
   180   91  212 1    
   181   91  213 1    
   182   91  214 1    
   183   92   93 2    
   184   92   94 am   BACKBONE|DICT|INTERRES
   185   94   95 1    
   186   94  215 1    
   187   95   96 1    
   188   95   97 1    
   189   95  216 1    
   190   96  217 1    
   191   96  218 1    
   192   96  219 1    
   193   97   98 2    
   194   97   99 am   BACKBONE|DICT|INTERRES
   195   99  100 1    
   196   99  220 1    
   197  100  101 1    
   198  100  102 1    
   199  100  221 1    
   200  101  222 1    
   201  101  223 1    
   202  101  224 1    
   203  102  103 2    
   204  102  104 am   BACKBONE|DICT|INTERRES
   205  104  105 1    
   206  104  225 1    
   207  105  106 1    
   208  105  107 1    
   209  105  226 1    
   210  106  227 1    
   211  106  228 1    
   212  106  229 1    
   213  107  108 2    
   214  107  109 am   BACKBONE|DICT|INTERRES
   215  109  110 1    
   216  109  230 1    
   217  110  111 1    
   218  110  112 1    
   219  110  231 1    
   220  111  232 1    
   221  111  233 1    
   222  111  234 1    
   223  112  113 2    
   224  112  114 am   BACKBONE|DICT|INTERRES
   225  114  115 1    
   226  114  235 1    
   227  115  116 1    
   228  115  117 1    
   229  115  236 1    
   230  116  237 1    
   231  116  238 1    
   232  116  239 1    
   233  117  118 2    
   234  117  119 am   BACKBONE|DICT|INTERRES
   235  119  120 1    
   236  119  240 1    
   237  120  121 1    
   238  120  124 1    
   239  120  241 1    
   240  121  122 am   BACKBONE|DICT|INTERRES
   241  121  123 2    
   242  122  242 1    
   243  122  243 1    
   244  124  125 1    
   245  124  244 1    
   246  124  245 1    
   247  125  126 1    
   248  126  246 1    
   249  126  247 1    
@<TRIPOS>SUBSTRUCTURE
     1 UNK         1 GROUP             0       ****    0 ROOT    
