@<TRIPOS>MOLECULE
3R540
247   249    1
SMALL
USER_CHARGES


@<TRIPOS>ATOM
      1 CA         -2.8523  -18.8811  -50.3661 C.3       0 UNK        -0.1800 
      2 C          -3.6320  -17.7554  -49.7156 C.2       0 UNK         0.5000 
      3 O          -4.8502  -17.6924  -49.8756 O.2       0 UNK        -0.5000 
      4 N          -2.9439  -16.8701  -48.9941 N.am      1 UNK        -0.5000 
      5 CA         -3.5253  -15.7050  -48.3361 C.3       1 UNK         0.1400 
      6 C6         -3.6035  -14.4745  -49.2842 C.3       23 UNK        -0.0398 
      7 S7         -2.0439  -13.5543  -49.5623 S.3       23 UNK        -0.2404 
      8 C8         -1.5421  -14.0792  -51.2413 C.3       23 UNK        -0.0205 
      9 C9         -0.7118  -15.3622  -51.3224 C.ar      23 UNK        -0.0193 
     10 C10        -0.5760  -15.9940  -52.5634 C.ar      23 UNK        -0.1150 
     11 C11         0.1976  -17.1510  -52.7067 C.ar      23 UNK        -0.0193 
     12 C12         0.8184  -17.6973  -51.5778 C.ar      23 UNK        -0.1150 
     13 C13         0.7080  -17.0717  -50.3351 C.ar      23 UNK        -0.0193 
     14 C14        -0.0456  -15.9024  -50.2151 C.ar      23 UNK        -0.1150 
     15 C15         1.3968  -17.6544  -49.1144 C.3       23 UNK        -0.0205 
     16 S16         0.2362  -18.6445  -48.1331 S.3       23 UNK        -0.2404 
     17 C17         0.2507  -20.2567  -49.0053 C.3       23 UNK        -0.0398 
     18 CA         -0.0927  -21.4509  -48.0792 C.3       11 UNK         0.1400 
     19 N           0.8597  -21.5388  -46.9685 N.am      11 UNK        -0.5000 
     20 C           0.8862  -22.4501  -45.9916 C.2       10 UNK         0.5000 
     21 O           0.0560  -23.3501  -45.8831 O.2       10 UNK        -0.5000 
     22 CA          1.9935  -22.3127  -44.9324 C.3       10 UNK         0.1400 
     23 CB          3.3175  -22.9307  -45.4174 C.3       10 UNK        -0.1800 
     24 N           2.1769  -20.9420  -44.4408 N.am      10 UNK        -0.5000 
     25 C           2.6554  -19.8606  -45.0754 C.2       9 UNK         0.5000 
     26 O           3.0419  -19.8611  -46.2442 O.2       9 UNK        -0.5000 
     27 CA          2.6896  -18.5514  -44.2668 C.3       9 UNK         0.1400 
     28 CB          1.3632  -17.7894  -44.4245 C.3       9 UNK        -0.1800 
     29 N           2.9428  -18.7796  -42.8447 N.am      9 UNK        -0.5000 
     30 C           4.1039  -19.2011  -42.3250 C.2       8 UNK         0.5000 
     31 O           5.1214  -19.4035  -42.9883 O.2       8 UNK        -0.5000 
     32 CA          4.1209  -19.4544  -40.8089 C.3       8 UNK         0.1400 
     33 CB          4.2674  -18.1331  -40.0361 C.3       8 UNK        -0.1800 
     34 N           2.9046  -20.1406  -40.3726 N.am      8 UNK        -0.5000 
     35 C           2.7392  -21.4703  -40.3676 C.2       7 UNK         0.5000 
     36 O           3.6153  -22.2675  -40.7038 O.2       7 UNK        -0.5000 
     37 CA          1.3706  -22.0096  -39.9024 C.3       7 UNK         0.1400 
     38 CB          1.4153  -22.3643  -38.4083 C.3       7 UNK        -0.1800 
     39 N           0.2670  -21.0762  -40.1348 N.am      7 UNK        -0.5000 
     40 C          -0.2519  -20.8082  -41.3396 C.2       6 UNK         0.5000 
     41 O           0.1278  -21.3397  -42.3819 O.2       6 UNK        -0.5000 
     42 CA         -1.3424  -19.7225  -41.4032 C.3       6 UNK         0.1400 
     43 CB         -2.7373  -20.3400  -41.2283 C.3       6 UNK        -0.1800 
     44 N          -1.1692  -18.6076  -40.4622 N.am      6 UNK        -0.5000 
     45 C          -0.0819  -17.8272  -40.4173 C.2       5 UNK         0.5000 
     46 O           0.9541  -18.0746  -41.0367 O.2       5 UNK        -0.5000 
     47 CA         -0.1385  -16.5614  -39.5412 C.3       5 UNK         0.1400 
     48 CB          0.4081  -16.8617  -38.1377 C.3       5 UNK        -0.1800 
     49 N           0.6610  -15.4916  -40.1472 N.am      5 UNK        -0.5000 
     50 C           0.3867  -14.9461  -41.3397 C.2       4 UNK         0.5000 
     51 O          -0.6866  -15.1164  -41.9300 O.2       4 UNK        -0.5000 
     52 CA          1.5009  -14.1204  -42.0114 C.3       4 UNK         0.1400 
     53 CB          2.8910  -14.7810  -41.8936 C.3       4 UNK        -0.1800 
     54 N           1.1243  -13.9906  -43.4110 N.am      4 UNK        -0.5000 
     55 C           1.5290  -13.0855  -44.3050 C.2       3 UNK         0.5000 
     56 O           2.4028  -12.2449  -44.0902 O.2       3 UNK        -0.5000 
     57 CA          0.8072  -13.1218  -45.6699 C.3       3 UNK         0.1400 
     58 CB          1.6501  -13.8778  -46.7092 C.3       3 UNK        -0.1800 
     59 N          -0.5130  -13.7549  -45.5922 N.am      3 UNK        -0.5000 
     60 C          -1.5863  -13.2476  -44.9737 C.2       2 UNK         0.5000 
     61 O          -1.6203  -12.1114  -44.4974 O.2       2 UNK        -0.5000 
     62 CA         -2.8136  -14.1802  -44.8672 C.3       2 UNK         0.1400 
     63 CB         -3.9552  -13.5662  -44.0371 C.3       2 UNK        -0.1800 
     64 N          -3.3431  -14.5709  -46.1750 N.am      2 UNK        -0.5000 
     65 C          -2.7779  -15.4461  -47.0158 C.2       1 UNK         0.5000 
     66 O          -1.7158  -16.0297  -46.7792 O.2       1 UNK        -0.5000 
     67 C          -1.5692  -21.4120  -47.6219 C.2       11 UNK         0.5000 
     68 O          -2.4216  -22.0616  -48.2312 O.2       11 UNK        -0.5000 
     69 N          -1.8355  -20.6673  -46.5410 N.am      12 UNK        -0.5000 
     70 CA         -3.1581  -20.4907  -45.9448 C.3       12 UNK         0.1400 
     71 CB         -3.1634  -19.1938  -45.1238 C.3       12 UNK        -0.1800 
     72 C          -3.6124  -21.6932  -45.0959 C.2       12 UNK         0.5000 
     73 O          -4.8065  -21.8162  -44.8272 O.2       12 UNK        -0.5000 
     74 N          -2.6747  -22.5619  -44.6970 N.am      13 UNK        -0.5000 
     75 CA         -2.9746  -23.8440  -44.0623 C.3       13 UNK         0.1400 
     76 CB         -1.8627  -24.1960  -43.0607 C.3       13 UNK        -0.1800 
     77 C          -3.1326  -24.9486  -45.1221 C.2       13 UNK         0.5000 
     78 O          -4.0366  -25.7770  -45.0099 O.2       13 UNK        -0.5000 
     79 N          -2.2458  -24.9411  -46.1263 N.am      14 UNK        -0.5000 
     80 CA         -2.1547  -25.9522  -47.1753 C.3       14 UNK         0.1400 
     81 CB         -0.7906  -25.8268  -47.8723 C.3       14 UNK        -0.1800 
     82 C          -3.2866  -25.8867  -48.2142 C.2       14 UNK         0.5000 
     83 O          -3.7350  -26.9420  -48.6655 O.2       14 UNK        -0.5000 
     84 N          -3.7047  -24.6735  -48.6015 N.am      15 UNK        -0.5000 
     85 CA         -4.6405  -24.4613  -49.7063 C.3       15 UNK         0.1400 
     86 CB         -3.8531  -24.1746  -50.9978 C.3       15 UNK        -0.1800 
     87 C          -5.6532  -23.3450  -49.4224 C.2       15 UNK         0.5000 
     88 O          -6.8531  -23.5785  -49.5698 O.2       15 UNK        -0.5000 
     89 N          -5.1577  -22.1494  -49.0630 N.am      16 UNK        -0.5000 
     90 CA         -5.9232  -20.8995  -48.9111 C.3       16 UNK         0.1400 
     91 CB         -6.8780  -20.9798  -47.7025 C.3       16 UNK        -0.1800 
     92 C          -6.6519  -20.4676  -50.2072 C.2       16 UNK         0.5000 
     93 O          -7.7442  -19.9002  -50.1488 O.2       16 UNK        -0.5000 
     94 N          -6.0393  -20.7693  -51.3593 N.am      17 UNK        -0.5000 
     95 CA         -6.6290  -20.6259  -52.6920 C.3       17 UNK         0.1400 
     96 CB         -6.2519  -21.8713  -53.5147 C.3       17 UNK        -0.1800 
     97 C          -6.2110  -19.3262  -53.4097 C.2       17 UNK         0.5000 
     98 O          -6.3598  -19.2417  -54.6299 O.2       17 UNK        -0.5000 
     99 N          -5.6766  -18.3451  -52.6666 N.am      18 UNK        -0.5000 
    100 CA        -5.0861  -17.0983  -53.1637 C.3       18 UNK         0.1400 
    101 CB        -6.1747  -16.1644  -53.7388 C.3       18 UNK        -0.1800 
    102 C         -3.9143  -17.3893  -54.1241 C.2       18 UNK         0.5000 
    103 O         -3.0631  -18.2166  -53.7949 O.2       18 UNK        -0.5000 
    104 N         -3.8948  -16.7417  -55.2965 N.am      19 UNK        -0.5000 
    105 CA        -2.8681  -16.8968  -56.3300 C.3       19 UNK         0.1400 
    106 CB        -3.1735  -15.9358  -57.4881 C.3       19 UNK        -0.1800 
    107 C         -2.7057  -18.3374  -56.8558 C.2       19 UNK         0.5000 
    108 O         -1.5979  -18.7175  -57.2354 O.2       19 UNK        -0.5000 
    109 N         -3.7921  -19.1246  -56.8394 N.am      20 UNK        -0.5000 
    110 CA        -3.8127  -20.5155  -57.2977 C.3       20 UNK         0.1400 
    111 CB        -5.2651  -20.9967  -57.4215 C.3       20 UNK        -0.1800 
    112 C         -2.9903  -21.4737  -56.4143 C.2       20 UNK         0.5000 
    113 O         -2.5495  -22.5105  -56.9121 O.2       20 UNK        -0.5000 
    114 N         -2.7424  -21.1027  -55.1472 N.am      21 UNK        -0.5000 
    115 CA        -1.8762  -21.8497  -54.2266 C.3       21 UNK         0.1400 
    116 CB        -2.0316  -21.2833  -52.8078 C.3       21 UNK        -0.1800 
    117 C         -0.3913  -21.8396  -54.6472 C.2       21 UNK         0.5000 
    118 O          0.3630  -22.7189  -54.2303 O.2       21 UNK        -0.5000 
    119 N         -0.0114  -20.8579  -55.4729 N.am      22 UNK        -0.5000 
    120 CA         1.3201  -20.7003  -56.0708 C.3       22 UNK         0.1400 
    121 C          1.4349  -21.3545  -57.4808 C.2       22 UNK         0.5000 
    122 N          0.4139  -22.0305  -57.9982 N.am      22 UNK        -0.7600 
    123 O          2.4819  -21.2659  -58.1163 O.2       22 UNK        -0.5000 
    124 C124        1.7434  -19.2075  -56.0919 C.3       23 UNK        -0.0398 
    125 S125        1.9701  -18.5174  -54.4162 S.3       23 UNK        -0.2404 
    126 C126        0.3221  -17.8061  -54.0801 C.3       23 UNK        -0.0205 
    127 H127       -2.7970  -19.7379  -49.6983 H         1 UNK         0.0600 
    128 H128       -3.3449  -19.1951  -51.2838 H         1 UNK         0.0600 
    129 H129       -1.8450  -18.5580  -50.6247 H         1 UNK         0.0600 
    130 H130       -1.9527  -16.9939  -48.8238 H         1 UNK         0.3000 
    131 H131       -4.5458  -15.9609  -48.0421 H         1 UNK         0.0600 
    132 H132       -4.3168  -13.7584  -48.8744 H         1 UNK         0.0800 
    133 H133       -4.0290  -14.7716  -50.2434 H         1 UNK         0.0800 
    134 H134       -0.9464  -13.2751  -51.6746 H         1 UNK         0.0800 
    135 H135       -2.4293  -14.1701  -51.8695 H         1 UNK         0.0800 
    136 H136       -1.0733  -15.5773  -53.4281 H         1 UNK         0.1150 
    137 H137        1.3959  -18.6063  -51.6640 H         1 UNK         0.1150 
    138 H138       -0.1129  -15.4282  -49.2470 H         1 UNK         0.1150 
    139 H139        2.2640  -18.2529  -49.3972 H         1 UNK         0.0800 
    140 H140        1.7775  -16.8446  -48.4903 H         1 UNK         0.0800 
    141 H141        1.2439  -20.4133  -49.4277 H         1 UNK         0.0800 
    142 H142       -0.4222  -20.2217  -49.8613 H         1 UNK         0.0800 
    143 H143        0.0256  -22.3661  -48.6624 H         1 UNK         0.0600 
    144 H144        1.5858  -20.8269  -46.9478 H         1 UNK         0.3000 
    145 H145        1.6664  -22.8904  -44.0664 H         1 UNK         0.0600 
    146 H146        4.0832  -22.8746  -44.6436 H         1 UNK         0.0600 
    147 H147        3.1836  -23.9837  -45.6678 H         1 UNK         0.0600 
    148 H148        3.7023  -22.4326  -46.3075 H         1 UNK         0.0600 
    149 H149        1.8099  -20.8001  -43.5067 H         1 UNK         0.3000 
    150 H150        3.4947  -17.9295  -44.6635 H         1 UNK         0.0600 
    151 H151        1.1715  -17.5474  -45.4702 H         1 UNK         0.0600 
    152 H152        1.3787  -16.8497  -43.8745 H         1 UNK         0.0600 
    153 H153        0.5166  -18.3727  -44.0602 H         1 UNK         0.0600 
    154 H154        2.1693  -18.5913  -42.2087 H         1 UNK         0.3000 
    155 H155        4.9904  -20.0743  -40.5794 H         1 UNK         0.0600 
    156 H156        3.4290  -17.4599  -40.2154 H         1 UNK         0.0600 
    157 H157        5.1767  -17.6082  -40.3314 H         1 UNK         0.0600 
    158 H158        4.3284  -18.3109  -38.9624 H         1 UNK         0.0600 
    159 H159        2.1090  -19.5498  -40.1665 H         1 UNK         0.3000 
    160 H160        1.1701  -22.9252  -40.4634 H         1 UNK         0.0600 
    161 H161        0.4785  -22.8165  -38.0820 H         1 UNK         0.0600 
    162 H162        1.5976  -21.4839  -37.7907 H         1 UNK         0.0600 
    163 H163        2.2105  -23.0816  -38.2006 H         1 UNK         0.0600 
    164 H164       -0.0966  -20.5846  -39.3317 H         1 UNK         0.3000 
    165 H165       -1.2868  -19.2915  -42.4028 H         1 UNK         0.0600 
    166 H166       -3.5205  -19.6019  -41.4022 H         1 UNK         0.0600 
    167 H167       -2.8982  -21.1520  -41.9387 H         1 UNK         0.0600 
    168 H168       -2.8738  -20.7477  -40.2260 H         1 UNK         0.0600 
    169 H169       -1.9763  -18.3564  -39.9096 H         1 UNK         0.3000 
    170 H170       -1.1740  -16.2246  -39.4610 H         1 UNK         0.0600 
    171 H171       -0.1792  -17.6388  -37.6469 H         1 UNK         0.0600 
    172 H172        1.4431  -17.2053  -38.1729 H         1 UNK         0.0600 
    173 H173        0.3698  -15.9769  -37.5021 H         1 UNK         0.0600 
    174 H174        1.5678  -15.3267  -39.7371 H         1 UNK         0.3000 
    175 H175        1.5184  -13.1308  -41.5513 H         1 UNK         0.0600 
    176 H176        2.8802  -15.8095  -42.2558 H         1 UNK         0.0600 
    177 H177        3.6403  -14.2359  -42.4674 H         1 UNK         0.0600 
    178 H178        3.2367  -14.7989  -40.8599 H         1 UNK         0.0600 
    179 H179        0.3460  -14.5878  -43.6615 H         1 UNK         0.3000 
    180 H180        0.6780  -12.0918  -46.0082 H         1 UNK         0.0600 
    181 H181        1.7894  -14.9233  -46.4304 H         1 UNK         0.0600 
    182 H182        2.6390  -13.4294  -46.8124 H         1 UNK         0.0600 
    183 H183        1.1780  -13.8534  -47.6917 H         1 UNK         0.0600 
    184 H184       -0.6093  -14.6783  -46.0070 H         1 UNK         0.3000 
    185 H185       -2.4816  -15.0819  -44.3474 H         1 UNK         0.0600 
    186 H186       -4.7784  -14.2706  -43.9169 H         1 UNK         0.0600 
    187 H187       -3.6105  -13.3008  -43.0367 H         1 UNK         0.0600 
    188 H188       -4.3510  -12.6618  -44.5008 H         1 UNK         0.0600 
    189 H189       -4.1978  -14.1111  -46.4528 H         1 UNK         0.3000 
    190 H190       -1.0740  -20.1540  -46.1211 H         1 UNK         0.3000 
    191 H191       -3.8852  -20.3755  -46.7493 H         1 UNK         0.0600 
    192 H192       -2.4074  -19.2127  -44.3418 H         1 UNK         0.0600 
    193 H193       -4.1308  -19.0309  -44.6470 H         1 UNK         0.0600 
    194 H194       -2.9643  -18.3299  -45.7579 H         1 UNK         0.0600 
    195 H195       -1.7140  -22.4091  -44.9737 H         1 UNK         0.3000 
    196 H196       -3.9110  -23.7767  -43.5043 H         1 UNK         0.0600 
    197 H197       -0.8852  -24.2595  -43.5391 H         1 UNK         0.0600 
    198 H198       -2.0577  -25.1573  -42.5841 H         1 UNK         0.0600 
    199 H199       -1.7970  -23.4500  -42.2692 H         1 UNK         0.0600 
    200 H200       -1.4916  -24.2586  -46.1023 H         1 UNK         0.3000 
    201 H201       -2.1996  -26.9343  -46.6998 H         1 UNK         0.0600 
    202 H202        0.0276  -25.9603  -47.1643 H         1 UNK         0.0600 
    203 H203       -0.6689  -24.8505  -48.3431 H         1 UNK         0.0600 
    204 H204       -0.6753  -26.5839  -48.6489 H         1 UNK         0.0600 
    205 H205       -3.2821  -23.8465  -48.1923 H         1 UNK         0.3000 
    206 H206       -5.2312  -25.3648  -49.8727 H         1 UNK         0.0600 
    207 H207       -3.2447  -25.0326  -51.2841 H         1 UNK         0.0600 
    208 H208       -4.5231  -23.9606  -51.8313 H         1 UNK         0.0600 
    209 H209       -3.1857  -23.3209  -50.8793 H         1 UNK         0.0600 
    210 H210       -4.1527  -22.0694  -48.9279 H         1 UNK         0.3000 
    211 H211       -5.1932  -20.1199  -48.6988 H         1 UNK         0.0600 
    212 H212       -7.7080  -21.6628  -47.8851 H         1 UNK         0.0600 
    213 H213       -7.3037  -20.0017  -47.4759 H         1 UNK         0.0600 
    214 H214       -6.3598  -21.3210  -46.8094 H         1 UNK         0.0600 
    215 H215       -5.1382  -21.2194  -51.3152 H         1 UNK         0.3000 
    216 H216       -7.7175  -20.6033  -52.6108 H         1 UNK         0.0600 
    217 H217       -6.7720  -21.8810  -54.4728 H         1 UNK         0.0600 
    218 H218       -6.5321  -22.7870  -52.9936 H         1 UNK         0.0600 
    219 H219       -5.1818  -21.9145  -53.7185 H         1 UNK         0.0600 
    220 H220       -5.5869  -18.4891  -51.6673 H         1 UNK         0.3000 
    221 H221       -4.6460  -16.5928  -52.3044 H         1 UNK         0.0600 
    222 H222       -6.6373  -16.5716  -54.6385 H         1 UNK         0.0600 
    223 H223       -6.9672  -16.0002  -53.0085 H         1 UNK         0.0600 
    224 H224       -5.7651  -15.1844  -53.9863 H         1 UNK         0.0600 
    225 H225       -4.6452  -16.0984  -55.5016 H         1 UNK         0.3000 
    226 H226       -1.9157  -16.6012  -55.8892 H         1 UNK         0.0600 
    227 H227       -3.1927  -14.9002  -57.1480 H         1 UNK         0.0600 
    228 H228       -2.4117  -16.0062  -58.2658 H         1 UNK         0.0600 
    229 H229       -4.1363  -16.1566  -57.9507 H         1 UNK         0.0600 
    230 H230       -4.6552  -18.7584  -56.4604 H         1 UNK         0.3000 
    231 H231       -3.3683  -20.5394  -58.2950 H         1 UNK         0.0600 
    232 H232       -5.8416  -20.3511  -58.0841 H         1 UNK         0.0600 
    233 H233       -5.7653  -21.0189  -56.4549 H         1 UNK         0.0600 
    234 H234       -5.3074  -22.0059  -57.8332 H         1 UNK         0.0600 
    235 H235       -3.0934  -20.2108  -54.8182 H         1 UNK         0.3000 
    236 H236       -2.2106  -22.8892  -54.2169 H         1 UNK         0.0600 
    237 H237       -1.4648  -21.8735  -52.0868 H         1 UNK         0.0600 
    238 H238       -1.6661  -20.2581  -52.7456 H         1 UNK         0.0600 
    239 H239       -3.0733  -21.2924  -52.4903 H         1 UNK         0.0600 
    240 H240       -0.7096  -20.2020  -55.7985 H         1 UNK         0.3000 
    241 H241        2.0461  -21.2325  -55.4534 H         1 UNK         0.0600 
    242 H242       -0.4535  -22.1414  -57.4906 H         1 UNK         0.3800 
    243 H243        0.5144  -22.4517  -58.9083 H         1 UNK         0.3800 
    244 H244        2.6973  -19.0886  -56.6085 H         1 UNK         0.0800 
    245 H245        1.0249  -18.6048  -56.6489 H         1 UNK         0.0800 
    246 H246       -0.4388  -18.5808  -54.1550 H         1 UNK         0.0800 
    247 H247        0.1082  -17.0761  -54.8607 H         1 UNK         0.0800 
@<TRIPOS>BOND
     1    1    2 1    
     2    1  127 1    
     3    1  128 1    
     4    1  129 1    
     5    2    3 2    
     6    2    4 am   BACKBONE|DICT|INTERRES
     7    4    5 1    
     8    4  130 1    
     9    5    6 1    
    10    5   65 1    
    11    5  131 1    
    12    6    7 1    
    13    6  132 1    
    14    6  133 1    
    15    7    8 1    
    16    8    9 1    
    17    8  134 1    
    18    8  135 1    
    19    9   10 ar   
    20    9   14 ar   
    21   10   11 ar   
    22   10  136 1    
    23   11   12 ar   
    24   11  126 1    
    25   12   13 ar   
    26   12  137 1    
    27   13   14 ar   
    28   13   15 1    
    29   14  138 1    
    30   15   16 1    
    31   15  139 1    
    32   15  140 1    
    33   16   17 1    
    34   17   18 1    
    35   17  141 1    
    36   17  142 1    
    37   18   19 1    
    38   18   67 1    
    39   18  143 1    
    40   19   20 am   BACKBONE|DICT|INTERRES
    41   19  144 1    
    42   20   21 2    
    43   20   22 1    
    44   22   23 1    
    45   22   24 1    
    46   22  145 1    
    47   23  146 1    
    48   23  147 1    
    49   23  148 1    
    50   24   25 am   BACKBONE|DICT|INTERRES
    51   24  149 1    
    52   25   26 2    
    53   25   27 1    
    54   27   28 1    
    55   27   29 1    
    56   27  150 1    
    57   28  151 1    
    58   28  152 1    
    59   28  153 1    
    60   29   30 am   BACKBONE|DICT|INTERRES
    61   29  154 1    
    62   30   31 2    
    63   30   32 1    
    64   32   33 1    
    65   32   34 1    
    66   32  155 1    
    67   33  156 1    
    68   33  157 1    
    69   33  158 1    
    70   34   35 am   BACKBONE|DICT|INTERRES
    71   34  159 1    
    72   35   36 2    
    73   35   37 1    
    74   37   38 1    
    75   37   39 1    
    76   37  160 1    
    77   38  161 1    
    78   38  162 1    
    79   38  163 1    
    80   39   40 am   BACKBONE|DICT|INTERRES
    81   39  164 1    
    82   40   41 2    
    83   40   42 1    
    84   42   43 1    
    85   42   44 1    
    86   42  165 1    
    87   43  166 1    
    88   43  167 1    
    89   43  168 1    
    90   44   45 am   BACKBONE|DICT|INTERRES
    91   44  169 1    
    92   45   46 2    
    93   45   47 1    
    94   47   48 1    
    95   47   49 1    
    96   47  170 1    
    97   48  171 1    
    98   48  172 1    
    99   48  173 1    
   100   49   50 am   BACKBONE|DICT|INTERRES
   101   49  174 1    
   102   50   51 2    
   103   50   52 1    
   104   52   53 1    
   105   52   54 1    
   106   52  175 1    
   107   53  176 1    
   108   53  177 1    
   109   53  178 1    
   110   54   55 am   BACKBONE|DICT|INTERRES
   111   54  179 1    
   112   55   56 2    
   113   55   57 1    
   114   57   58 1    
   115   57   59 1    
   116   57  180 1    
   117   58  181 1    
   118   58  182 1    
   119   58  183 1    
   120   59   60 am   BACKBONE|DICT|INTERRES
   121   59  184 1    
   122   60   61 2    
   123   60   62 1    
   124   62   63 1    
   125   62   64 1    
   126   62  185 1    
   127   63  186 1    
   128   63  187 1    
   129   63  188 1    
   130   64   65 am   BACKBONE|DICT|INTERRES
   131   64  189 1    
   132   65   66 2    
   133   67   68 2    
   134   67   69 am   BACKBONE|DICT|INTERRES
   135   69   70 1    
   136   69  190 1    
   137   70   71 1    
   138   70   72 1    
   139   70  191 1    
   140   71  192 1    
   141   71  193 1    
   142   71  194 1    
   143   72   73 2    
   144   72   74 am   BACKBONE|DICT|INTERRES
   145   74   75 1    
   146   74  195 1    
   147   75   76 1    
   148   75   77 1    
   149   75  196 1    
   150   76  197 1    
   151   76  198 1    
   152   76  199 1    
   153   77   78 2    
   154   77   79 am   BACKBONE|DICT|INTERRES
   155   79   80 1    
   156   79  200 1    
   157   80   81 1    
   158   80   82 1    
   159   80  201 1    
   160   81  202 1    
   161   81  203 1    
   162   81  204 1    
   163   82   83 2    
   164   82   84 am   BACKBONE|DICT|INTERRES
   165   84   85 1    
   166   84  205 1    
   167   85   86 1    
   168   85   87 1    
   169   85  206 1    
   170   86  207 1    
   171   86  208 1    
   172   86  209 1    
   173   87   88 2    
   174   87   89 am   BACKBONE|DICT|INTERRES
   175   89   90 1    
   176   89  210 1    
   177   90   91 1    
   178   90   92 1    
   179   90  211 1    
   180   91  212 1    
   181   91  213 1    
   182   91  214 1    
   183   92   93 2    
   184   92   94 am   BACKBONE|DICT|INTERRES
   185   94   95 1    
   186   94  215 1    
   187   95   96 1    
   188   95   97 1    
   189   95  216 1    
   190   96  217 1    
   191   96  218 1    
   192   96  219 1    
   193   97   98 2    
   194   97   99 am   BACKBONE|DICT|INTERRES
   195   99  100 1    
   196   99  220 1    
   197  100  101 1    
   198  100  102 1    
   199  100  221 1    
   200  101  222 1    
   201  101  223 1    
   202  101  224 1    
   203  102  103 2    
   204  102  104 am   BACKBONE|DICT|INTERRES
   205  104  105 1    
   206  104  225 1    
   207  105  106 1    
   208  105  107 1    
   209  105  226 1    
   210  106  227 1    
   211  106  228 1    
   212  106  229 1    
   213  107  108 2    
   214  107  109 am   BACKBONE|DICT|INTERRES
   215  109  110 1    
   216  109  230 1    
   217  110  111 1    
   218  110  112 1    
   219  110  231 1    
   220  111  232 1    
   221  111  233 1    
   222  111  234 1    
   223  112  113 2    
   224  112  114 am   BACKBONE|DICT|INTERRES
   225  114  115 1    
   226  114  235 1    
   227  115  116 1    
   228  115  117 1    
   229  115  236 1    
   230  116  237 1    
   231  116  238 1    
   232  116  239 1    
   233  117  118 2    
   234  117  119 am   BACKBONE|DICT|INTERRES
   235  119  120 1    
   236  119  240 1    
   237  120  121 1    
   238  120  124 1    
   239  120  241 1    
   240  121  122 am   BACKBONE|DICT|INTERRES
   241  121  123 2    
   242  122  242 1    
   243  122  243 1    
   244  124  125 1    
   245  124  244 1    
   246  124  245 1    
   247  125  126 1    
   248  126  246 1    
   249  126  247 1    
@<TRIPOS>SUBSTRUCTURE
     1 UNK         1 GROUP             0       ****    0 ROOT    
