@<TRIPOS>MOLECULE
3R540
247   249    1
SMALL
USER_CHARGES


@<TRIPOS>ATOM
      1 CA          0.4736  -11.6357  -46.5210 C.3       0 UNK        -0.1800 
      2 C           1.8379  -11.6897  -47.1951 C.2       0 UNK         0.5000 
      3 O           2.7094  -10.8755  -46.8919 O.2       0 UNK        -0.5000 
      4 N           2.0235  -12.6391  -48.1198 N.am      1 UNK        -0.5000 
      5 CA          3.2823  -12.8714  -48.8398 C.3       1 UNK         0.1400 
      6 C6          3.0382  -13.5733  -50.1977 C.3       23 UNK        -0.0398 
      7 S7          2.1627  -15.1731  -50.0619 S.3       23 UNK        -0.2404 
      8 C8          3.4722  -16.3300  -50.5761 C.3       23 UNK        -0.0205 
      9 C9          2.9419  -17.7502  -50.6947 C.ar      23 UNK        -0.0193 
     10 C10         1.9438  -18.0397  -51.6274 C.ar      23 UNK        -0.1150 
     11 C11         1.4252  -19.3304  -51.7405 C.ar      23 UNK        -0.0193 
     12 C12         1.9252  -20.3465  -50.9211 C.ar      23 UNK        -0.1150 
     13 C13         2.9463  -20.0793  -50.0020 C.ar      23 UNK        -0.0193 
     14 C14         3.4498  -18.7772  -49.8935 C.ar      23 UNK        -0.1150 
     15 C15         3.5201  -21.2140  -49.1598 C.3       23 UNK        -0.0205 
     16 S16         3.6423  -20.8410  -47.3772 S.3       23 UNK        -0.2404 
     17 C17         1.9394  -20.3578  -46.9415 C.3       23 UNK        -0.0398 
     18 CA          1.0368  -21.5578  -46.5535 C.3       11 UNK         0.1400 
     19 N           0.1095  -21.2229  -45.4684 N.am      11 UNK        -0.5000 
     20 C          -0.6947  -22.0898  -44.8374 C.2       10 UNK         0.5000 
     21 O          -0.6830  -23.3018  -45.0433 O.2       10 UNK        -0.5000 
     22 CA         -1.7246  -21.5023  -43.8528 C.3       10 UNK         0.1400 
     23 CB         -1.1234  -21.3486  -42.4484 C.3       10 UNK        -0.1800 
     24 N          -2.2697  -20.2223  -44.3109 N.am      10 UNK        -0.5000 
     25 C          -3.0227  -20.0798  -45.4114 C.2       9 UNK         0.5000 
     26 O          -3.4037  -21.0277  -46.0974 O.2       9 UNK        -0.5000 
     27 CA         -3.3608  -18.6433  -45.8539 C.3       9 UNK         0.1400 
     28 CB         -4.5882  -18.1094  -45.1017 C.3       9 UNK        -0.1800 
     29 N          -2.2355  -17.7204  -45.6915 N.am      9 UNK        -0.5000 
     30 C          -1.0797  -17.8139  -46.3657 C.2       8 UNK         0.5000 
     31 O          -0.8735  -18.6534  -47.2418 O.2       8 UNK        -0.5000 
     32 CA          0.0567  -16.8602  -45.9460 C.3       8 UNK         0.1400 
     33 CB         -0.0963  -15.4796  -46.5999 C.3       8 UNK        -0.1800 
     34 N           0.1472  -16.7088  -44.4932 N.am      8 UNK        -0.5000 
     35 C           0.4554  -17.6997  -43.6455 C.2       7 UNK         0.5000 
     36 O           0.7634  -18.8324  -44.0109 O.2       7 UNK        -0.5000 
     37 CA          0.3198  -17.4080  -42.1405 C.3       7 UNK         0.1400 
     38 CB          1.5820  -16.7490  -41.5675 C.3       7 UNK        -0.1800 
     39 N          -0.8494  -16.5789  -41.8508 N.am      7 UNK        -0.5000 
     40 C          -2.1149  -17.0145  -41.9174 C.2       6 UNK         0.5000 
     41 O          -2.4211  -18.1753  -42.1862 O.2       6 UNK        -0.5000 
     42 CA         -3.2233  -15.9725  -41.6756 C.3       6 UNK         0.1400 
     43 CB         -3.5225  -15.8424  -40.1749 C.3       6 UNK        -0.1800 
     44 N          -2.8864  -14.6549  -42.2167 N.am      6 UNK        -0.5000 
     45 C          -2.7829  -14.3759  -43.5240 C.2       5 UNK         0.5000 
     46 O          -3.0149  -15.1911  -44.4160 O.2       5 UNK        -0.5000 
     47 CA         -2.2729  -12.9673  -43.8903 C.3       5 UNK         0.1400 
     48 CB         -3.4362  -11.9675  -43.9564 C.3       5 UNK        -0.1800 
     49 N          -1.2488  -12.4674  -42.9649 N.am      5 UNK        -0.5000 
     50 C          -0.0655  -13.0628  -42.7661 C.2       4 UNK         0.5000 
     51 O           0.2769  -14.0868  -43.3583 O.2       4 UNK        -0.5000 
     52 CA          0.8416  -12.4579  -41.6773 C.3       4 UNK         0.1400 
     53 CB          0.3366  -12.8664  -40.2836 C.3       4 UNK        -0.1800 
     54 N           2.2346  -12.8895  -41.8058 N.am      4 UNK        -0.5000 
     55 C           3.0595  -12.5380  -42.8000 C.2       3 UNK         0.5000 
     56 O           2.7534  -11.7340  -43.6812 O.2       3 UNK        -0.5000 
     57 CA          4.4798  -13.1440  -42.8050 C.3       3 UNK         0.1400 
     58 CB          4.7784  -14.1091  -41.6332 C.3       3 UNK        -0.1800 
     59 N           4.7938  -13.7606  -44.0980 N.am      3 UNK        -0.5000 
     60 C           4.2065  -14.8347  -44.6434 C.2       2 UNK         0.5000 
     61 O           3.3289  -15.5012  -44.0978 O.2       2 UNK        -0.5000 
     62 CA          4.6487  -15.1837  -46.0690 C.3       2 UNK         0.1400 
     63 CB          4.4419  -16.6714  -46.4123 C.3       2 UNK        -0.1800 
     64 N           3.8537  -14.3712  -46.9784 N.am      2 UNK        -0.5000 
     65 C           4.3240  -13.6339  -47.9904 C.2       1 UNK         0.5000 
     66 O           5.5191  -13.5456  -48.2753 O.2       1 UNK        -0.5000 
     67 C           0.2894  -22.1212  -47.7809 C.2       11 UNK         0.5000 
     68 O           0.6875  -23.1572  -48.3130 O.2       11 UNK        -0.5000 
     69 N          -0.8114  -21.4625  -48.1737 N.am      12 UNK        -0.5000 
     70 CA         -1.7094  -21.9139  -49.2383 C.3       12 UNK         0.1400 
     71 CB         -2.7814  -20.8491  -49.5064 C.3       12 UNK        -0.1800 
     72 C          -2.3619  -23.2705  -48.9171 C.2       12 UNK         0.5000 
     73 O          -2.3868  -24.1478  -49.7793 O.2       12 UNK        -0.5000 
     74 N          -2.8278  -23.4372  -47.6708 N.am      13 UNK        -0.5000 
     75 CA         -3.3990  -24.6843  -47.1611 C.3       13 UNK         0.1400 
     76 CB         -3.9988  -24.4510  -45.7670 C.3       13 UNK        -0.1800 
     77 C          -2.3831  -25.8423  -47.1406 C.2       13 UNK         0.5000 
     78 O          -2.7313  -26.9558  -47.5323 O.2       13 UNK        -0.5000 
     79 N          -1.1349  -25.5569  -46.7420 N.am      14 UNK        -0.5000 
     80 CA         -0.0074  -26.4935  -46.7822 C.3       14 UNK         0.1400 
     81 CB          1.1930  -25.8873  -46.0398 C.3       14 UNK        -0.1800 
     82 C           0.3844  -26.9015  -48.2165 C.2       14 UNK         0.5000 
     83 O           0.7802  -28.0466  -48.4361 O.2       14 UNK        -0.5000 
     84 N           0.2181  -25.9769  -49.1717 N.am      15 UNK        -0.5000 
     85 CA          0.3604  -26.2052  -50.6118 C.3       15 UNK         0.1400 
     86 CB          0.6507  -24.8605  -51.3018 C.3       15 UNK        -0.1800 
     87 C          -0.8604  -26.9114  -51.2483 C.2       15 UNK         0.5000 
     88 O          -0.8369  -27.1708  -52.4522 O.2       15 UNK        -0.5000 
     89 N          -1.8907  -27.2157  -50.4430 N.am      16 UNK        -0.5000 
     90 CA         -3.1484  -27.8832  -50.7925 C.3       16 UNK         0.1400 
     91 CB         -2.8947  -29.3187  -51.3001 C.3       16 UNK        -0.1800 
     92 C          -4.0466  -27.0520  -51.7318 C.2       16 UNK         0.5000 
     93 O          -4.7695  -27.6206  -52.5528 O.2       16 UNK        -0.5000 
     94 N          -4.0017  -25.7238  -51.5830 N.am      17 UNK        -0.5000 
     95 CA         -4.8251  -24.7625  -52.3084 C.3       17 UNK         0.1400 
     96 CB         -3.8922  -23.7673  -53.0161 C.3       17 UNK        -0.1800 
     97 C          -5.7481  -24.0115  -51.3362 C.2       17 UNK         0.5000 
     98 O          -5.5095  -23.9990  -50.1265 O.2       17 UNK        -0.5000 
     99 N          -6.7695  -23.3517  -51.8935 N.am      18 UNK        -0.5000 
    100 CA        -7.5427  -22.3248  -51.1978 C.3       18 UNK         0.1400 
    101 CB        -8.8735  -22.1097  -51.9345 C.3       18 UNK        -0.1800 
    102 C         -6.7310  -21.0198  -51.1739 C.2       18 UNK         0.5000 
    103 O         -6.0803  -20.7027  -52.1723 O.2       18 UNK        -0.5000 
    104 N         -6.8057  -20.2665  -50.0702 N.am      19 UNK        -0.5000 
    105 CA        -6.0488  -19.0258  -49.8554 C.3       19 UNK         0.1400 
    106 CB        -6.2619  -18.5535  -48.4097 C.3       19 UNK        -0.1800 
    107 C         -6.3716  -17.8963  -50.8542 C.2       19 UNK         0.5000 
    108 O         -5.5161  -17.0487  -51.1088 O.2       19 UNK        -0.5000 
    109 N         -7.5867  -17.9177  -51.4169 N.am      20 UNK        -0.5000 
    110 CA        -8.0353  -16.9957  -52.4603 C.3       20 UNK         0.1400 
    111 CB        -9.5716  -17.0085  -52.4985 C.3       20 UNK        -0.1800 
    112 C         -7.4631  -17.3246  -53.8551 C.2       20 UNK         0.5000 
    113 O         -7.4504  -16.4434  -54.7157 O.2       20 UNK        -0.5000 
    114 N         -7.0266  -18.5742  -54.0650 N.am      21 UNK        -0.5000 
    115 CA        -6.5123  -19.0750  -55.3392 C.3       21 UNK         0.1400 
    116 CB        -7.1659  -20.4337  -55.6445 C.3       21 UNK        -0.1800 
    117 C         -4.9824  -19.2058  -55.3077 C.2       21 UNK         0.5000 
    118 O         -4.3107  -18.7179  -56.2169 O.2       21 UNK        -0.5000 
    119 N         -4.4645  -19.8641  -54.2625 N.am      22 UNK        -0.5000 
    120 CA        -3.0427  -20.1673  -54.0294 C.3       22 UNK         0.1400 
    121 C         -2.3948  -21.1515  -55.0563 C.2       22 UNK         0.5000 
    122 N         -3.1640  -21.8584  -55.8758 N.am      22 UNK        -0.7600 
    123 O         -1.1779  -21.3027  -55.1002 O.2       22 UNK        -0.5000 
    124 C124       -2.1933  -18.8836  -53.7877 C.3       23 UNK        -0.0398 
    125 S125       -1.2607  -18.9366  -52.2215 S.3       23 UNK        -0.2404 
    126 C126        0.3379  -19.6117  -52.7634 C.3       23 UNK        -0.0205 
    127 H127        0.5761  -11.8499  -45.4579 H         1 UNK         0.0600 
    128 H128       -0.2206  -12.3593  -46.9486 H         1 UNK         0.0600 
    129 H129        0.0383  -10.6424  -46.6289 H         1 UNK         0.0600 
    130 H130        1.2685  -13.2664  -48.3590 H         1 UNK         0.3000 
    131 H131        3.7245  -11.8979  -49.0632 H         1 UNK         0.0600 
    132 H132        2.4347  -12.9233  -50.8325 H         1 UNK         0.0800 
    133 H133        3.9795  -13.7037  -50.7347 H         1 UNK         0.0800 
    134 H134        4.2964  -16.2797  -49.8629 H         1 UNK         0.0800 
    135 H135        3.8730  -16.0229  -51.5432 H         1 UNK         0.0800 
    136 H136        1.5548  -17.2511  -52.2566 H         1 UNK         0.1150 
    137 H137        1.5290  -21.3486  -51.0098 H         1 UNK         0.1150 
    138 H138        4.2375  -18.5665  -49.1842 H         1 UNK         0.1150 
    139 H139        2.9357  -22.1256  -49.2882 H         1 UNK         0.0800 
    140 H140        4.5190  -21.4448  -49.5316 H         1 UNK         0.0800 
    141 H141        1.5009  -19.7437  -47.7295 H         1 UNK         0.0800 
    142 H142        2.0474  -19.6848  -46.0914 H         1 UNK         0.0800 
    143 H143        1.6707  -22.3578  -46.1651 H         1 UNK         0.0600 
    144 H144        0.0902  -20.2519  -45.1727 H         1 UNK         0.3000 
    145 H145       -2.5548  -22.2075  -43.7828 H         1 UNK         0.0600 
    146 H146       -1.8614  -20.9668  -41.7427 H         1 UNK         0.0600 
    147 H147       -0.7764  -22.3101  -42.0683 H         1 UNK         0.0600 
    148 H148       -0.2718  -20.6699  -42.4423 H         1 UNK         0.0600 
    149 H149       -2.0530  -19.4039  -43.7520 H         1 UNK         0.3000 
    150 H150       -3.6050  -18.6788  -46.9174 H         1 UNK         0.0600 
    151 H151       -5.4443  -18.7728  -45.2299 H         1 UNK         0.0600 
    152 H152       -4.8798  -17.1264  -45.4720 H         1 UNK         0.0600 
    153 H153       -4.3999  -18.0217  -44.0321 H         1 UNK         0.0600 
    154 H154       -2.3581  -16.9595  -45.0305 H         1 UNK         0.3000 
    155 H155        0.9963  -17.2936  -46.2933 H         1 UNK         0.0600 
    156 H156       -1.0304  -14.9976  -46.3115 H         1 UNK         0.0600 
    157 H157        0.7221  -14.8196  -46.3131 H         1 UNK         0.0600 
    158 H158       -0.0889  -15.5618  -47.6874 H         1 UNK         0.0600 
    159 H159       -0.0045  -15.7780  -44.1125 H         1 UNK         0.3000 
    160 H160        0.1916  -18.3658  -41.6321 H         1 UNK         0.0600 
    161 H161        1.7421  -15.7563  -41.9842 H         1 UNK         0.0600 
    162 H162        2.4687  -17.3430  -41.7926 H         1 UNK         0.0600 
    163 H163        1.5193  -16.6512  -40.4839 H         1 UNK         0.0600 
    164 H164       -0.6799  -15.5970  -41.6963 H         1 UNK         0.3000 
    165 H165       -4.1280  -16.3255  -42.1750 H         1 UNK         0.0600 
    166 H166       -4.3559  -15.1626  -39.9965 H         1 UNK         0.0600 
    167 H167       -3.7950  -16.8081  -39.7467 H         1 UNK         0.0600 
    168 H168       -2.6597  -15.4695  -39.6215 H         1 UNK         0.0600 
    169 H169       -2.6830  -13.9248  -41.5506 H         1 UNK         0.3000 
    170 H170       -1.8227  -13.0306  -44.8829 H         1 UNK         0.0600 
    171 H171       -4.2041  -12.3083  -44.6524 H         1 UNK         0.0600 
    172 H172       -3.9104  -11.8344  -42.9833 H         1 UNK         0.0600 
    173 H173       -3.0971  -10.9908  -44.3021 H         1 UNK         0.0600 
    174 H174       -1.4782  -11.6339  -42.4426 H         1 UNK         0.3000 
    175 H175        0.8074  -11.3700  -41.7642 H         1 UNK         0.0600 
    176 H176        0.3562  -13.9487  -40.1482 H         1 UNK         0.0600 
    177 H177        0.9472  -12.4207  -39.4980 H         1 UNK         0.0600 
    178 H178       -0.6889  -12.5332  -40.1195 H         1 UNK         0.0600 
    179 H179        2.5569  -13.5742  -41.1392 H         1 UNK         0.3000 
    180 H180        5.1608  -12.2978  -42.7034 H         1 UNK         0.0600 
    181 H181        4.1211  -14.9786  -41.6310 H         1 UNK         0.0600 
    182 H182        4.6688  -13.6066  -40.6715 H         1 UNK         0.0600 
    183 H183        5.8040  -14.4745  -41.6844 H         1 UNK         0.0600 
    184 H184        5.4583  -13.2505  -44.6628 H         1 UNK         0.3000 
    185 H185        5.7123  -14.9540  -46.1609 H         1 UNK         0.0600 
    186 H186        4.9756  -17.3125  -45.7098 H         1 UNK         0.0600 
    187 H187        3.3896  -16.9548  -46.3815 H         1 UNK         0.0600 
    188 H188        4.8173  -16.8982  -47.4097 H         1 UNK         0.0600 
    189 H189        2.8629  -14.3436  -46.7868 H         1 UNK         0.3000 
    190 H190       -1.0456  -20.5883  -47.7132 H         1 UNK         0.3000 
    191 H191       -1.1110  -22.0286  -50.1446 H         1 UNK         0.0600 
    192 H192       -3.4965  -20.7750  -48.6878 H         1 UNK         0.0600 
    193 H193       -3.3444  -21.0897  -50.4093 H         1 UNK         0.0600 
    194 H194       -2.3376  -19.8639  -49.6461 H         1 UNK         0.0600 
    195 H195       -2.8170  -22.6433  -47.0372 H         1 UNK         0.3000 
    196 H196       -4.2109  -24.9698  -47.8332 H         1 UNK         0.0600 
    197 H197       -4.4944  -25.3513  -45.4020 H         1 UNK         0.0600 
    198 H198       -4.7422  -23.6538  -45.7857 H         1 UNK         0.0600 
    199 H199       -3.2352  -24.1805  -45.0387 H         1 UNK         0.0600 
    200 H200       -0.9414  -24.6302  -46.3700 H         1 UNK         0.3000 
    201 H201       -0.3098  -27.3997  -46.2534 H         1 UNK         0.0600 
    202 H202        0.9425  -25.6627  -45.0030 H         1 UNK         0.0600 
    203 H203        1.5335  -24.9641  -46.5086 H         1 UNK         0.0600 
    204 H204        2.0355  -26.5798  -46.0285 H         1 UNK         0.0600 
    205 H205       -0.0546  -25.0407  -48.8922 H         1 UNK         0.3000 
    206 H206        1.2231  -26.8546  -50.7728 H         1 UNK         0.0600 
    207 H207        1.5236  -24.3734  -50.8665 H         1 UNK         0.0600 
    208 H208        0.8536  -25.0004  -52.3641 H         1 UNK         0.0600 
    209 H209       -0.1901  -24.1727  -51.2193 H         1 UNK         0.0600 
    210 H210       -1.8226  -26.9334  -49.4730 H         1 UNK         0.3000 
    211 H211       -3.7062  -27.9692  -49.8594 H         1 UNK         0.0600 
    212 H212       -2.4090  -29.3255  -52.2761 H         1 UNK         0.0600 
    213 H213       -3.8310  -29.8690  -51.3991 H         1 UNK         0.0600 
    214 H214       -2.2648  -29.8761  -50.6068 H         1 UNK         0.0600 
    215 H215       -3.4134  -25.3198  -50.8566 H         1 UNK         0.3000 
    216 H216       -5.4454  -25.2607  -53.0561 H         1 UNK         0.0600 
    217 H217       -4.4638  -23.0271  -53.5763 H         1 UNK         0.0600 
    218 H218       -3.2357  -24.2752  -53.7229 H         1 UNK         0.0600 
    219 H219       -3.2639  -23.2281  -52.3057 H         1 UNK         0.0600 
    220 H220       -6.8821  -23.3856  -52.8959 H         1 UNK         0.3000 
    221 H221       -7.7504  -22.6478  -50.1754 H         1 UNK         0.0600 
    222 H222       -8.7198  -21.7680  -52.9592 H         1 UNK         0.0600 
    223 H223       -9.4550  -23.0310  -51.9729 H         1 UNK         0.0600 
    224 H224       -9.4845  -21.3618  -51.4275 H         1 UNK         0.0600 
    225 H225       -7.3747  -20.5829  -49.2981 H         1 UNK         0.3000 
    226 H226       -4.9912  -19.2577  -49.9832 H         1 UNK         0.0600 
    227 H227       -5.9510  -19.3181  -47.6976 H         1 UNK         0.0600 
    228 H228       -5.6771  -17.6567  -48.2001 H         1 UNK         0.0600 
    229 H229       -7.3084  -18.3168  -48.2139 H         1 UNK         0.0600 
    230 H230       -8.2322  -18.6419  -51.1390 H         1 UNK         0.3000 
    231 H231       -7.7097  -15.9863  -52.1998 H         1 UNK         0.0600 
    232 H232       -9.9503  -16.3086  -53.2446 H         1 UNK         0.0600 
    233 H233       -9.9929  -16.7147  -51.5368 H         1 UNK         0.0600 
    234 H234       -9.9600  -17.9967  -52.7486 H         1 UNK         0.0600 
    235 H235       -6.9986  -19.2184  -53.2844 H         1 UNK         0.3000 
    236 H236       -6.7720  -18.3929  -56.1516 H         1 UNK         0.0600 
    237 H237       -8.2484  -20.3366  -55.7280 H         1 UNK         0.0600 
    238 H238       -6.8030  -20.8383  -56.5902 H         1 UNK         0.0600 
    239 H239       -6.9578  -21.1713  -54.8685 H         1 UNK         0.0600 
    240 H240       -5.0971  -20.2152  -53.5450 H         1 UNK         0.3000 
    241 H241       -3.0610  -20.7404  -53.1021 H         1 UNK         0.0600 
    242 H242       -4.1641  -21.7502  -55.8653 H         1 UNK         0.3800 
    243 H243       -2.7335  -22.4937  -56.5287 H         1 UNK         0.3800 
    244 H244       -1.5250  -18.6666  -54.6225 H         1 UNK         0.0800 
    245 H245       -2.8392  -18.0075  -53.7154 H         1 UNK         0.0800 
    246 H246        0.2371  -20.6848  -52.9303 H         1 UNK         0.0800 
    247 H247        0.6251  -19.1723  -53.7197 H         1 UNK         0.0800 
@<TRIPOS>BOND
     1    1    2 1    
     2    1  127 1    
     3    1  128 1    
     4    1  129 1    
     5    2    3 2    
     6    2    4 am   BACKBONE|DICT|INTERRES
     7    4    5 1    
     8    4  130 1    
     9    5    6 1    
    10    5   65 1    
    11    5  131 1    
    12    6    7 1    
    13    6  132 1    
    14    6  133 1    
    15    7    8 1    
    16    8    9 1    
    17    8  134 1    
    18    8  135 1    
    19    9   10 ar   
    20    9   14 ar   
    21   10   11 ar   
    22   10  136 1    
    23   11   12 ar   
    24   11  126 1    
    25   12   13 ar   
    26   12  137 1    
    27   13   14 ar   
    28   13   15 1    
    29   14  138 1    
    30   15   16 1    
    31   15  139 1    
    32   15  140 1    
    33   16   17 1    
    34   17   18 1    
    35   17  141 1    
    36   17  142 1    
    37   18   19 1    
    38   18   67 1    
    39   18  143 1    
    40   19   20 am   BACKBONE|DICT|INTERRES
    41   19  144 1    
    42   20   21 2    
    43   20   22 1    
    44   22   23 1    
    45   22   24 1    
    46   22  145 1    
    47   23  146 1    
    48   23  147 1    
    49   23  148 1    
    50   24   25 am   BACKBONE|DICT|INTERRES
    51   24  149 1    
    52   25   26 2    
    53   25   27 1    
    54   27   28 1    
    55   27   29 1    
    56   27  150 1    
    57   28  151 1    
    58   28  152 1    
    59   28  153 1    
    60   29   30 am   BACKBONE|DICT|INTERRES
    61   29  154 1    
    62   30   31 2    
    63   30   32 1    
    64   32   33 1    
    65   32   34 1    
    66   32  155 1    
    67   33  156 1    
    68   33  157 1    
    69   33  158 1    
    70   34   35 am   BACKBONE|DICT|INTERRES
    71   34  159 1    
    72   35   36 2    
    73   35   37 1    
    74   37   38 1    
    75   37   39 1    
    76   37  160 1    
    77   38  161 1    
    78   38  162 1    
    79   38  163 1    
    80   39   40 am   BACKBONE|DICT|INTERRES
    81   39  164 1    
    82   40   41 2    
    83   40   42 1    
    84   42   43 1    
    85   42   44 1    
    86   42  165 1    
    87   43  166 1    
    88   43  167 1    
    89   43  168 1    
    90   44   45 am   BACKBONE|DICT|INTERRES
    91   44  169 1    
    92   45   46 2    
    93   45   47 1    
    94   47   48 1    
    95   47   49 1    
    96   47  170 1    
    97   48  171 1    
    98   48  172 1    
    99   48  173 1    
   100   49   50 am   BACKBONE|DICT|INTERRES
   101   49  174 1    
   102   50   51 2    
   103   50   52 1    
   104   52   53 1    
   105   52   54 1    
   106   52  175 1    
   107   53  176 1    
   108   53  177 1    
   109   53  178 1    
   110   54   55 am   BACKBONE|DICT|INTERRES
   111   54  179 1    
   112   55   56 2    
   113   55   57 1    
   114   57   58 1    
   115   57   59 1    
   116   57  180 1    
   117   58  181 1    
   118   58  182 1    
   119   58  183 1    
   120   59   60 am   BACKBONE|DICT|INTERRES
   121   59  184 1    
   122   60   61 2    
   123   60   62 1    
   124   62   63 1    
   125   62   64 1    
   126   62  185 1    
   127   63  186 1    
   128   63  187 1    
   129   63  188 1    
   130   64   65 am   BACKBONE|DICT|INTERRES
   131   64  189 1    
   132   65   66 2    
   133   67   68 2    
   134   67   69 am   BACKBONE|DICT|INTERRES
   135   69   70 1    
   136   69  190 1    
   137   70   71 1    
   138   70   72 1    
   139   70  191 1    
   140   71  192 1    
   141   71  193 1    
   142   71  194 1    
   143   72   73 2    
   144   72   74 am   BACKBONE|DICT|INTERRES
   145   74   75 1    
   146   74  195 1    
   147   75   76 1    
   148   75   77 1    
   149   75  196 1    
   150   76  197 1    
   151   76  198 1    
   152   76  199 1    
   153   77   78 2    
   154   77   79 am   BACKBONE|DICT|INTERRES
   155   79   80 1    
   156   79  200 1    
   157   80   81 1    
   158   80   82 1    
   159   80  201 1    
   160   81  202 1    
   161   81  203 1    
   162   81  204 1    
   163   82   83 2    
   164   82   84 am   BACKBONE|DICT|INTERRES
   165   84   85 1    
   166   84  205 1    
   167   85   86 1    
   168   85   87 1    
   169   85  206 1    
   170   86  207 1    
   171   86  208 1    
   172   86  209 1    
   173   87   88 2    
   174   87   89 am   BACKBONE|DICT|INTERRES
   175   89   90 1    
   176   89  210 1    
   177   90   91 1    
   178   90   92 1    
   179   90  211 1    
   180   91  212 1    
   181   91  213 1    
   182   91  214 1    
   183   92   93 2    
   184   92   94 am   BACKBONE|DICT|INTERRES
   185   94   95 1    
   186   94  215 1    
   187   95   96 1    
   188   95   97 1    
   189   95  216 1    
   190   96  217 1    
   191   96  218 1    
   192   96  219 1    
   193   97   98 2    
   194   97   99 am   BACKBONE|DICT|INTERRES
   195   99  100 1    
   196   99  220 1    
   197  100  101 1    
   198  100  102 1    
   199  100  221 1    
   200  101  222 1    
   201  101  223 1    
   202  101  224 1    
   203  102  103 2    
   204  102  104 am   BACKBONE|DICT|INTERRES
   205  104  105 1    
   206  104  225 1    
   207  105  106 1    
   208  105  107 1    
   209  105  226 1    
   210  106  227 1    
   211  106  228 1    
   212  106  229 1    
   213  107  108 2    
   214  107  109 am   BACKBONE|DICT|INTERRES
   215  109  110 1    
   216  109  230 1    
   217  110  111 1    
   218  110  112 1    
   219  110  231 1    
   220  111  232 1    
   221  111  233 1    
   222  111  234 1    
   223  112  113 2    
   224  112  114 am   BACKBONE|DICT|INTERRES
   225  114  115 1    
   226  114  235 1    
   227  115  116 1    
   228  115  117 1    
   229  115  236 1    
   230  116  237 1    
   231  116  238 1    
   232  116  239 1    
   233  117  118 2    
   234  117  119 am   BACKBONE|DICT|INTERRES
   235  119  120 1    
   236  119  240 1    
   237  120  121 1    
   238  120  124 1    
   239  120  241 1    
   240  121  122 am   BACKBONE|DICT|INTERRES
   241  121  123 2    
   242  122  242 1    
   243  122  243 1    
   244  124  125 1    
   245  124  244 1    
   246  124  245 1    
   247  125  126 1    
   248  126  246 1    
   249  126  247 1    
@<TRIPOS>SUBSTRUCTURE
     1 UNK         1 GROUP             0       ****    0 ROOT    
