@<TRIPOS>MOLECULE
3R540
247   249    1
SMALL
USER_CHARGES


@<TRIPOS>ATOM
      1 CA         -2.9175  -10.5336  -49.4956 C.3       0 UNK        -0.1800 
      2 C          -2.4469  -11.6913  -48.6284 C.2       0 UNK         0.5000 
      3 O          -1.2897  -11.7098  -48.2107 O.2       0 UNK        -0.5000 
      4 N          -3.3419  -12.6452  -48.3383 N.am      1 UNK        -0.5000 
      5 CA         -3.0838  -13.8674  -47.5618 C.3       1 UNK         0.1400 
      6 C6         -4.3487  -14.7554  -47.4619 C.3       23 UNK        -0.0398 
      7 S7         -4.8634  -15.4302  -49.0794 S.3       23 UNK        -0.2404 
      8 C8         -4.5769  -17.2171  -48.8562 C.3       23 UNK        -0.0205 
      9 C9         -3.1321  -17.6144  -49.1278 C.ar      23 UNK        -0.0193 
     10 C10        -2.7974  -18.3021  -50.2981 C.ar      23 UNK        -0.1150 
     11 C11        -1.4767  -18.6924  -50.5407 C.ar      23 UNK        -0.0193 
     12 C12        -0.4846  -18.3843  -49.6056 C.ar      23 UNK        -0.1150 
     13 C13        -0.8054  -17.6930  -48.4350 C.ar      23 UNK        -0.0193 
     14 C14        -2.1308  -17.3215  -48.1991 C.ar      23 UNK        -0.1150 
     15 C15         0.2836  -17.3113  -47.4452 C.3       23 UNK        -0.0205 
     16 S16         0.6380  -18.6271  -46.2389 S.3       23 UNK        -0.2404 
     17 C17        -0.8704  -18.6097  -45.2111 C.3       23 UNK        -0.0398 
     18 CA         -1.6577  -19.9288  -45.3682 C.3       11 UNK         0.1400 
     19 N          -0.8929  -21.0534  -44.8243 N.am      11 UNK        -0.5000 
     20 C          -1.2227  -22.3494  -44.8584 C.2       10 UNK         0.5000 
     21 O          -2.2293  -22.7829  -45.4191 O.2       10 UNK        -0.5000 
     22 CA         -0.2980  -23.3060  -44.0808 C.3       10 UNK         0.1400 
     23 CB          0.7267  -23.9466  -45.0281 C.3       10 UNK        -0.1800 
     24 N           0.4154  -22.6570  -42.9728 N.am      10 UNK        -0.5000 
     25 C          -0.1593  -22.0708  -41.9107 C.2       9 UNK         0.5000 
     26 O          -1.3800  -21.9957  -41.7669 O.2       9 UNK        -0.5000 
     27 CA          0.7643  -21.3963  -40.8743 C.3       9 UNK         0.1400 
     28 CB          0.3336  -21.7000  -39.4248 C.3       9 UNK        -0.1800 
     29 N           2.1982  -21.6474  -41.0702 N.am      9 UNK        -0.5000 
     30 C           2.8663  -22.8026  -40.9134 C.2       8 UNK         0.5000 
     31 O           2.3301  -23.8674  -40.6074 O.2       8 UNK        -0.5000 
     32 CA          4.3895  -22.7796  -41.1670 C.3       8 UNK         0.1400 
     33 CB          4.7150  -23.4582  -42.5075 C.3       8 UNK        -0.1800 
     34 N           4.9629  -21.4324  -41.1769 N.am      8 UNK        -0.5000 
     35 C           5.1019  -20.6392  -40.1050 C.2       7 UNK         0.5000 
     36 O           4.8499  -20.9971  -38.9541 O.2       7 UNK        -0.5000 
     37 CA          5.5731  -19.1927  -40.3658 C.3       7 UNK         0.1400 
     38 CB          7.0655  -19.0461  -40.0312 C.3       7 UNK        -0.1800 
     39 N           5.3448  -18.7222  -41.7383 N.am      7 UNK        -0.5000 
     40 C           4.1454  -18.5664  -42.3149 C.2       6 UNK         0.5000 
     41 O           3.0775  -18.8480  -41.7645 O.2       6 UNK        -0.5000 
     42 CA          4.1530  -18.0968  -43.7793 C.3       6 UNK         0.1400 
     43 CB          4.2141  -19.3106  -44.7205 C.3       6 UNK        -0.1800 
     44 N           2.9611  -17.3190  -44.1036 N.am      6 UNK        -0.5000 
     45 C           2.7288  -16.0620  -43.7085 C.2       5 UNK         0.5000 
     46 O           3.5214  -15.3865  -43.0481 O.2       5 UNK        -0.5000 
     47 CA          1.3773  -15.4605  -44.1434 C.3       5 UNK         0.1400 
     48 CB          0.6277  -14.8648  -42.9413 C.3       5 UNK        -0.1800 
     49 N           1.4669  -14.4463  -45.1976 N.am      5 UNK        -0.5000 
     50 C           2.1921  -14.4803  -46.3269 C.2       4 UNK         0.5000 
     51 O           2.9831  -15.3768  -46.6192 O.2       4 UNK        -0.5000 
     52 CA          1.9648  -13.3431  -47.3442 C.3       4 UNK         0.1400 
     53 CB          1.2598  -13.8844  -48.5994 C.3       4 UNK        -0.1800 
     54 N           1.1753  -12.2278  -46.8223 N.am      4 UNK        -0.5000 
     55 C           1.6215  -11.2872  -45.9800 C.2       3 UNK         0.5000 
     56 O           2.7714  -11.2468  -45.5423 O.2       3 UNK        -0.5000 
     57 CA          0.5963  -10.2296  -45.5384 C.3       3 UNK         0.1400 
     58 CB          0.4947   -9.1011  -46.5765 C.3       3 UNK        -0.1800 
     59 N          -0.7264  -10.8225  -45.3343 N.am      3 UNK        -0.5000 
     60 C          -1.1078  -11.4474  -44.2121 C.2       2 UNK         0.5000 
     61 O          -0.3946  -11.5506  -43.2145 O.2       2 UNK        -0.5000 
     62 CA         -2.5192  -12.0651  -44.1960 C.3       2 UNK         0.1400 
     63 CB         -3.5357  -11.0641  -43.6264 C.3       2 UNK        -0.1800 
     64 N          -2.9707  -12.5029  -45.5175 N.am      2 UNK        -0.5000 
     65 C          -2.5205  -13.5957  -46.1500 C.2       1 UNK         0.5000 
     66 O          -1.6863  -14.3661  -45.6754 O.2       1 UNK        -0.5000 
     67 C          -3.0761  -19.7984  -44.7691 C.2       11 UNK         0.5000 
     68 O          -3.9500  -19.2463  -45.4371 O.2       11 UNK        -0.5000 
     69 N          -3.3143  -20.3553  -43.5697 N.am      12 UNK        -0.5000 
     70 CA         -4.6455  -20.4685  -42.9618 C.3       12 UNK         0.1400 
     71 CB         -4.5006  -20.9233  -41.5022 C.3       12 UNK        -0.1800 
     72 C          -5.5851  -21.4214  -43.7327 C.2       12 UNK         0.5000 
     73 O          -6.8031  -21.2564  -43.6646 O.2       12 UNK        -0.5000 
     74 N          -5.0019  -22.3722  -44.4748 N.am      13 UNK        -0.5000 
     75 CA         -5.6770  -23.2747  -45.4080 C.3       13 UNK         0.1400 
     76 CB         -5.2402  -24.7164  -45.0923 C.3       13 UNK        -0.1800 
     77 C          -5.3550  -22.8913  -46.8688 C.2       13 UNK         0.5000 
     78 O          -5.4609  -23.7370  -47.7590 O.2       13 UNK        -0.5000 
     79 N          -4.9201  -21.6381  -47.0853 N.am      14 UNK        -0.5000 
     80 CA         -4.4992  -21.0344  -48.3553 C.3       14 UNK         0.1400 
     81 CB         -5.7190  -20.8099  -49.2702 C.3       14 UNK        -0.1800 
     82 C          -3.3440  -21.7806  -49.0583 C.2       14 UNK         0.5000 
     83 O          -3.2212  -21.7100  -50.2807 O.2       14 UNK        -0.5000 
     84 N          -2.5275  -22.4953  -48.2684 N.am      15 UNK        -0.5000 
     85 CA         -1.4287  -23.3663  -48.6880 C.3       15 UNK         0.1400 
     86 CB         -0.2395  -22.5297  -49.1983 C.3       15 UNK        -0.1800 
     87 C          -1.8737  -24.5052  -49.6346 C.2       15 UNK         0.5000 
     88 O          -1.1092  -24.9251  -50.5060 O.2       15 UNK        -0.5000 
     89 N          -3.1032  -25.0010  -49.4172 N.am      16 UNK        -0.5000 
     90 CA         -3.7522  -26.1150  -50.1107 C.3       16 UNK         0.1400 
     91 CB         -3.0836  -27.4516  -49.7173 C.3       16 UNK        -0.1800 
     92 C          -3.8440  -25.8757  -51.6317 C.2       16 UNK         0.5000 
     93 O          -4.5434  -24.9548  -52.0533 O.2       16 UNK        -0.5000 
     94 N          -3.1390  -26.6897  -52.4299 N.am      17 UNK        -0.5000 
     95 CA         -3.1175  -26.6384  -53.8949 C.3       17 UNK         0.1400 
     96 CB         -2.2987  -27.8263  -54.4220 C.3       17 UNK        -0.1800 
     97 C          -2.5832  -25.3154  -54.4796 C.2       17 UNK         0.5000 
     98 O          -2.9363  -24.9692  -55.6080 O.2       17 UNK        -0.5000 
     99 N          -1.7728  -24.5813  -53.7029 N.am      18 UNK        -0.5000 
    100 CA        -1.2427  -23.2676  -54.0707 C.3       18 UNK         0.1400 
    101 CB        -0.1291  -22.8770  -53.0927 C.3       18 UNK        -0.1800 
    102 C         -2.3149  -22.1627  -54.1410 C.2       18 UNK         0.5000 
    103 O         -2.0608  -21.1297  -54.7595 O.2       18 UNK        -0.5000 
    104 N         -3.5030  -22.3926  -53.5602 N.am      19 UNK        -0.5000 
    105 CA        -4.6469  -21.4746  -53.5842 C.3       19 UNK         0.1400 
    106 CB        -5.7898  -22.0747  -52.7538 C.3       19 UNK        -0.1800 
    107 C         -5.1526  -21.1382  -55.0022 C.2       19 UNK         0.5000 
    108 O         -5.7591  -20.0849  -55.1922 O.2       19 UNK        -0.5000 
    109 N         -4.8869  -22.0275  -55.9696 N.am      20 UNK        -0.5000 
    110 CA        -5.1682  -21.8206  -57.3892 C.3       20 UNK         0.1400 
    111 CB        -5.1709  -23.1859  -58.0938 C.3       20 UNK        -0.1800 
    112 C         -4.1666  -20.8657  -58.0715 C.2       20 UNK         0.5000 
    113 O         -4.5125  -20.2668  -59.0908 O.2       20 UNK        -0.5000 
    114 N         -2.9499  -20.7509  -57.5207 N.am      21 UNK        -0.5000 
    115 CA        -1.8843  -19.8872  -58.0281 C.3       21 UNK         0.1400 
    116 CB        -0.5274  -20.5827  -57.8303 C.3       21 UNK        -0.1800 
    117 C         -1.8989  -18.5144  -57.3363 C.2       21 UNK         0.5000 
    118 O         -1.7196  -17.4976  -58.0086 O.2       21 UNK        -0.5000 
    119 N         -2.1085  -18.5082  -56.0137 N.am      22 UNK        -0.5000 
    120 CA        -2.2247  -17.2999  -55.1828 C.3       22 UNK         0.1400 
    121 C         -3.4728  -16.4364  -55.5240 C.2       22 UNK         0.5000 
    122 N         -3.3922  -15.1256  -55.3369 N.am      22 UNK        -0.7600 
    123 O         -4.5219  -16.9383  -55.9195 O.2       22 UNK        -0.5000 
    124 C124       -2.1998  -17.6434  -53.6726 C.3       23 UNK        -0.0398 
    125 S125       -0.6046  -18.3627  -53.1548 S.3       23 UNK        -0.2404 
    126 C126       -1.1217  -19.4629  -51.8024 C.3       23 UNK        -0.0205 
    127 H127       -3.9665  -10.6355  -49.7745 H         1 UNK         0.0600 
    128 H128       -2.3246  -10.4866  -50.4089 H         1 UNK         0.0600 
    129 H129       -2.7962   -9.5919  -48.9604 H         1 UNK         0.0600 
    130 H130       -4.2729  -12.5725  -48.7237 H         1 UNK         0.3000 
    131 H131       -2.3133  -14.4231  -48.0998 H         1 UNK         0.0600 
    132 H132       -5.1823  -14.1794  -47.0563 H         1 UNK         0.0800 
    133 H133       -4.2009  -15.5781  -46.7608 H         1 UNK         0.0800 
    134 H134       -5.2430  -17.7517  -49.5347 H         1 UNK         0.0800 
    135 H135       -4.8667  -17.5281  -47.8512 H         1 UNK         0.0800 
    136 H136       -3.5665  -18.5469  -51.0165 H         1 UNK         0.1150 
    137 H137        0.5390  -18.6775  -49.7921 H         1 UNK         0.1150 
    138 H138       -2.3798  -16.7921  -47.2933 H         1 UNK         0.1150 
    139 H139        1.2017  -17.0803  -47.9871 H         1 UNK         0.0800 
    140 H140        0.0047  -16.3981  -46.9184 H         1 UNK         0.0800 
    141 H141       -1.4813  -17.7451  -45.4703 H         1 UNK         0.0800 
    142 H142       -0.5804  -18.4600  -44.1696 H         1 UNK         0.0800 
    143 H143       -1.7953  -20.1195  -46.4351 H         1 UNK         0.0600 
    144 H144       -0.0341  -20.8088  -44.3551 H         1 UNK         0.3000 
    145 H145       -0.9230  -24.0957  -43.6590 H         1 UNK         0.0600 
    146 H146        1.3621  -24.6578  -44.4997 H         1 UNK         0.0600 
    147 H147        0.2293  -24.4936  -45.8296 H         1 UNK         0.0600 
    148 H148        1.3719  -23.1983  -45.4906 H         1 UNK         0.0600 
    149 H149        1.4233  -22.6749  -43.0103 H         1 UNK         0.3000 
    150 H150        0.6370  -20.3238  -41.0282 H         1 UNK         0.0600 
    151 H151       -0.6823  -21.3501  -39.2373 H         1 UNK         0.0600 
    152 H152        0.9846  -21.2002  -38.7074 H         1 UNK         0.0600 
    153 H153        0.3523  -22.7684  -39.2092 H         1 UNK         0.0600 
    154 H154        2.7311  -20.8224  -41.3263 H         1 UNK         0.3000 
    155 H155        4.8642  -23.3504  -40.3663 H         1 UNK         0.0600 
    156 H156        4.2766  -22.9203  -43.3492 H         1 UNK         0.0600 
    157 H157        4.3308  -24.4788  -42.5343 H         1 UNK         0.0600 
    158 H158        5.7916  -23.5152  -42.6694 H         1 UNK         0.0600 
    159 H159        5.2165  -21.0566  -42.0781 H         1 UNK         0.3000 
    160 H160        5.0067  -18.5438  -39.6946 H         1 UNK         0.0600 
    161 H161        7.6869  -19.6554  -40.6888 H         1 UNK         0.0600 
    162 H162        7.2694  -19.3576  -39.0058 H         1 UNK         0.0600 
    163 H163        7.3915  -18.0100  -40.1242 H         1 UNK         0.0600 
    164 H164        6.1725  -18.4887  -42.2684 H         1 UNK         0.3000 
    165 H165        5.0323  -17.4720  -43.9504 H         1 UNK         0.0600 
    166 H166        4.2320  -18.9978  -45.7649 H         1 UNK         0.0600 
    167 H167        5.1141  -19.9011  -44.5445 H         1 UNK         0.0600 
    168 H168        3.3557  -19.9703  -44.5851 H         1 UNK         0.0600 
    169 H169        2.2641  -17.7904  -44.6633 H         1 UNK         0.3000 
    170 H170        0.7555  -16.2630  -44.5368 H         1 UNK         0.0600 
    171 H171        1.1359  -13.9835  -42.5476 H         1 UNK         0.0600 
    172 H172       -0.3863  -14.5720  -43.2134 H         1 UNK         0.0600 
    173 H173        0.5483  -15.5897  -42.1301 H         1 UNK         0.0600 
    174 H174        0.8350  -13.6660  -45.0959 H         1 UNK         0.3000 
    175 H175        2.9466  -12.9662  -47.6378 H         1 UNK         0.0600 
    176 H176        0.2652  -14.2668  -48.3669 H         1 UNK         0.0600 
    177 H177        1.1485  -13.1067  -49.3551 H         1 UNK         0.0600 
    178 H178        1.8278  -14.6977  -49.0528 H         1 UNK         0.0600 
    179 H179        0.2284  -12.1417  -47.1837 H         1 UNK         0.3000 
    180 H180        0.9445   -9.7927  -44.5999 H         1 UNK         0.0600 
    181 H181       -0.1992   -8.3268  -46.2490 H         1 UNK         0.0600 
    182 H182        0.1535   -9.4688  -47.5448 H         1 UNK         0.0600 
    183 H183        1.4640   -8.6252  -46.7298 H         1 UNK         0.0600 
    184 H184       -1.3441  -10.8345  -46.1345 H         1 UNK         0.3000 
    185 H185       -2.4917  -12.9343  -43.5352 H         1 UNK         0.0600 
    186 H186       -4.5257  -11.5124  -43.5414 H         1 UNK         0.0600 
    187 H187       -3.2426  -10.7353  -42.6283 H         1 UNK         0.0600 
    188 H188       -3.6211  -10.1753  -44.2528 H         1 UNK         0.0600 
    189 H189       -3.6518  -11.9212  -45.9837 H         1 UNK         0.3000 
    190 H190       -2.5584  -20.8160  -43.0744 H         1 UNK         0.3000 
    191 H191       -5.1038  -19.4772  -42.9663 H         1 UNK         0.0600 
    192 H192       -5.4692  -20.9412  -41.0013 H         1 UNK         0.0600 
    193 H193       -3.8550  -20.2491  -40.9390 H         1 UNK         0.0600 
    194 H194       -4.0787  -21.9268  -41.4342 H         1 UNK         0.0600 
    195 H195       -3.9887  -22.4216  -44.4942 H         1 UNK         0.3000 
    196 H196       -6.7602  -23.2102  -45.2900 H         1 UNK         0.0600 
    197 H197       -4.1711  -24.8570  -45.2568 H         1 UNK         0.0600 
    198 H198       -5.4560  -24.9743  -44.0554 H         1 UNK         0.0600 
    199 H199       -5.7680  -25.4354  -45.7199 H         1 UNK         0.0600 
    200 H200       -4.8573  -21.0202  -46.2855 H         1 UNK         0.3000 
    201 H201       -4.0961  -20.0558  -48.0984 H         1 UNK         0.0600 
    202 H202       -6.1827  -21.7529  -49.5599 H         1 UNK         0.0600 
    203 H203       -5.4379  -20.2849  -50.1837 H         1 UNK         0.0600 
    204 H204       -6.4762  -20.2048  -48.7719 H         1 UNK         0.0600 
    205 H205       -2.7099  -22.5021  -47.2693 H         1 UNK         0.3000 
    206 H206       -1.0915  -23.8748  -47.7849 H         1 UNK         0.0600 
    207 H207        0.1463  -21.8854  -48.4079 H         1 UNK         0.0600 
    208 H208        0.5844  -23.1617  -49.5314 H         1 UNK         0.0600 
    209 H209       -0.5260  -21.8876  -50.0279 H         1 UNK         0.0600 
    210 H210       -3.6865  -24.5297  -48.7349 H         1 UNK         0.3000 
    211 H211       -4.7805  -26.1424  -49.7474 H         1 UNK         0.0600 
    212 H212       -3.5925  -28.2984  -50.1796 H         1 UNK         0.0600 
    213 H213       -3.1302  -27.6036  -48.6388 H         1 UNK         0.0600 
    214 H214       -2.0332  -27.4921  -50.0076 H         1 UNK         0.0600 
    215 H215       -2.5678  -27.4011  -51.9975 H         1 UNK         0.3000 
    216 H216       -4.1463  -26.7510  -54.2427 H         1 UNK         0.0600 
    217 H217       -1.2637  -27.7838  -54.0802 H         1 UNK         0.0600 
    218 H218       -2.2840  -27.8383  -55.5128 H         1 UNK         0.0600 
    219 H219       -2.7231  -28.7756  -54.0945 H         1 UNK         0.0600 
    220 H220       -1.5526  -24.9160  -52.7723 H         1 UNK         0.3000 
    221 H221       -0.8017  -23.3500  -55.0663 H         1 UNK         0.0600 
    222 H222        0.6633  -23.6251  -53.0711 H         1 UNK         0.0600 
    223 H223       -0.5194  -22.7705  -52.0830 H         1 UNK         0.0600 
    224 H224        0.3251  -21.9259  -53.3741 H         1 UNK         0.0600 
    225 H225       -3.6418  -23.2610  -53.0557 H         1 UNK         0.3000 
    226 H226       -4.3291  -20.5432  -53.1117 H         1 UNK         0.0600 
    227 H227       -6.1894  -22.9783  -53.2157 H         1 UNK         0.0600 
    228 H228       -5.4522  -22.3387  -51.7526 H         1 UNK         0.0600 
    229 H229       -6.6117  -21.3659  -52.6468 H         1 UNK         0.0600 
    230 H230       -4.3923  -22.8745  -55.7231 H         1 UNK         0.3000 
    231 H231       -6.1639  -21.3834  -57.4888 H         1 UNK         0.0600 
    232 H232       -4.2019  -23.6808  -58.0148 H         1 UNK         0.0600 
    233 H233       -5.4003  -23.0786  -59.1548 H         1 UNK         0.0600 
    234 H234       -5.9219  -23.8496  -57.6650 H         1 UNK         0.0600 
    235 H235       -2.7649  -21.2138  -56.6388 H         1 UNK         0.3000 
    236 H236       -2.0193  -19.7249  -59.0996 H         1 UNK         0.0600 
    237 H237       -0.4982  -21.5422  -58.3468 H         1 UNK         0.0600 
    238 H238        0.2833  -19.9729  -58.2306 H         1 UNK         0.0600 
    239 H239       -0.3107  -20.7631  -56.7769 H         1 UNK         0.0600 
    240 H240       -2.1987  -19.3963  -55.5289 H         1 UNK         0.3000 
    241 H241       -1.3471  -16.6873  -55.3995 H         1 UNK         0.0600 
    242 H242       -4.1965  -14.5531  -55.5419 H         1 UNK         0.3800 
    243 H243       -2.5450  -14.6867  -55.0105 H         1 UNK         0.3800 
    244 H244       -3.0107  -18.3337  -53.4356 H         1 UNK         0.0800 
    245 H245       -2.3660  -16.7518  -53.0651 H         1 UNK         0.0800 
    246 H246       -1.9636  -20.0788  -52.1183 H         1 UNK         0.0800 
    247 H247       -0.3047  -20.1528  -51.5915 H         1 UNK         0.0800 
@<TRIPOS>BOND
     1    1    2 1    
     2    1  127 1    
     3    1  128 1    
     4    1  129 1    
     5    2    3 2    
     6    2    4 am   BACKBONE|DICT|INTERRES
     7    4    5 1    
     8    4  130 1    
     9    5    6 1    
    10    5   65 1    
    11    5  131 1    
    12    6    7 1    
    13    6  132 1    
    14    6  133 1    
    15    7    8 1    
    16    8    9 1    
    17    8  134 1    
    18    8  135 1    
    19    9   10 ar   
    20    9   14 ar   
    21   10   11 ar   
    22   10  136 1    
    23   11   12 ar   
    24   11  126 1    
    25   12   13 ar   
    26   12  137 1    
    27   13   14 ar   
    28   13   15 1    
    29   14  138 1    
    30   15   16 1    
    31   15  139 1    
    32   15  140 1    
    33   16   17 1    
    34   17   18 1    
    35   17  141 1    
    36   17  142 1    
    37   18   19 1    
    38   18   67 1    
    39   18  143 1    
    40   19   20 am   BACKBONE|DICT|INTERRES
    41   19  144 1    
    42   20   21 2    
    43   20   22 1    
    44   22   23 1    
    45   22   24 1    
    46   22  145 1    
    47   23  146 1    
    48   23  147 1    
    49   23  148 1    
    50   24   25 am   BACKBONE|DICT|INTERRES
    51   24  149 1    
    52   25   26 2    
    53   25   27 1    
    54   27   28 1    
    55   27   29 1    
    56   27  150 1    
    57   28  151 1    
    58   28  152 1    
    59   28  153 1    
    60   29   30 am   BACKBONE|DICT|INTERRES
    61   29  154 1    
    62   30   31 2    
    63   30   32 1    
    64   32   33 1    
    65   32   34 1    
    66   32  155 1    
    67   33  156 1    
    68   33  157 1    
    69   33  158 1    
    70   34   35 am   BACKBONE|DICT|INTERRES
    71   34  159 1    
    72   35   36 2    
    73   35   37 1    
    74   37   38 1    
    75   37   39 1    
    76   37  160 1    
    77   38  161 1    
    78   38  162 1    
    79   38  163 1    
    80   39   40 am   BACKBONE|DICT|INTERRES
    81   39  164 1    
    82   40   41 2    
    83   40   42 1    
    84   42   43 1    
    85   42   44 1    
    86   42  165 1    
    87   43  166 1    
    88   43  167 1    
    89   43  168 1    
    90   44   45 am   BACKBONE|DICT|INTERRES
    91   44  169 1    
    92   45   46 2    
    93   45   47 1    
    94   47   48 1    
    95   47   49 1    
    96   47  170 1    
    97   48  171 1    
    98   48  172 1    
    99   48  173 1    
   100   49   50 am   BACKBONE|DICT|INTERRES
   101   49  174 1    
   102   50   51 2    
   103   50   52 1    
   104   52   53 1    
   105   52   54 1    
   106   52  175 1    
   107   53  176 1    
   108   53  177 1    
   109   53  178 1    
   110   54   55 am   BACKBONE|DICT|INTERRES
   111   54  179 1    
   112   55   56 2    
   113   55   57 1    
   114   57   58 1    
   115   57   59 1    
   116   57  180 1    
   117   58  181 1    
   118   58  182 1    
   119   58  183 1    
   120   59   60 am   BACKBONE|DICT|INTERRES
   121   59  184 1    
   122   60   61 2    
   123   60   62 1    
   124   62   63 1    
   125   62   64 1    
   126   62  185 1    
   127   63  186 1    
   128   63  187 1    
   129   63  188 1    
   130   64   65 am   BACKBONE|DICT|INTERRES
   131   64  189 1    
   132   65   66 2    
   133   67   68 2    
   134   67   69 am   BACKBONE|DICT|INTERRES
   135   69   70 1    
   136   69  190 1    
   137   70   71 1    
   138   70   72 1    
   139   70  191 1    
   140   71  192 1    
   141   71  193 1    
   142   71  194 1    
   143   72   73 2    
   144   72   74 am   BACKBONE|DICT|INTERRES
   145   74   75 1    
   146   74  195 1    
   147   75   76 1    
   148   75   77 1    
   149   75  196 1    
   150   76  197 1    
   151   76  198 1    
   152   76  199 1    
   153   77   78 2    
   154   77   79 am   BACKBONE|DICT|INTERRES
   155   79   80 1    
   156   79  200 1    
   157   80   81 1    
   158   80   82 1    
   159   80  201 1    
   160   81  202 1    
   161   81  203 1    
   162   81  204 1    
   163   82   83 2    
   164   82   84 am   BACKBONE|DICT|INTERRES
   165   84   85 1    
   166   84  205 1    
   167   85   86 1    
   168   85   87 1    
   169   85  206 1    
   170   86  207 1    
   171   86  208 1    
   172   86  209 1    
   173   87   88 2    
   174   87   89 am   BACKBONE|DICT|INTERRES
   175   89   90 1    
   176   89  210 1    
   177   90   91 1    
   178   90   92 1    
   179   90  211 1    
   180   91  212 1    
   181   91  213 1    
   182   91  214 1    
   183   92   93 2    
   184   92   94 am   BACKBONE|DICT|INTERRES
   185   94   95 1    
   186   94  215 1    
   187   95   96 1    
   188   95   97 1    
   189   95  216 1    
   190   96  217 1    
   191   96  218 1    
   192   96  219 1    
   193   97   98 2    
   194   97   99 am   BACKBONE|DICT|INTERRES
   195   99  100 1    
   196   99  220 1    
   197  100  101 1    
   198  100  102 1    
   199  100  221 1    
   200  101  222 1    
   201  101  223 1    
   202  101  224 1    
   203  102  103 2    
   204  102  104 am   BACKBONE|DICT|INTERRES
   205  104  105 1    
   206  104  225 1    
   207  105  106 1    
   208  105  107 1    
   209  105  226 1    
   210  106  227 1    
   211  106  228 1    
   212  106  229 1    
   213  107  108 2    
   214  107  109 am   BACKBONE|DICT|INTERRES
   215  109  110 1    
   216  109  230 1    
   217  110  111 1    
   218  110  112 1    
   219  110  231 1    
   220  111  232 1    
   221  111  233 1    
   222  111  234 1    
   223  112  113 2    
   224  112  114 am   BACKBONE|DICT|INTERRES
   225  114  115 1    
   226  114  235 1    
   227  115  116 1    
   228  115  117 1    
   229  115  236 1    
   230  116  237 1    
   231  116  238 1    
   232  116  239 1    
   233  117  118 2    
   234  117  119 am   BACKBONE|DICT|INTERRES
   235  119  120 1    
   236  119  240 1    
   237  120  121 1    
   238  120  124 1    
   239  120  241 1    
   240  121  122 am   BACKBONE|DICT|INTERRES
   241  121  123 2    
   242  122  242 1    
   243  122  243 1    
   244  124  125 1    
   245  124  244 1    
   246  124  245 1    
   247  125  126 1    
   248  126  246 1    
   249  126  247 1    
@<TRIPOS>SUBSTRUCTURE
     1 UNK         1 GROUP             0       ****    0 ROOT    
