@<TRIPOS>MOLECULE
3R540
247   249    1
SMALL
USER_CHARGES


@<TRIPOS>ATOM
      1 CA         -0.3656  -16.0618  -48.5551 C.3       0 UNK        -0.1800 
      2 C           0.3490  -14.7199  -48.4898 C.2       0 UNK         0.5000 
      3 O          -0.1599  -13.7806  -47.8777 O.2       0 UNK        -0.5000 
      4 N           1.5364  -14.6316  -49.1044 N.am      1 UNK        -0.5000 
      5 CA          2.3563  -13.4159  -49.2282 C.3       1 UNK         0.1400 
      6 C6          3.6029  -13.6573  -50.1123 C.3       23 UNK        -0.0398 
      7 S7          3.1776  -13.9142  -51.8660 S.3       23 UNK        -0.2404 
      8 C8          3.6274  -15.6602  -52.1393 C.3       23 UNK        -0.0205 
      9 C9          2.4926  -16.6317  -51.8367 C.ar      23 UNK        -0.0193 
     10 C10         1.2387  -16.4559  -52.4297 C.ar      23 UNK        -0.1150 
     11 C11         0.2168  -17.3885  -52.2360 C.ar      23 UNK        -0.0193 
     12 C12         0.4613  -18.5157  -51.4442 C.ar      23 UNK        -0.1150 
     13 C13         1.7078  -18.7034  -50.8374 C.ar      23 UNK        -0.0193 
     14 C14         2.7160  -17.7530  -51.0317 C.ar      23 UNK        -0.1150 
     15 C15         1.9910  -19.9557  -50.0175 C.3       23 UNK        -0.0205 
     16 S16         1.8255  -19.6681  -48.2271 S.3       23 UNK        -0.2404 
     17 C17         0.0253  -19.8092  -47.9912 C.3       23 UNK        -0.0398 
     18 CA         -0.3989  -21.1586  -47.3591 C.3       11 UNK         0.1400 
     19 N           0.0458  -21.3404  -45.9695 N.am      11 UNK        -0.5000 
     20 C          -0.1447  -22.4643  -45.2567 C.2       10 UNK         0.5000 
     21 O          -0.6304  -23.4936  -45.7260 O.2       10 UNK        -0.5000 
     22 CA          0.1949  -22.4237  -43.7546 C.3       10 UNK         0.1400 
     23 CB          1.6938  -22.6519  -43.5112 C.3       10 UNK        -0.1800 
     24 N          -0.2381  -21.1812  -43.1148 N.am      10 UNK        -0.5000 
     25 C          -1.5180  -20.7995  -42.9872 C.2       9 UNK         0.5000 
     26 O          -2.4736  -21.4957  -43.3278 O.2       9 UNK        -0.5000 
     27 CA         -1.7727  -19.3754  -42.4555 C.3       9 UNK         0.1400 
     28 CB         -1.7410  -19.3381  -40.9209 C.3       9 UNK        -0.1800 
     29 N          -0.8184  -18.4101  -43.0043 N.am      9 UNK        -0.5000 
     30 C          -0.7417  -18.1004  -44.3066 C.2       8 UNK         0.5000 
     31 O          -1.5369  -18.5103  -45.1515 O.2       8 UNK        -0.5000 
     32 CA          0.4538  -17.2476  -44.7565 C.3       8 UNK         0.1400 
     33 CB          0.1126  -15.7568  -44.7277 C.3       8 UNK        -0.1800 
     34 N           1.6499  -17.5036  -43.9553 N.am      8 UNK        -0.5000 
     35 C           2.4091  -18.5995  -44.0915 C.2       7 UNK         0.5000 
     36 O           2.1836  -19.4778  -44.9212 O.2       7 UNK        -0.5000 
     37 CA          3.5787  -18.7717  -43.1038 C.3       7 UNK         0.1400 
     38 CB          4.8192  -18.0060  -43.5865 C.3       7 UNK        -0.1800 
     39 N           3.2391  -18.3410  -41.7473 N.am      7 UNK        -0.5000 
     40 C           2.3100  -18.9273  -40.9795 C.2       6 UNK         0.5000 
     41 O           1.6958  -19.9395  -41.3138 O.2       6 UNK        -0.5000 
     42 CA          1.9728  -18.2455  -39.6384 C.3       6 UNK         0.1400 
     43 CB          2.7910  -18.8718  -38.4997 C.3       6 UNK        -0.1800 
     44 N           2.1750  -16.7924  -39.6346 N.am      6 UNK        -0.5000 
     45 C           1.5606  -15.9209  -40.4465 C.2       5 UNK         0.5000 
     46 O           0.7721  -16.2554  -41.3345 O.2       5 UNK        -0.5000 
     47 CA          1.9658  -14.4448  -40.2716 C.3       5 UNK         0.1400 
     48 CB          3.3431  -14.2007  -40.9013 C.3       5 UNK        -0.1800 
     49 N           1.0073  -13.5103  -40.8642 N.am      5 UNK        -0.5000 
     50 C          -0.2090  -13.2581  -40.3606 C.2       4 UNK         0.5000 
     51 O          -0.6520  -13.8100  -39.3517 O.2       4 UNK        -0.5000 
     52 CA         -1.0674  -12.1847  -41.0574 C.3       4 UNK         0.1400 
     53 CB         -1.1587  -10.9241  -40.1817 C.3       4 UNK        -0.1800 
     54 N          -0.5570  -11.7939  -42.3719 N.am      4 UNK        -0.5000 
     55 C          -0.9111  -12.3642  -43.5294 C.2       3 UNK         0.5000 
     56 O          -1.6931  -13.3110  -43.6109 O.2       3 UNK        -0.5000 
     57 CA         -0.3306  -11.7513  -44.8198 C.3       3 UNK         0.1400 
     58 CB         -0.0962  -10.2276  -44.7215 C.3       3 UNK        -0.1800 
     59 N           0.8785  -12.4264  -45.2965 N.am      3 UNK        -0.5000 
     60 C           2.0568  -12.5618  -44.6667 C.2       2 UNK         0.5000 
     61 O           2.2510  -12.2060  -43.5031 O.2       2 UNK        -0.5000 
     62 CA          3.2245  -13.1914  -45.4645 C.3       2 UNK         0.1400 
     63 CB          3.8456  -14.3891  -44.7316 C.3       2 UNK        -0.1800 
     64 N           2.8569  -13.6130  -46.8189 N.am      2 UNK        -0.5000 
     65 C           2.7857  -12.7965  -47.8789 C.2       1 UNK         0.5000 
     66 O           3.0353  -11.5917  -47.8235 O.2       1 UNK        -0.5000 
     67 C          -1.9226  -21.3403  -47.4911 C.2       11 UNK         0.5000 
     68 O          -2.3584  -22.0929  -48.3596 O.2       11 UNK        -0.5000 
     69 N          -2.7009  -20.6865  -46.6177 N.am      12 UNK        -0.5000 
     70 CA         -4.1607  -20.7866  -46.5758 C.3       12 UNK         0.1400 
     71 CB         -4.7211  -19.7874  -45.5533 C.3       12 UNK        -0.1800 
     72 C          -4.6574  -22.2157  -46.2871 C.2       12 UNK         0.5000 
     73 O          -5.5607  -22.6891  -46.9764 O.2       12 UNK        -0.5000 
     74 N          -4.0258  -22.8961  -45.3194 N.am      13 UNK        -0.5000 
     75 CA         -4.3005  -24.2901  -44.9581 C.3       13 UNK         0.1400 
     76 CB         -3.5075  -24.6567  -43.6949 C.3       13 UNK        -0.1800 
     77 C          -3.9995  -25.2859  -46.0958 C.2       13 UNK         0.5000 
     78 O          -4.7473  -26.2473  -46.2763 O.2       13 UNK        -0.5000 
     79 N          -2.9355  -25.0179  -46.8639 N.am      14 UNK        -0.5000 
     80 CA         -2.5466  -25.7709  -48.0587 C.3       14 UNK         0.1400 
     81 CB         -1.0435  -25.5543  -48.3018 C.3       14 UNK        -0.1800 
     82 C          -3.3507  -25.3840  -49.3181 C.2       14 UNK         0.5000 
     83 O          -3.1080  -25.9564  -50.3824 O.2       14 UNK        -0.5000 
     84 N          -4.2412  -24.3865  -49.2066 N.am      15 UNK        -0.5000 
     85 CA         -5.0118  -23.7592  -50.2839 C.3       15 UNK         0.1400 
     86 CB         -6.0739  -24.7303  -50.8379 C.3       15 UNK        -0.1800 
     87 C          -4.1085  -23.1684  -51.3856 C.2       15 UNK         0.5000 
     88 O          -4.4303  -23.2761  -52.5690 O.2       15 UNK        -0.5000 
     89 N          -2.9908  -22.5576  -50.9691 N.am      16 UNK        -0.5000 
     90 CA         -1.8964  -22.0223  -51.7847 C.3       16 UNK         0.1400 
     91 CB         -2.3773  -20.8436  -52.6525 C.3       16 UNK        -0.1800 
     92 C          -1.1558  -23.1168  -52.5809 C.2       16 UNK         0.5000 
     93 O          -0.7007  -22.8674  -53.6963 O.2       16 UNK        -0.5000 
     94 N          -1.0597  -24.3127  -51.9792 N.am      17 UNK        -0.5000 
     95 CA         -0.5745  -25.5670  -52.5635 C.3       17 UNK         0.1400 
     96 CB          0.9164  -25.4752  -52.9520 C.3       17 UNK        -0.1800 
     97 C          -1.4927  -26.0278  -53.7132 C.2       17 UNK         0.5000 
     98 O          -1.0207  -26.3105  -54.8159 O.2       17 UNK        -0.5000 
     99 N          -2.8002  -26.0686  -53.4127 N.am      18 UNK        -0.5000 
    100 CA        -3.9138  -26.3790  -54.3145 C.3       18 UNK         0.1400 
    101 CB        -3.8756  -27.8622  -54.7381 C.3       18 UNK        -0.1800 
    102 C         -3.9999  -25.4039  -55.5095 C.2       18 UNK         0.5000 
    103 O         -4.0527  -25.8320  -56.6643 O.2       18 UNK        -0.5000 
    104 N         -4.0182  -24.1032  -55.1984 N.am      19 UNK        -0.5000 
    105 CA        -4.1337  -22.9966  -56.1473 C.3       19 UNK         0.1400 
    106 CB        -2.7527  -22.3618  -56.3864 C.3       19 UNK        -0.1800 
    107 C         -5.1901  -21.9908  -55.6543 C.2       19 UNK         0.5000 
    108 O         -4.9739  -20.7785  -55.7091 O.2       19 UNK        -0.5000 
    109 N         -6.3213  -22.5297  -55.1739 N.am      20 UNK        -0.5000 
    110 CA        -7.5526  -21.8304  -54.7870 C.3       20 UNK         0.1400 
    111 CB        -8.2479  -21.2565  -56.0397 C.3       20 UNK        -0.1800 
    112 C         -7.3725  -20.7734  -53.6761 C.2       20 UNK         0.5000 
    113 O         -8.0726  -19.7587  -53.6812 O.2       20 UNK        -0.5000 
    114 N         -6.4330  -21.0196  -52.7490 N.am      21 UNK        -0.5000 
    115 CA        -6.1099  -20.1759  -51.5873 C.3       21 UNK         0.1400 
    116 CB        -7.2317  -20.2626  -50.5323 C.3       21 UNK        -0.1800 
    117 C         -5.7454  -18.7258  -51.9702 C.2       21 UNK         0.5000 
    118 O         -6.1653  -17.7804  -51.3011 O.2       21 UNK        -0.5000 
    119 N         -4.9833  -18.5977  -53.0636 N.am      22 UNK        -0.5000 
    120 CA        -4.5562  -17.3430  -53.7043 C.3       22 UNK         0.1400 
    121 C         -5.6722  -16.6313  -54.5298 C.2       22 UNK         0.5000 
    122 N         -6.8640  -17.1963  -54.6890 N.am      22 UNK        -0.7600 
    123 O         -5.4450  -15.5506  -55.0672 O.2       22 UNK        -0.5000 
    124 C124       -3.8167  -16.3468  -52.7598 C.3       23 UNK        -0.0398 
    125 S125       -2.4967  -17.0788  -51.7293 S.3       23 UNK        -0.2404 
    126 C126       -1.1289  -17.1902  -52.9224 C.3       23 UNK        -0.0205 
    127 H127        0.2791  -16.8428  -48.9574 H         1 UNK         0.0600 
    128 H128       -1.2450  -15.9832  -49.1931 H         1 UNK         0.0600 
    129 H129       -0.6942  -16.3691  -47.5633 H         1 UNK         0.0600 
    130 H130        1.8818  -15.4352  -49.6104 H         1 UNK         0.3000 
    131 H131        1.7328  -12.6647  -49.7180 H         1 UNK         0.0600 
    132 H132        4.2695  -12.7927  -50.0854 H         1 UNK         0.0800 
    133 H133        4.1879  -14.4966  -49.7328 H         1 UNK         0.0800 
    134 H134        3.8973  -15.7796  -53.1893 H         1 UNK         0.0800 
    135 H135        4.5251  -15.9076  -51.5708 H         1 UNK         0.0800 
    136 H136        1.0675  -15.5975  -53.0642 H         1 UNK         0.1150 
    137 H137       -0.3205  -19.2480  -51.3095 H         1 UNK         0.1150 
    138 H138        3.6867  -17.9083  -50.5816 H         1 UNK         0.1150 
    139 H139        1.3397  -20.7756  -50.3238 H         1 UNK         0.0800 
    140 H140        3.0088  -20.2925  -50.2198 H         1 UNK         0.0800 
    141 H141       -0.4618  -19.6656  -48.9566 H         1 UNK         0.0800 
    142 H142       -0.3043  -18.9748  -47.3752 H         1 UNK         0.0800 
    143 H143        0.0618  -21.9573  -47.9447 H         1 UNK         0.0600 
    144 H144        0.5280  -20.5602  -45.5366 H         1 UNK         0.3000 
    145 H145       -0.3452  -23.2423  -43.2745 H         1 UNK         0.0600 
    146 H146        2.0125  -23.6085  -43.9271 H         1 UNK         0.0600 
    147 H147        2.3055  -21.8774  -43.9711 H         1 UNK         0.0600 
    148 H148        1.9217  -22.6680  -42.4452 H         1 UNK         0.0600 
    149 H149        0.4902  -20.5804  -42.7421 H         1 UNK         0.3000 
    150 H150       -2.7711  -19.0722  -42.7773 H         1 UNK         0.0600 
    151 H151       -1.8801  -18.3241  -40.5451 H         1 UNK         0.0600 
    152 H152       -0.8016  -19.7195  -40.5236 H         1 UNK         0.0600 
    153 H153       -2.5400  -19.9529  -40.5051 H         1 UNK         0.0600 
    154 H154       -0.1533  -17.9925  -42.3654 H         1 UNK         0.3000 
    155 H155        0.6708  -17.5125  -45.7929 H         1 UNK         0.0600 
    156 H156        0.0607  -15.3701  -43.7105 H         1 UNK         0.0600 
    157 H157       -0.8483  -15.5582  -45.2043 H         1 UNK         0.0600 
    158 H158        0.8605  -15.1869  -45.2725 H         1 UNK         0.0600 
    159 H159        1.8209  -16.8748  -43.1820 H         1 UNK         0.3000 
    160 H160        3.8268  -19.8348  -43.0696 H         1 UNK         0.0600 
    161 H161        5.0813  -18.2887  -44.6071 H         1 UNK         0.0600 
    162 H162        5.6833  -18.2225  -42.9583 H         1 UNK         0.0600 
    163 H163        4.6591  -16.9281  -43.5740 H         1 UNK         0.0600 
    164 H164        3.7066  -17.5195  -41.3946 H         1 UNK         0.3000 
    165 H165        0.9158  -18.4270  -39.4370 H         1 UNK         0.0600 
    166 H166        2.4939  -18.4685  -37.5314 H         1 UNK         0.0600 
    167 H167        2.6414  -19.9517  -38.4593 H         1 UNK         0.0600 
    168 H168        3.8595  -18.6929  -38.6259 H         1 UNK         0.0600 
    169 H169        2.8228  -16.4382  -38.9454 H         1 UNK         0.3000 
    170 H170        2.0304  -14.2303  -39.2027 H         1 UNK         0.0600 
    171 H171        3.6316  -13.1511  -40.8392 H         1 UNK         0.0600 
    172 H172        4.1186  -14.7813  -40.4005 H         1 UNK         0.0600 
    173 H173        3.3434  -14.4890  -41.9497 H         1 UNK         0.0600 
    174 H174        1.2938  -13.0378  -41.7134 H         1 UNK         0.3000 
    175 H175       -2.0747  -12.5932  -41.1632 H         1 UNK         0.0600 
    176 H176       -0.1793  -10.4693  -40.0274 H         1 UNK         0.0600 
    177 H177       -1.8091  -10.1757  -40.6348 H         1 UNK         0.0600 
    178 H178       -1.5708  -11.1573  -39.1990 H         1 UNK         0.0600 
    179 H179        0.1223  -11.0465  -42.3934 H         1 UNK         0.3000 
    180 H180       -1.0839  -11.9097  -45.5933 H         1 UNK         0.0600 
    181 H181        0.1584   -9.8122  -45.6967 H         1 UNK         0.0600 
    182 H182        0.7126   -9.9723  -44.0364 H         1 UNK         0.0600 
    183 H183       -0.9953   -9.7141  -44.3783 H         1 UNK         0.0600 
    184 H184        0.7982  -12.8145  -46.2297 H         1 UNK         0.3000 
    185 H185        3.9982  -12.4249  -45.5444 H         1 UNK         0.0600 
    186 H186        3.0920  -15.1053  -44.4072 H         1 UNK         0.0600 
    187 H187        4.5617  -14.9164  -45.3623 H         1 UNK         0.0600 
    188 H188        4.3938  -14.0521  -43.8526 H         1 UNK         0.0600 
    189 H189        2.6274  -14.5873  -46.9485 H         1 UNK         0.3000 
    190 H190       -2.2685  -20.0496  -45.9526 H         1 UNK         0.3000 
    191 H191       -4.5352  -20.5025  -47.5617 H         1 UNK         0.0600 
    192 H192       -4.3739  -20.0044  -44.5433 H         1 UNK         0.0600 
    193 H193       -5.8113  -19.8144  -45.5386 H         1 UNK         0.0600 
    194 H194       -4.4234  -18.7671  -45.7960 H         1 UNK         0.0600 
    195 H195       -3.3215  -22.4147  -44.7655 H         1 UNK         0.3000 
    196 H196       -5.3644  -24.3675  -44.7255 H         1 UNK         0.0600 
    197 H197       -3.7138  -25.6825  -43.3869 H         1 UNK         0.0600 
    198 H198       -3.7725  -24.0069  -42.8606 H         1 UNK         0.0600 
    199 H199       -2.4327  -24.5714  -43.8567 H         1 UNK         0.0600 
    200 H200       -2.3384  -24.2365  -46.6115 H         1 UNK         0.3000 
    201 H201       -2.7140  -26.8346  -47.8790 H         1 UNK         0.0600 
    202 H202       -0.4578  -25.8551  -47.4329 H         1 UNK         0.0600 
    203 H203       -0.8167  -24.5077  -48.5090 H         1 UNK         0.0600 
    204 H204       -0.6892  -26.1437  -49.1483 H         1 UNK         0.0600 
    205 H205       -4.3554  -23.9600  -48.2952 H         1 UNK         0.3000 
    206 H206       -5.5356  -22.9156  -49.8334 H         1 UNK         0.0600 
    207 H207       -6.7266  -24.2299  -51.5543 H         1 UNK         0.0600 
    208 H208       -5.6211  -25.5818  -51.3462 H         1 UNK         0.0600 
    209 H209       -6.7070  -25.1157  -50.0388 H         1 UNK         0.0600 
    210 H210       -2.8347  -22.4949  -49.9614 H         1 UNK         0.3000 
    211 H211       -1.1628  -21.6273  -51.0807 H         1 UNK         0.0600 
    212 H212       -3.1421  -21.1428  -53.3675 H         1 UNK         0.0600 
    213 H213       -1.5535  -20.4098  -53.2193 H         1 UNK         0.0600 
    214 H214       -2.7902  -20.0534  -52.0279 H         1 UNK         0.0600 
    215 H215       -1.5120  -24.4133  -51.0816 H         1 UNK         0.3000 
    216 H216       -0.6591  -26.3238  -51.7822 H         1 UNK         0.0600 
    217 H217        1.2957  -26.4499  -53.2604 H         1 UNK         0.0600 
    218 H218        1.5228  -25.1422  -52.1097 H         1 UNK         0.0600 
    219 H219        1.0845  -24.7864  -53.7801 H         1 UNK         0.0600 
    220 H220       -3.0623  -25.8408  -52.4592 H         1 UNK         0.3000 
    221 H221       -4.8254  -26.2292  -53.7343 H         1 UNK         0.0600 
    222 H222       -3.0035  -28.0886  -55.3522 H         1 UNK         0.0600 
    223 H223       -3.8526  -28.5190  -53.8684 H         1 UNK         0.0600 
    224 H224       -4.7607  -28.1244  -55.3187 H         1 UNK         0.0600 
    225 H225       -4.0220  -23.8355  -54.2142 H         1 UNK         0.3000 
    226 H226       -4.5003  -23.3681  -57.1061 H         1 UNK         0.0600 
    227 H227       -2.0232  -23.1090  -56.6993 H         1 UNK         0.0600 
    228 H228       -2.8013  -21.6045  -57.1694 H         1 UNK         0.0600 
    229 H229       -2.3710  -21.8787  -55.4884 H         1 UNK         0.0600 
    230 H230       -6.3659  -23.5379  -55.1302 H         1 UNK         0.3000 
    231 H231       -8.2122  -22.5905  -54.3662 H         1 UNK         0.0600 
    232 H232       -7.6695  -20.4466  -56.4857 H         1 UNK         0.0600 
    233 H233       -8.3897  -22.0251  -56.7994 H         1 UNK         0.0600 
    234 H234       -9.2342  -20.8595  -55.7966 H         1 UNK         0.0600 
    235 H235       -5.8684  -21.8549  -52.8640 H         1 UNK         0.3000 
    236 H236       -5.2085  -20.5863  -51.1348 H         1 UNK         0.0600 
    237 H237       -8.1573  -19.8102  -50.8899 H         1 UNK         0.0600 
    238 H238       -7.4463  -21.2977  -50.2671 H         1 UNK         0.0600 
    239 H239       -6.9472  -19.7462  -49.6147 H         1 UNK         0.0600 
    240 H240       -4.7533  -19.4362  -53.5793 H         1 UNK         0.3000 
    241 H241       -3.8300  -17.6593  -54.4536 H         1 UNK         0.0600 
    242 H242       -7.5626  -16.7200  -55.2368 H         1 UNK         0.3800 
    243 H243       -7.0947  -18.0821  -54.2524 H         1 UNK         0.3800 
    244 H244       -3.3827  -15.5297  -53.3380 H         1 UNK         0.0800 
    245 H245       -4.5304  -15.8736  -52.0843 H         1 UNK         0.0800 
    246 H246       -1.1114  -16.2854  -53.5315 H         1 UNK         0.0800 
    247 H247       -1.3122  -18.0186  -53.6070 H         1 UNK         0.0800 
@<TRIPOS>BOND
     1    1    2 1    
     2    1  127 1    
     3    1  128 1    
     4    1  129 1    
     5    2    3 2    
     6    2    4 am   BACKBONE|DICT|INTERRES
     7    4    5 1    
     8    4  130 1    
     9    5    6 1    
    10    5   65 1    
    11    5  131 1    
    12    6    7 1    
    13    6  132 1    
    14    6  133 1    
    15    7    8 1    
    16    8    9 1    
    17    8  134 1    
    18    8  135 1    
    19    9   10 ar   
    20    9   14 ar   
    21   10   11 ar   
    22   10  136 1    
    23   11   12 ar   
    24   11  126 1    
    25   12   13 ar   
    26   12  137 1    
    27   13   14 ar   
    28   13   15 1    
    29   14  138 1    
    30   15   16 1    
    31   15  139 1    
    32   15  140 1    
    33   16   17 1    
    34   17   18 1    
    35   17  141 1    
    36   17  142 1    
    37   18   19 1    
    38   18   67 1    
    39   18  143 1    
    40   19   20 am   BACKBONE|DICT|INTERRES
    41   19  144 1    
    42   20   21 2    
    43   20   22 1    
    44   22   23 1    
    45   22   24 1    
    46   22  145 1    
    47   23  146 1    
    48   23  147 1    
    49   23  148 1    
    50   24   25 am   BACKBONE|DICT|INTERRES
    51   24  149 1    
    52   25   26 2    
    53   25   27 1    
    54   27   28 1    
    55   27   29 1    
    56   27  150 1    
    57   28  151 1    
    58   28  152 1    
    59   28  153 1    
    60   29   30 am   BACKBONE|DICT|INTERRES
    61   29  154 1    
    62   30   31 2    
    63   30   32 1    
    64   32   33 1    
    65   32   34 1    
    66   32  155 1    
    67   33  156 1    
    68   33  157 1    
    69   33  158 1    
    70   34   35 am   BACKBONE|DICT|INTERRES
    71   34  159 1    
    72   35   36 2    
    73   35   37 1    
    74   37   38 1    
    75   37   39 1    
    76   37  160 1    
    77   38  161 1    
    78   38  162 1    
    79   38  163 1    
    80   39   40 am   BACKBONE|DICT|INTERRES
    81   39  164 1    
    82   40   41 2    
    83   40   42 1    
    84   42   43 1    
    85   42   44 1    
    86   42  165 1    
    87   43  166 1    
    88   43  167 1    
    89   43  168 1    
    90   44   45 am   BACKBONE|DICT|INTERRES
    91   44  169 1    
    92   45   46 2    
    93   45   47 1    
    94   47   48 1    
    95   47   49 1    
    96   47  170 1    
    97   48  171 1    
    98   48  172 1    
    99   48  173 1    
   100   49   50 am   BACKBONE|DICT|INTERRES
   101   49  174 1    
   102   50   51 2    
   103   50   52 1    
   104   52   53 1    
   105   52   54 1    
   106   52  175 1    
   107   53  176 1    
   108   53  177 1    
   109   53  178 1    
   110   54   55 am   BACKBONE|DICT|INTERRES
   111   54  179 1    
   112   55   56 2    
   113   55   57 1    
   114   57   58 1    
   115   57   59 1    
   116   57  180 1    
   117   58  181 1    
   118   58  182 1    
   119   58  183 1    
   120   59   60 am   BACKBONE|DICT|INTERRES
   121   59  184 1    
   122   60   61 2    
   123   60   62 1    
   124   62   63 1    
   125   62   64 1    
   126   62  185 1    
   127   63  186 1    
   128   63  187 1    
   129   63  188 1    
   130   64   65 am   BACKBONE|DICT|INTERRES
   131   64  189 1    
   132   65   66 2    
   133   67   68 2    
   134   67   69 am   BACKBONE|DICT|INTERRES
   135   69   70 1    
   136   69  190 1    
   137   70   71 1    
   138   70   72 1    
   139   70  191 1    
   140   71  192 1    
   141   71  193 1    
   142   71  194 1    
   143   72   73 2    
   144   72   74 am   BACKBONE|DICT|INTERRES
   145   74   75 1    
   146   74  195 1    
   147   75   76 1    
   148   75   77 1    
   149   75  196 1    
   150   76  197 1    
   151   76  198 1    
   152   76  199 1    
   153   77   78 2    
   154   77   79 am   BACKBONE|DICT|INTERRES
   155   79   80 1    
   156   79  200 1    
   157   80   81 1    
   158   80   82 1    
   159   80  201 1    
   160   81  202 1    
   161   81  203 1    
   162   81  204 1    
   163   82   83 2    
   164   82   84 am   BACKBONE|DICT|INTERRES
   165   84   85 1    
   166   84  205 1    
   167   85   86 1    
   168   85   87 1    
   169   85  206 1    
   170   86  207 1    
   171   86  208 1    
   172   86  209 1    
   173   87   88 2    
   174   87   89 am   BACKBONE|DICT|INTERRES
   175   89   90 1    
   176   89  210 1    
   177   90   91 1    
   178   90   92 1    
   179   90  211 1    
   180   91  212 1    
   181   91  213 1    
   182   91  214 1    
   183   92   93 2    
   184   92   94 am   BACKBONE|DICT|INTERRES
   185   94   95 1    
   186   94  215 1    
   187   95   96 1    
   188   95   97 1    
   189   95  216 1    
   190   96  217 1    
   191   96  218 1    
   192   96  219 1    
   193   97   98 2    
   194   97   99 am   BACKBONE|DICT|INTERRES
   195   99  100 1    
   196   99  220 1    
   197  100  101 1    
   198  100  102 1    
   199  100  221 1    
   200  101  222 1    
   201  101  223 1    
   202  101  224 1    
   203  102  103 2    
   204  102  104 am   BACKBONE|DICT|INTERRES
   205  104  105 1    
   206  104  225 1    
   207  105  106 1    
   208  105  107 1    
   209  105  226 1    
   210  106  227 1    
   211  106  228 1    
   212  106  229 1    
   213  107  108 2    
   214  107  109 am   BACKBONE|DICT|INTERRES
   215  109  110 1    
   216  109  230 1    
   217  110  111 1    
   218  110  112 1    
   219  110  231 1    
   220  111  232 1    
   221  111  233 1    
   222  111  234 1    
   223  112  113 2    
   224  112  114 am   BACKBONE|DICT|INTERRES
   225  114  115 1    
   226  114  235 1    
   227  115  116 1    
   228  115  117 1    
   229  115  236 1    
   230  116  237 1    
   231  116  238 1    
   232  116  239 1    
   233  117  118 2    
   234  117  119 am   BACKBONE|DICT|INTERRES
   235  119  120 1    
   236  119  240 1    
   237  120  121 1    
   238  120  124 1    
   239  120  241 1    
   240  121  122 am   BACKBONE|DICT|INTERRES
   241  121  123 2    
   242  122  242 1    
   243  122  243 1    
   244  124  125 1    
   245  124  244 1    
   246  124  245 1    
   247  125  126 1    
   248  126  246 1    
   249  126  247 1    
@<TRIPOS>SUBSTRUCTURE
     1 UNK         1 GROUP             0       ****    0 ROOT    
