@<TRIPOS>MOLECULE
3R540
247   249    1
SMALL
USER_CHARGES


@<TRIPOS>ATOM
      1 CA          7.5444  -14.7039  -46.4828 C.3       0 UNK        -0.1800 
      2 C           6.0868  -14.5351  -46.0795 C.2       0 UNK         0.5000 
      3 O           5.7989  -14.3013  -44.9065 O.2       0 UNK        -0.5000 
      4 N           5.1679  -14.6502  -47.0468 N.am      1 UNK        -0.5000 
      5 CA          3.7207  -14.4921  -46.8559 C.3       1 UNK         0.1400 
      6 C6          2.9098  -15.0743  -48.0360 C.3       23 UNK        -0.0398 
      7 S7          3.3673  -14.3883  -49.6673 S.3       23 UNK        -0.2404 
      8 C8          1.7262  -14.2152  -50.4482 C.3       23 UNK        -0.0205 
      9 C9          0.9630  -15.5286  -50.6221 C.ar      23 UNK        -0.0193 
     10 C10        -0.4331  -15.5216  -50.5546 C.ar      23 UNK        -0.1150 
     11 C11        -1.1656  -16.6984  -50.7379 C.ar      23 UNK        -0.0193 
     12 C12        -0.4920  -17.8958  -50.9942 C.ar      23 UNK        -0.1150 
     13 C13         0.9051  -17.9235  -51.0475 C.ar      23 UNK        -0.0193 
     14 C14         1.6224  -16.7373  -50.8749 C.ar      23 UNK        -0.1150 
     15 C15         1.6530  -19.2247  -51.2968 C.3       23 UNK        -0.0205 
     16 S16         1.9098  -20.1612  -49.7532 S.3       23 UNK        -0.2404 
     17 C17         0.3516  -21.0966  -49.6924 C.3       23 UNK        -0.0398 
     18 CA          0.3213  -22.1888  -48.5985 C.3       11 UNK         0.1400 
     19 N           0.3313  -21.6354  -47.2402 N.am      11 UNK        -0.5000 
     20 C           0.4189  -22.3733  -46.1217 C.2       10 UNK         0.5000 
     21 O           0.5741  -23.5942  -46.1207 O.2       10 UNK        -0.5000 
     22 CA          0.2468  -21.6428  -44.7755 C.3       10 UNK         0.1400 
     23 CB          1.6036  -21.1462  -44.2564 C.3       10 UNK        -0.1800 
     24 N          -0.6944  -20.5237  -44.8345 N.am      10 UNK        -0.5000 
     25 C          -1.9795  -20.6105  -45.2073 C.2       9 UNK         0.5000 
     26 O          -2.5345  -21.6717  -45.4899 O.2       9 UNK        -0.5000 
     27 CA         -2.7721  -19.2957  -45.3298 C.3       9 UNK         0.1400 
     28 CB         -3.6369  -19.0777  -44.0806 C.3       9 UNK        -0.1800 
     29 N          -1.9350  -18.1141  -45.5566 N.am      9 UNK        -0.5000 
     30 C          -1.1577  -17.9131  -46.6314 C.2       8 UNK         0.5000 
     31 O          -1.0568  -18.7189  -47.5565 O.2       8 UNK        -0.5000 
     32 CA         -0.3134  -16.6260  -46.6392 C.3       8 UNK         0.1400 
     33 CB         -1.1645  -15.3966  -46.9906 C.3       8 UNK        -0.1800 
     34 N           0.3366  -16.4093  -45.3464 N.am      8 UNK        -0.5000 
     35 C           1.4131  -17.0837  -44.9202 C.2       7 UNK         0.5000 
     36 O           2.0568  -17.8536  -45.6309 O.2       7 UNK        -0.5000 
     37 CA          1.8253  -16.8946  -43.4478 C.3       7 UNK         0.1400 
     38 CB          2.9174  -15.8239  -43.3022 C.3       7 UNK        -0.1800 
     39 N           0.6886  -16.5483  -42.5939 N.am      7 UNK        -0.5000 
     40 C          -0.2229  -17.4319  -42.1618 C.2       6 UNK         0.5000 
     41 O          -0.1882  -18.6312  -42.4336 O.2       6 UNK        -0.5000 
     42 CA         -1.3824  -16.8849  -41.3057 C.3       6 UNK         0.1400 
     43 CB         -1.0047  -16.9064  -39.8172 C.3       6 UNK        -0.1800 
     44 N          -1.7876  -15.5287  -41.6762 N.am      6 UNK        -0.5000 
     45 C          -2.3038  -15.1785  -42.8627 C.2       5 UNK         0.5000 
     46 O          -2.5363  -15.9788  -43.7669 O.2       5 UNK        -0.5000 
     47 CA         -2.5344  -13.6740  -43.1027 C.3       5 UNK         0.1400 
     48 CB         -3.9582  -13.2749  -42.6887 C.3       5 UNK        -0.1800 
     49 N          -1.5665  -12.8178  -42.4074 N.am      5 UNK        -0.5000 
     50 C          -0.2422  -12.8544  -42.6039 C.2       4 UNK         0.5000 
     51 O           0.3118  -13.6261  -43.3906 O.2       4 UNK        -0.5000 
     52 CA          0.6075  -11.9304  -41.7261 C.3       4 UNK         0.1400 
     53 CB          0.8408  -12.5770  -40.3465 C.3       4 UNK        -0.1800 
     54 N           1.8822  -11.6961  -42.3964 N.am      4 UNK        -0.5000 
     55 C           2.7495  -10.7231  -42.0902 C.2       3 UNK         0.5000 
     56 O           2.5589   -9.8946  -41.1989 O.2       3 UNK        -0.5000 
     57 CA          4.0331  -10.6420  -42.9271 C.3       3 UNK         0.1400 
     58 CB          5.0646  -11.6849  -42.4635 C.3       3 UNK        -0.1800 
     59 N           3.7434  -10.8255  -44.3462 N.am      3 UNK        -0.5000 
     60 C           4.3933  -10.2388  -45.3550 C.2       2 UNK         0.5000 
     61 O           5.3293   -9.4518  -45.1996 O.2       2 UNK        -0.5000 
     62 CA          3.9272  -10.6309  -46.7738 C.3       2 UNK         0.1400 
     63 CB          4.6666   -9.8584  -47.8809 C.3       2 UNK        -0.1800 
     64 N           4.0952  -12.0642  -47.0140 N.am      2 UNK        -0.5000 
     65 C           3.3067  -13.0389  -46.5403 C.2       1 UNK         0.5000 
     66 O           2.3064  -12.8262  -45.8539 O.2       1 UNK        -0.5000 
     67 C          -0.9108  -23.0846  -48.8198 C.2       11 UNK         0.5000 
     68 O          -0.7726  -24.2118  -49.2941 O.2       11 UNK        -0.5000 
     69 N          -2.0916  -22.5641  -48.4590 N.am      12 UNK        -0.5000 
     70 CA         -3.3716  -23.2513  -48.6071 C.3       12 UNK         0.1400 
     71 CB         -4.5188  -22.2554  -48.3839 C.3       12 UNK        -0.1800 
     72 C          -3.4949  -24.4695  -47.6787 C.2       12 UNK         0.5000 
     73 O          -4.0104  -25.5039  -48.1007 O.2       12 UNK        -0.5000 
     74 N          -2.9734  -24.3426  -46.4511 N.am      13 UNK        -0.5000 
     75 CA         -2.8813  -25.4204  -45.4679 C.3       13 UNK         0.1400 
     76 CB         -2.4004  -24.8480  -44.1263 C.3       13 UNK        -0.1800 
     77 C          -1.9680  -26.5711  -45.9307 C.2       13 UNK         0.5000 
     78 O          -2.3240  -27.7349  -45.7439 O.2       13 UNK        -0.5000 
     79 N          -0.8250  -26.2300  -46.5440 N.am      14 UNK        -0.5000 
     80 CA          0.1204  -27.1882  -47.1175 C.3       14 UNK         0.1400 
     81 CB          1.4495  -26.4818  -47.4254 C.3       14 UNK        -0.1800 
     82 C          -0.4313  -27.8836  -48.3751 C.2       14 UNK         0.5000 
     83 O          -0.2676  -29.0960  -48.5180 O.2       14 UNK        -0.5000 
     84 N          -1.0765  -27.1095  -49.2587 N.am      15 UNK        -0.5000 
     85 CA         -1.6835  -27.5989  -50.4978 C.3       15 UNK         0.1400 
     86 CB         -2.0064  -26.4018  -51.4051 C.3       15 UNK        -0.1800 
     87 C          -2.9551  -28.4363  -50.2703 C.2       15 UNK         0.5000 
     88 O          -3.2454  -29.3168  -51.0810 O.2       15 UNK        -0.5000 
     89 N          -3.6982  -28.1188  -49.1990 N.am      16 UNK        -0.5000 
     90 CA         -5.0476  -28.5966  -48.8771 C.3       16 UNK         0.1400 
     91 CB         -5.0510  -30.1098  -48.5764 C.3       16 UNK        -0.1800 
     92 C          -6.0700  -28.1780  -49.9570 C.2       16 UNK         0.5000 
     93 O          -6.9562  -28.9553  -50.3175 O.2       16 UNK        -0.5000 
     94 N          -5.9031  -26.9537  -50.4696 N.am      17 UNK        -0.5000 
     95 CA         -6.6367  -26.3629  -51.5831 C.3       17 UNK         0.1400 
     96 CB         -6.1753  -27.0012  -52.9087 C.3       17 UNK        -0.1800 
     97 C          -6.3786  -24.8487  -51.5870 C.2       17 UNK         0.5000 
     98 O          -5.5226  -24.3698  -50.8395 O.2       17 UNK        -0.5000 
     99 N          -7.1021  -24.1154  -52.4411 N.am      18 UNK        -0.5000 
    100 CA        -6.9666  -22.6704  -52.6389 C.3       18 UNK         0.1400 
    101 CB        -8.2413  -22.1445  -53.3219 C.3       18 UNK        -0.1800 
    102 C         -5.6871  -22.3150  -53.4267 C.2       18 UNK         0.5000 
    103 O         -5.7618  -21.9307  -54.5963 O.2       18 UNK        -0.5000 
    104 N         -4.5292  -22.4782  -52.7738 N.am      19 UNK        -0.5000 
    105 CA        -3.1966  -22.1649  -53.2915 C.3       19 UNK         0.1400 
    106 CB        -2.1503  -22.4963  -52.2195 C.3       19 UNK        -0.1800 
    107 C         -3.0837  -20.6887  -53.7074 C.2       19 UNK         0.5000 
    108 O         -3.3937  -19.8110  -52.8998 O.2       19 UNK        -0.5000 
    109 N         -2.6930  -20.4523  -54.9679 N.am      20 UNK        -0.5000 
    110 CA        -2.6176  -19.1407  -55.6279 C.3       20 UNK         0.1400 
    111 CB        -1.4864  -18.2910  -55.0095 C.3       20 UNK        -0.1800 
    112 C         -3.9725  -18.3929  -55.6726 C.2       20 UNK         0.5000 
    113 O         -3.9926  -17.1631  -55.7185 O.2       20 UNK        -0.5000 
    114 N         -5.0794  -19.1519  -55.6234 N.am      21 UNK        -0.5000 
    115 CA        -6.4882  -18.7487  -55.5172 C.3       21 UNK         0.1400 
    116 CB        -6.9066  -17.8070  -56.6629 C.3       21 UNK        -0.1800 
    117 C         -6.8886  -18.1773  -54.1406 C.2       21 UNK         0.5000 
    118 O         -8.0506  -18.3137  -53.7561 O.2       21 UNK        -0.5000 
    119 N         -5.9460  -17.5620  -53.4198 N.am      22 UNK        -0.5000 
    120 CA        -6.1265  -17.0230  -52.0653 C.3       22 UNK         0.1400 
    121 C         -6.1151  -18.0904  -50.9350 C.2       22 UNK         0.5000 
    122 N         -5.4632  -19.2338  -51.0990 N.am      22 UNK        -0.7600 
    123 O         -6.7247  -17.8803  -49.8902 O.2       22 UNK        -0.5000 
    124 C124       -5.1512  -15.8534  -51.7690 C.3       23 UNK        -0.0398 
    125 S125       -3.4107  -16.1618  -52.2380 S.3       23 UNK        -0.2404 
    126 C126       -2.6833  -16.6689  -50.6533 C.3       23 UNK        -0.0205 
    127 H127        7.6497  -14.9063  -47.5490 H         1 UNK         0.0600 
    128 H128        7.9918  -15.5322  -45.9335 H         1 UNK         0.0600 
    129 H129        8.1044  -13.7978  -46.2514 H         1 UNK         0.0600 
    130 H130        5.4603  -14.8433  -47.9948 H         1 UNK         0.3000 
    131 H131        3.4524  -15.0786  -45.9777 H         1 UNK         0.0600 
    132 H132        1.8439  -14.9219  -47.8635 H         1 UNK         0.0800 
    133 H133        3.0483  -16.1559  -48.0756 H         1 UNK         0.0800 
    134 H134        1.1373  -13.5109  -49.8582 H         1 UNK         0.0800 
    135 H135        1.8561  -13.7612  -51.4312 H         1 UNK         0.0800 
    136 H136       -0.9570  -14.5948  -50.3671 H         1 UNK         0.1150 
    137 H137       -1.0583  -18.8036  -51.1470 H         1 UNK         0.1150 
    138 H138        2.7007  -16.7623  -50.9369 H         1 UNK         0.1150 
    139 H139        1.1200  -19.8305  -52.0310 H         1 UNK         0.0800 
    140 H140        2.6281  -19.0127  -51.7380 H         1 UNK         0.0800 
    141 H141        0.2142  -21.5494  -50.6757 H         1 UNK         0.0800 
    142 H142       -0.4733  -20.3967  -49.5561 H         1 UNK         0.0800 
    143 H143        1.2075  -22.8172  -48.7113 H         1 UNK         0.0600 
    144 H144        0.1810  -20.6372  -47.1610 H         1 UNK         0.3000 
    145 H145       -0.1491  -22.3615  -44.0560 H         1 UNK         0.0600 
    146 H146        1.5057  -20.6696  -43.2810 H         1 UNK         0.0600 
    147 H147        2.3036  -21.9750  -44.1438 H         1 UNK         0.0600 
    148 H148        2.0560  -20.4274  -44.9395 H         1 UNK         0.0600 
    149 H149       -0.3413  -19.6188  -44.5548 H         1 UNK         0.3000 
    150 H150       -3.4363  -19.3974  -46.1905 H         1 UNK         0.0600 
    151 H151       -4.3091  -19.9212  -43.9183 H         1 UNK         0.0600 
    152 H152       -4.2540  -18.1842  -44.1767 H         1 UNK         0.0600 
    153 H153       -3.0242  -18.9699  -43.1858 H         1 UNK         0.0600 
    154 H154       -2.0047  -17.3768  -44.8589 H         1 UNK         0.3000 
    155 H155        0.4496  -16.7436  -47.4111 H         1 UNK         0.0600 
    156 H156       -0.5477  -14.5015  -47.0732 H         1 UNK         0.0600 
    157 H157       -1.6702  -15.5335  -47.9449 H         1 UNK         0.0600 
    158 H158       -1.9329  -15.2042  -46.2423 H         1 UNK         0.0600 
    159 H159       -0.1192  -15.7757  -44.7039 H         1 UNK         0.3000 
    160 H160        2.2422  -17.8423  -43.0997 H         1 UNK         0.0600 
    161 H161        2.5997  -14.8590  -43.6967 H         1 UNK         0.0600 
    162 H162        3.8204  -16.1171  -43.8387 H         1 UNK         0.0600 
    163 H163        3.1962  -15.6820  -42.2580 H         1 UNK         0.0600 
    164 H164        0.5581  -15.5648  -42.3957 H         1 UNK         0.3000 
    165 H165       -2.2416  -17.5425  -41.4485 H         1 UNK         0.0600 
    166 H166       -1.8438  -16.5996  -39.1925 H         1 UNK         0.0600 
    167 H167       -0.7168  -17.9103  -39.5020 H         1 UNK         0.0600 
    168 H168       -0.1660  -16.2421  -39.6044 H         1 UNK         0.0600 
    169 H169       -1.6289  -14.8042  -40.9921 H         1 UNK         0.3000 
    170 H170       -2.4261  -13.4948  -44.1745 H         1 UNK         0.0600 
    171 H171       -4.7004  -13.8834  -43.2075 H         1 UNK         0.0600 
    172 H172       -4.1181  -13.4045  -41.6175 H         1 UNK         0.0600 
    173 H173       -4.1641  -12.2334  -42.9363 H         1 UNK         0.0600 
    174 H174       -1.9452  -12.1670  -41.7341 H         1 UNK         0.3000 
    175 H175        0.0826  -10.9800  -41.6090 H         1 UNK         0.0600 
    176 H176       -0.1040  -12.7851  -39.8431 H         1 UNK         0.0600 
    177 H177        1.3825  -13.5200  -40.4328 H         1 UNK         0.0600 
    178 H178        1.4141  -11.9230  -39.6897 H         1 UNK         0.0600 
    179 H179        2.0692  -12.3473  -43.1490 H         1 UNK         0.3000 
    180 H180        4.4534   -9.6461  -42.7701 H         1 UNK         0.0600 
    181 H181        4.7082  -12.7031  -42.6265 H         1 UNK         0.0600 
    182 H182        5.2814  -11.5762  -41.4001 H         1 UNK         0.0600 
    183 H183        6.0062  -11.5737  -43.0014 H         1 UNK         0.0600 
    184 H184        2.9939  -11.4655  -44.5880 H         1 UNK         0.3000 
    185 H185        2.8662  -10.3833  -46.8482 H         1 UNK         0.0600 
    186 H186        4.5408   -8.7819  -47.7579 H         1 UNK         0.0600 
    187 H187        5.7370  -10.0684  -47.8742 H         1 UNK         0.0600 
    188 H188        4.2805  -10.1181  -48.8669 H         1 UNK         0.0600 
    189 H189        4.9130  -12.3362  -47.5394 H         1 UNK         0.3000 
    190 H190       -2.1120  -21.6564  -48.0174 H         1 UNK         0.3000 
    191 H191       -3.4267  -23.6143  -49.6335 H         1 UNK         0.0600 
    192 H192       -4.5078  -21.8429  -47.3747 H         1 UNK         0.0600 
    193 H193       -5.4856  -22.7385  -48.5310 H         1 UNK         0.0600 
    194 H194       -4.4593  -21.4259  -49.0879 H         1 UNK         0.0600 
    195 H195       -2.6264  -23.4300  -46.1664 H         1 UNK         0.3000 
    196 H196       -3.8849  -25.8266  -45.3255 H         1 UNK         0.0600 
    197 H197       -2.3759  -25.6220  -43.3583 H         1 UNK         0.0600 
    198 H198       -3.0635  -24.0580  -43.7730 H         1 UNK         0.0600 
    199 H199       -1.3961  -24.4318  -44.2048 H         1 UNK         0.0600 
    200 H200       -0.5767  -25.2492  -46.6178 H         1 UNK         0.3000 
    201 H201        0.3161  -27.9600  -46.3701 H         1 UNK         0.0600 
    202 H202        1.8933  -26.0679  -46.5199 H         1 UNK         0.0600 
    203 H203        1.3177  -25.6648  -48.1356 H         1 UNK         0.0600 
    204 H204        2.1727  -27.1771  -47.8534 H         1 UNK         0.0600 
    205 H205       -1.1105  -26.1059  -49.1007 H         1 UNK         0.3000 
    206 H206       -0.9549  -28.2301  -51.0107 H         1 UNK         0.0600 
    207 H207       -1.1087  -25.8278  -51.6352 H         1 UNK         0.0600 
    208 H208       -2.4347  -26.7306  -52.3528 H         1 UNK         0.0600 
    209 H209       -2.7257  -25.7288  -50.9364 H         1 UNK         0.0600 
    210 H210       -3.3947  -27.3263  -48.6425 H         1 UNK         0.3000 
    211 H211       -5.3415  -28.0794  -47.9626 H         1 UNK         0.0600 
    212 H212       -4.8378  -30.7037  -49.4653 H         1 UNK         0.0600 
    213 H213       -6.0228  -30.4284  -48.1978 H         1 UNK         0.0600 
    214 H214       -4.3091  -30.3611  -47.8183 H         1 UNK         0.0600 
    215 H215       -5.2040  -26.3382  -50.0665 H         1 UNK         0.3000 
    216 H216       -7.7056  -26.5307  -51.4383 H         1 UNK         0.0600 
    217 H217       -5.1077  -26.8491  -53.0736 H         1 UNK         0.0600 
    218 H218       -6.7044  -26.5755  -53.7617 H         1 UNK         0.0600 
    219 H219       -6.3630  -28.0748  -52.9216 H         1 UNK         0.0600 
    220 H220       -7.7642  -24.5834  -53.0428 H         1 UNK         0.3000 
    221 H221       -6.8936  -22.1870  -51.6620 H         1 UNK         0.0600 
    222 H222       -9.1243  -22.3426  -52.7142 H         1 UNK         0.0600 
    223 H223       -8.3965  -22.6026  -54.2995 H         1 UNK         0.0600 
    224 H224       -8.1869  -21.0656  -53.4689 H         1 UNK         0.0600 
    225 H225       -4.5763  -22.8739  -51.8419 H         1 UNK         0.3000 
    226 H226       -3.0193  -22.8022  -54.1599 H         1 UNK         0.0600 
    227 H227       -2.2083  -23.5410  -51.9180 H         1 UNK         0.0600 
    228 H228       -1.1411  -22.3212  -52.5934 H         1 UNK         0.0600 
    229 H229       -2.2856  -21.8812  -51.3293 H         1 UNK         0.0600 
    230 H230       -2.4811  -21.2437  -55.5598 H         1 UNK         0.3000 
    231 H231       -2.3510  -19.3359  -56.6674 H         1 UNK         0.0600 
    232 H232       -1.7039  -18.0136  -53.9779 H         1 UNK         0.0600 
    233 H233       -1.3357  -17.3675  -55.5696 H         1 UNK         0.0600 
    234 H234       -0.5393  -18.8303  -55.0159 H         1 UNK         0.0600 
    235 H235       -4.9429  -20.1518  -55.5265 H         1 UNK         0.3000 
    236 H236       -7.0573  -19.6719  -55.6366 H         1 UNK         0.0600 
    237 H237       -7.9854  -17.6466  -56.6554 H         1 UNK         0.0600 
    238 H238       -6.4358  -16.8272  -56.5812 H         1 UNK         0.0600 
    239 H239       -6.6472  -18.2267  -57.6347 H         1 UNK         0.0600 
    240 H240       -5.0165  -17.4730  -53.8108 H         1 UNK         0.3000 
    241 H241       -7.1287  -16.5908  -52.0307 H         1 UNK         0.0600 
    242 H242       -5.4752  -19.9047  -50.3511 H         1 UNK         0.3800 
    243 H243       -4.8415  -19.3744  -51.8939 H         1 UNK         0.3800 
    244 H244       -5.2101  -15.5428  -50.7244 H         1 UNK         0.0800 
    245 H245       -5.4740  -14.9826  -52.3408 H         1 UNK         0.0800 
    246 H246       -3.0669  -17.6515  -50.3739 H         1 UNK         0.0800 
    247 H247       -2.9948  -15.9782  -49.8694 H         1 UNK         0.0800 
@<TRIPOS>BOND
     1    1    2 1    
     2    1  127 1    
     3    1  128 1    
     4    1  129 1    
     5    2    3 2    
     6    2    4 am   BACKBONE|DICT|INTERRES
     7    4    5 1    
     8    4  130 1    
     9    5    6 1    
    10    5   65 1    
    11    5  131 1    
    12    6    7 1    
    13    6  132 1    
    14    6  133 1    
    15    7    8 1    
    16    8    9 1    
    17    8  134 1    
    18    8  135 1    
    19    9   10 ar   
    20    9   14 ar   
    21   10   11 ar   
    22   10  136 1    
    23   11   12 ar   
    24   11  126 1    
    25   12   13 ar   
    26   12  137 1    
    27   13   14 ar   
    28   13   15 1    
    29   14  138 1    
    30   15   16 1    
    31   15  139 1    
    32   15  140 1    
    33   16   17 1    
    34   17   18 1    
    35   17  141 1    
    36   17  142 1    
    37   18   19 1    
    38   18   67 1    
    39   18  143 1    
    40   19   20 am   BACKBONE|DICT|INTERRES
    41   19  144 1    
    42   20   21 2    
    43   20   22 1    
    44   22   23 1    
    45   22   24 1    
    46   22  145 1    
    47   23  146 1    
    48   23  147 1    
    49   23  148 1    
    50   24   25 am   BACKBONE|DICT|INTERRES
    51   24  149 1    
    52   25   26 2    
    53   25   27 1    
    54   27   28 1    
    55   27   29 1    
    56   27  150 1    
    57   28  151 1    
    58   28  152 1    
    59   28  153 1    
    60   29   30 am   BACKBONE|DICT|INTERRES
    61   29  154 1    
    62   30   31 2    
    63   30   32 1    
    64   32   33 1    
    65   32   34 1    
    66   32  155 1    
    67   33  156 1    
    68   33  157 1    
    69   33  158 1    
    70   34   35 am   BACKBONE|DICT|INTERRES
    71   34  159 1    
    72   35   36 2    
    73   35   37 1    
    74   37   38 1    
    75   37   39 1    
    76   37  160 1    
    77   38  161 1    
    78   38  162 1    
    79   38  163 1    
    80   39   40 am   BACKBONE|DICT|INTERRES
    81   39  164 1    
    82   40   41 2    
    83   40   42 1    
    84   42   43 1    
    85   42   44 1    
    86   42  165 1    
    87   43  166 1    
    88   43  167 1    
    89   43  168 1    
    90   44   45 am   BACKBONE|DICT|INTERRES
    91   44  169 1    
    92   45   46 2    
    93   45   47 1    
    94   47   48 1    
    95   47   49 1    
    96   47  170 1    
    97   48  171 1    
    98   48  172 1    
    99   48  173 1    
   100   49   50 am   BACKBONE|DICT|INTERRES
   101   49  174 1    
   102   50   51 2    
   103   50   52 1    
   104   52   53 1    
   105   52   54 1    
   106   52  175 1    
   107   53  176 1    
   108   53  177 1    
   109   53  178 1    
   110   54   55 am   BACKBONE|DICT|INTERRES
   111   54  179 1    
   112   55   56 2    
   113   55   57 1    
   114   57   58 1    
   115   57   59 1    
   116   57  180 1    
   117   58  181 1    
   118   58  182 1    
   119   58  183 1    
   120   59   60 am   BACKBONE|DICT|INTERRES
   121   59  184 1    
   122   60   61 2    
   123   60   62 1    
   124   62   63 1    
   125   62   64 1    
   126   62  185 1    
   127   63  186 1    
   128   63  187 1    
   129   63  188 1    
   130   64   65 am   BACKBONE|DICT|INTERRES
   131   64  189 1    
   132   65   66 2    
   133   67   68 2    
   134   67   69 am   BACKBONE|DICT|INTERRES
   135   69   70 1    
   136   69  190 1    
   137   70   71 1    
   138   70   72 1    
   139   70  191 1    
   140   71  192 1    
   141   71  193 1    
   142   71  194 1    
   143   72   73 2    
   144   72   74 am   BACKBONE|DICT|INTERRES
   145   74   75 1    
   146   74  195 1    
   147   75   76 1    
   148   75   77 1    
   149   75  196 1    
   150   76  197 1    
   151   76  198 1    
   152   76  199 1    
   153   77   78 2    
   154   77   79 am   BACKBONE|DICT|INTERRES
   155   79   80 1    
   156   79  200 1    
   157   80   81 1    
   158   80   82 1    
   159   80  201 1    
   160   81  202 1    
   161   81  203 1    
   162   81  204 1    
   163   82   83 2    
   164   82   84 am   BACKBONE|DICT|INTERRES
   165   84   85 1    
   166   84  205 1    
   167   85   86 1    
   168   85   87 1    
   169   85  206 1    
   170   86  207 1    
   171   86  208 1    
   172   86  209 1    
   173   87   88 2    
   174   87   89 am   BACKBONE|DICT|INTERRES
   175   89   90 1    
   176   89  210 1    
   177   90   91 1    
   178   90   92 1    
   179   90  211 1    
   180   91  212 1    
   181   91  213 1    
   182   91  214 1    
   183   92   93 2    
   184   92   94 am   BACKBONE|DICT|INTERRES
   185   94   95 1    
   186   94  215 1    
   187   95   96 1    
   188   95   97 1    
   189   95  216 1    
   190   96  217 1    
   191   96  218 1    
   192   96  219 1    
   193   97   98 2    
   194   97   99 am   BACKBONE|DICT|INTERRES
   195   99  100 1    
   196   99  220 1    
   197  100  101 1    
   198  100  102 1    
   199  100  221 1    
   200  101  222 1    
   201  101  223 1    
   202  101  224 1    
   203  102  103 2    
   204  102  104 am   BACKBONE|DICT|INTERRES
   205  104  105 1    
   206  104  225 1    
   207  105  106 1    
   208  105  107 1    
   209  105  226 1    
   210  106  227 1    
   211  106  228 1    
   212  106  229 1    
   213  107  108 2    
   214  107  109 am   BACKBONE|DICT|INTERRES
   215  109  110 1    
   216  109  230 1    
   217  110  111 1    
   218  110  112 1    
   219  110  231 1    
   220  111  232 1    
   221  111  233 1    
   222  111  234 1    
   223  112  113 2    
   224  112  114 am   BACKBONE|DICT|INTERRES
   225  114  115 1    
   226  114  235 1    
   227  115  116 1    
   228  115  117 1    
   229  115  236 1    
   230  116  237 1    
   231  116  238 1    
   232  116  239 1    
   233  117  118 2    
   234  117  119 am   BACKBONE|DICT|INTERRES
   235  119  120 1    
   236  119  240 1    
   237  120  121 1    
   238  120  124 1    
   239  120  241 1    
   240  121  122 am   BACKBONE|DICT|INTERRES
   241  121  123 2    
   242  122  242 1    
   243  122  243 1    
   244  124  125 1    
   245  124  244 1    
   246  124  245 1    
   247  125  126 1    
   248  126  246 1    
   249  126  247 1    
@<TRIPOS>SUBSTRUCTURE
     1 UNK         1 GROUP             0       ****    0 ROOT    
