@<TRIPOS>MOLECULE
3R540
247   249    1
SMALL
USER_CHARGES


@<TRIPOS>ATOM
      1 CA         -1.0744  -15.3881  -52.9252 C.3       0 UNK        -0.1800 
      2 C          -0.1609  -15.5798  -51.7235 C.2       0 UNK         0.5000 
      3 O           0.8664  -16.2500  -51.8317 O.2       0 UNK        -0.5000 
      4 N          -0.5255  -14.9912  -50.5779 N.am      1 UNK        -0.5000 
      5 CA          0.1583  -15.1133  -49.2828 C.3       1 UNK         0.1400 
      6 C6         -0.8067  -14.8345  -48.1024 C.3       23 UNK        -0.0398 
      7 S7         -2.0507  -16.1522  -47.9912 S.3       23 UNK        -0.2404 
      8 C8         -3.2742  -15.4297  -46.8665 C.3       23 UNK        -0.0205 
      9 C9         -4.2971  -16.4844  -46.4817 C.ar      23 UNK        -0.0193 
     10 C10        -5.5888  -16.4529  -47.0142 C.ar      23 UNK        -0.1150 
     11 C11        -6.5064  -17.4624  -46.7071 C.ar      23 UNK        -0.0193 
     12 C12        -6.1303  -18.4932  -45.8399 C.ar      23 UNK        -0.1150 
     13 C13        -4.8355  -18.5425  -45.3153 C.ar      23 UNK        -0.0193 
     14 C14        -3.9277  -17.5300  -45.6322 C.ar      23 UNK        -0.1150 
     15 C15        -4.3851  -19.7175  -44.4600 C.3       23 UNK        -0.0205 
     16 S16        -4.4694  -21.3166  -45.3260 S.3       23 UNK        -0.2404 
     17 C17        -3.6696  -20.9816  -46.9380 C.3       23 UNK        -0.0398 
     18 CA         -2.1791  -21.3747  -47.0792 C.3       11 UNK         0.1400 
     19 N          -1.2625  -20.4764  -46.3770 N.am      11 UNK        -0.5000 
     20 C          -0.3929  -19.6713  -47.0062 C.2       10 UNK         0.5000 
     21 O          -0.4452  -19.4164  -48.2084 O.2       10 UNK        -0.5000 
     22 CA          0.7775  -19.0888  -46.1881 C.3       10 UNK         0.1400 
     23 CB          0.6431  -17.5707  -46.0290 C.3       10 UNK        -0.1800 
     24 N           0.9771  -19.7181  -44.8798 N.am      10 UNK        -0.5000 
     25 C           1.3717  -20.9902  -44.7193 C.2       9 UNK         0.5000 
     26 O           1.5667  -21.7648  -45.6568 O.2       9 UNK        -0.5000 
     27 CA          1.5151  -21.5256  -43.2842 C.3       9 UNK         0.1400 
     28 CB          2.9719  -21.4148  -42.8128 C.3       9 UNK        -0.1800 
     29 N           0.6326  -20.9130  -42.2880 N.am      9 UNK        -0.5000 
     30 C          -0.7034  -20.8187  -42.3515 C.2       8 UNK         0.5000 
     31 O          -1.3607  -21.1333  -43.3481 O.2       8 UNK        -0.5000 
     32 CA         -1.4283  -20.3070  -41.0928 C.3       8 UNK         0.1400 
     33 CB         -0.4900  -19.8247  -39.9640 C.3       8 UNK        -0.1800 
     34 N          -2.3403  -19.2317  -41.4609 N.am      8 UNK        -0.5000 
     35 C          -3.4883  -18.9359  -40.8359 C.2       7 UNK         0.5000 
     36 O          -3.9318  -19.5927  -39.8924 O.2       7 UNK        -0.5000 
     37 CA         -4.2863  -17.7135  -41.3521 C.3       7 UNK         0.1400 
     38 CB         -4.9802  -16.9345  -40.2146 C.3       7 UNK        -0.1800 
     39 N          -3.5020  -16.8165  -42.2124 N.am      7 UNK        -0.5000 
     40 C          -2.4361  -16.0873  -41.8534 C.2       6 UNK         0.5000 
     41 O          -2.0227  -15.9765  -40.6969 O.2       6 UNK        -0.5000 
     42 CA         -1.6939  -15.3815  -43.0009 C.3       6 UNK         0.1400 
     43 CB         -2.1793  -13.9342  -43.1645 C.3       6 UNK        -0.1800 
     44 N          -0.2477  -15.3841  -42.8000 N.am      6 UNK        -0.5000 
     45 C           0.5308  -16.4705  -42.7257 C.2       5 UNK         0.5000 
     46 O           0.1124  -17.6233  -42.8701 O.2       5 UNK        -0.5000 
     47 CA          2.0371  -16.2073  -42.5157 C.3       5 UNK         0.1400 
     48 CB          2.8557  -17.5075  -42.4338 C.3       5 UNK        -0.1800 
     49 N           2.5974  -15.3729  -43.5818 N.am      5 UNK        -0.5000 
     50 C           2.4574  -14.0477  -43.7130 C.2       4 UNK         0.5000 
     51 O           1.8332  -13.3592  -42.9038 O.2       4 UNK        -0.5000 
     52 CA          3.0597  -13.3703  -44.9638 C.3       4 UNK         0.1400 
     53 CB          4.1122  -12.3114  -44.5802 C.3       4 UNK        -0.1800 
     54 N           3.5770  -14.2803  -45.9976 N.am      4 UNK        -0.5000 
     55 C           4.6533  -15.0827  -45.9481 C.2       3 UNK         0.5000 
     56 O           5.3535  -15.2234  -44.9463 O.2       3 UNK        -0.5000 
     57 CA          4.9937  -15.8970  -47.2151 C.3       3 UNK         0.1400 
     58 CB          4.6150  -17.3739  -47.0152 C.3       3 UNK        -0.1800 
     59 N           4.3333  -15.4069  -48.4265 N.am      3 UNK        -0.5000 
     60 C           4.6204  -14.2615  -49.0625 C.2       2 UNK         0.5000 
     61 O           5.5486  -13.5178  -48.7445 O.2       2 UNK        -0.5000 
     62 CA          3.6929  -13.8661  -50.2315 C.3       2 UNK         0.1400 
     63 CB          4.3370  -14.2278  -51.5781 C.3       2 UNK        -0.1800 
     64 N           2.3633  -14.4821  -50.1614 N.am      2 UNK        -0.5000 
     65 C           1.4523  -14.2722  -49.2024 C.2       1 UNK         0.5000 
     66 O           1.6322  -13.4919  -48.2655 O.2       1 UNK        -0.5000 
     67 C          -1.8917  -22.8430  -46.7154 C.2       11 UNK         0.5000 
     68 O          -1.9296  -23.6874  -47.6099 O.2       11 UNK        -0.5000 
     69 N          -1.5939  -23.1339  -45.4390 N.am      12 UNK        -0.5000 
     70 CA         -1.4695  -24.4999  -44.9243 C.3       12 UNK         0.1400 
     71 CB         -1.4422  -24.4730  -43.3888 C.3       12 UNK        -0.1800 
     72 C          -0.2655  -25.2812  -45.4820 C.2       12 UNK         0.5000 
     73 O          -0.4043  -26.4721  -45.7628 O.2       12 UNK        -0.5000 
     74 N           0.8809  -24.6080  -45.6497 N.am      13 UNK        -0.5000 
     75 CA          2.0911  -25.1925  -46.2350 C.3       13 UNK         0.1400 
     76 CB          3.3307  -24.6137  -45.5338 C.3       13 UNK        -0.1800 
     77 C           2.1583  -24.9433  -47.7522 C.2       13 UNK         0.5000 
     78 O           2.7701  -25.7330  -48.4716 O.2       13 UNK        -0.5000 
     79 N           1.5183  -23.8599  -48.2127 N.am      14 UNK        -0.5000 
     80 CA          1.4545  -23.4474  -49.6164 C.3       14 UNK         0.1400 
     81 CB          1.1078  -21.9530  -49.6575 C.3       14 UNK        -0.1800 
     82 C           0.4465  -24.2572  -50.4606 C.2       14 UNK         0.5000 
     83 O           0.4458  -24.1190  -51.6836 O.2       14 UNK        -0.5000 
     84 N          -0.3975  -25.0631  -49.7989 N.am      15 UNK        -0.5000 
     85 CA         -1.4901  -25.8680  -50.3563 C.3       15 UNK         0.1400 
     86 CB         -0.9610  -26.9620  -51.3073 C.3       15 UNK        -0.1800 
     87 C          -2.6214  -25.0061  -50.9571 C.2       15 UNK         0.5000 
     88 O          -3.1936  -25.3590  -51.9902 O.2       15 UNK        -0.5000 
     89 N          -2.9270  -23.9024  -50.2583 N.am      16 UNK        -0.5000 
     90 CA         -4.0352  -22.9621  -50.4396 C.3       16 UNK         0.1400 
     91 CB         -5.2962  -23.5201  -49.7484 C.3       16 UNK        -0.1800 
     92 C          -4.2800  -22.5343  -51.8993 C.2       16 UNK         0.5000 
     93 O          -3.6042  -21.6279  -52.3901 O.2       16 UNK        -0.5000 
     94 N          -5.2376  -23.1951  -52.5632 N.am      17 UNK        -0.5000 
     95 CA         -5.6484  -22.9644  -53.9477 C.3       17 UNK         0.1400 
     96 CB         -6.8704  -23.8422  -54.2559 C.3       17 UNK        -0.1800 
     97 C          -4.5376  -23.2036  -54.9880 C.2       17 UNK         0.5000 
     98 O          -4.5999  -22.6126  -56.0657 O.2       17 UNK        -0.5000 
     99 N          -3.5289  -24.0213  -54.6498 N.am      18 UNK        -0.5000 
    100 CA        -2.3446  -24.2540  -55.4815 C.3       18 UNK         0.1400 
    101 CB        -1.5336  -25.4191  -54.8986 C.3       18 UNK        -0.1800 
    102 C         -1.4575  -23.0005  -55.6156 C.2       18 UNK         0.5000 
    103 O         -0.8747  -22.7790  -56.6775 O.2       18 UNK        -0.5000 
    104 N         -1.3945  -22.1971  -54.5459 N.am      19 UNK        -0.5000 
    105 CA        -0.6960  -20.9117  -54.5025 C.3       19 UNK         0.1400 
    106 CB        -0.0696  -20.7519  -53.1094 C.3       19 UNK        -0.1800 
    107 C         -1.6334  -19.7266  -54.8029 C.2       19 UNK         0.5000 
    108 O         -1.1469  -18.6139  -55.0034 O.2       19 UNK        -0.5000 
    109 N         -2.9508  -19.9829  -54.7996 N.am      20 UNK        -0.5000 
    110 CA        -4.0554  -19.0210  -54.8562 C.3       20 UNK         0.1400 
    111 CB        -4.0848  -18.2810  -56.2094 C.3       20 UNK        -0.1800 
    112 C         -4.0490  -18.0744  -53.6374 C.2       20 UNK         0.5000 
    113 O         -4.2844  -16.8738  -53.7846 O.2       20 UNK        -0.5000 
    114 N         -3.7651  -18.6474  -52.4563 N.am      21 UNK        -0.5000 
    115 CA        -3.5396  -17.9655  -51.1772 C.3       21 UNK         0.1400 
    116 CB        -3.3815  -19.0263  -50.0764 C.3       21 UNK        -0.1800 
    117 C         -4.6288  -16.9455  -50.7968 C.2       21 UNK         0.5000 
    118 O         -4.3119  -15.8030  -50.4655 O.2       21 UNK        -0.5000 
    119 N         -5.8932  -17.3690  -50.9019 N.am      22 UNK        -0.5000 
    120 CA        -7.0734  -16.5384  -50.6156 C.3       22 UNK         0.1400 
    121 C         -7.4649  -15.5517  -51.7579 C.2       22 UNK         0.5000 
    122 N         -6.7518  -15.4893  -52.8768 N.am      22 UNK        -0.7600 
    123 O         -8.4382  -14.8150  -51.6237 O.2       22 UNK        -0.5000 
    124 C124       -8.2901  -17.3865  -50.1578 C.3       23 UNK        -0.0398 
    125 S125       -7.9230  -18.5570  -48.8025 S.3       23 UNK        -0.2404 
    126 C126       -7.8896  -17.4693  -47.3397 C.3       23 UNK        -0.0205 
    127 H127       -1.3205  -16.3541  -53.3661 H         1 UNK         0.0600 
    128 H128       -0.5780  -14.7832  -53.6836 H         1 UNK         0.0600 
    129 H129       -2.0090  -14.8980  -52.6503 H         1 UNK         0.0600 
    130 H130       -1.3805  -14.4534  -50.5595 H         1 UNK         0.3000 
    131 H131        0.4906  -16.1497  -49.1891 H         1 UNK         0.0600 
    132 H132       -1.2969  -13.8665  -48.2175 H         1 UNK         0.0800 
    133 H133       -0.2793  -14.8074  -47.1471 H         1 UNK         0.0800 
    134 H134       -3.7540  -14.5791  -47.3531 H         1 UNK         0.0800 
    135 H135       -2.7794  -15.0468  -45.9744 H         1 UNK         0.0800 
    136 H136       -5.8670  -15.6581  -47.6906 H         1 UNK         0.1150 
    137 H137       -6.8292  -19.2863  -45.6138 H         1 UNK         0.1150 
    138 H138       -2.9135  -17.5812  -45.2632 H         1 UNK         0.1150 
    139 H139       -5.0135  -19.7813  -43.5725 H         1 UNK         0.0800 
    140 H140       -3.3631  -19.5697  -44.1122 H         1 UNK         0.0800 
    141 H141       -4.2524  -21.5307  -47.6766 H         1 UNK         0.0800 
    142 H142       -3.7918  -19.9376  -47.2190 H         1 UNK         0.0800 
    143 H143       -1.9706  -21.3191  -48.1494 H         1 UNK         0.0600 
    144 H144       -1.1634  -20.6149  -45.3783 H         1 UNK         0.3000 
    145 H145        1.6818  -19.2748  -46.7716 H         1 UNK         0.0600 
    146 H146        0.6553  -17.0874  -47.0037 H         1 UNK         0.0600 
    147 H147        1.4736  -17.1564  -45.4610 H         1 UNK         0.0600 
    148 H148       -0.2889  -17.2963  -45.5348 H         1 UNK         0.0600 
    149 H149        0.7647  -19.1543  -44.0627 H         1 UNK         0.3000 
    150 H150        1.2650  -22.5863  -43.3197 H         1 UNK         0.0600 
    151 H151        3.2870  -20.3769  -42.7106 H         1 UNK         0.0600 
    152 H152        3.6498  -21.8943  -43.5206 H         1 UNK         0.0600 
    153 H153        3.1137  -21.9051  -41.8496 H         1 UNK         0.0600 
    154 H154        1.0800  -20.5993  -41.4395 H         1 UNK         0.3000 
    155 H155       -2.0074  -21.1541  -40.7201 H         1 UNK         0.0600 
    156 H156       -1.0609  -19.5048  -39.0922 H         1 UNK         0.0600 
    157 H157        0.1211  -18.9785  -40.2818 H         1 UNK         0.0600 
    158 H158        0.1759  -20.6203  -39.6278 H         1 UNK         0.0600 
    159 H159       -2.0280  -18.6508  -42.2271 H         1 UNK         0.3000 
    160 H160       -5.0782  -18.1148  -41.9838 H         1 UNK         0.0600 
    161 H161       -4.2691  -16.5827  -39.4670 H         1 UNK         0.0600 
    162 H162       -5.7066  -17.5631  -39.6983 H         1 UNK         0.0600 
    163 H163       -5.5195  -16.0692  -40.6000 H         1 UNK         0.0600 
    164 H164       -3.7832  -16.8079  -43.1827 H         1 UNK         0.3000 
    165 H165       -1.8890  -15.9206  -43.9284 H         1 UNK         0.0600 
    166 H166       -1.6872  -13.4456  -44.0058 H         1 UNK         0.0600 
    167 H167       -3.2534  -13.9003  -43.3519 H         1 UNK         0.0600 
    168 H168       -1.9821  -13.3418  -42.2700 H         1 UNK         0.0600 
    169 H169        0.2007  -14.4817  -42.6830 H         1 UNK         0.3000 
    170 H170        2.1440  -15.6842  -41.5633 H         1 UNK         0.0600 
    171 H171        3.9002  -17.2998  -42.2006 H         1 UNK         0.0600 
    172 H172        2.8284  -18.0588  -43.3739 H         1 UNK         0.0600 
    173 H173        2.4738  -18.1641  -41.6511 H         1 UNK         0.0600 
    174 H174        3.1502  -15.8487  -44.2788 H         1 UNK         0.3000 
    175 H175        2.2303  -12.8432  -45.4379 H         1 UNK         0.0600 
    176 H176        3.6800  -11.5491  -43.9309 H         1 UNK         0.0600 
    177 H177        4.9563  -12.7493  -44.0469 H         1 UNK         0.0600 
    178 H178        4.4992  -11.8026  -45.4632 H         1 UNK         0.0600 
    179 H179        3.0655  -14.2396  -46.8716 H         1 UNK         0.3000 
    180 H180        6.0737  -15.8347  -47.3631 H         1 UNK         0.0600 
    181 H181        4.9250  -17.9792  -47.8672 H         1 UNK         0.0600 
    182 H182        3.5400  -17.5005  -46.8877 H         1 UNK         0.0600 
    183 H183        5.1013  -17.7890  -46.1313 H         1 UNK         0.0600 
    184 H184        3.5714  -15.9642  -48.7824 H         1 UNK         0.3000 
    185 H185        3.5621  -12.7829  -50.1920 H         1 UNK         0.0600 
    186 H186        5.3189  -13.7637  -51.6802 H         1 UNK         0.0600 
    187 H187        4.4694  -15.3054  -51.6834 H         1 UNK         0.0600 
    188 H188        3.7266  -13.8818  -52.4126 H         1 UNK         0.0600 
    189 H189        2.1198  -15.1421  -50.8958 H         1 UNK         0.3000 
    190 H190       -1.6014  -22.3956  -44.7410 H         1 UNK         0.3000 
    191 H191       -2.3696  -25.0403  -45.2256 H         1 UNK         0.0600 
    192 H192       -2.3281  -23.9800  -42.9879 H         1 UNK         0.0600 
    193 H193       -1.4212  -25.4847  -42.9818 H         1 UNK         0.0600 
    194 H194       -0.5673  -23.9496  -43.0064 H         1 UNK         0.0600 
    195 H195        0.9154  -23.6151  -45.4474 H         1 UNK         0.3000 
    196 H196        2.0972  -26.2727  -46.0748 H         1 UNK         0.0600 
    197 H197        4.2372  -25.1120  -45.8795 H         1 UNK         0.0600 
    198 H198        3.2754  -24.7521  -44.4540 H         1 UNK         0.0600 
    199 H199        3.4530  -23.5489  -45.7307 H         1 UNK         0.0600 
    200 H200        1.0758  -23.2485  -47.5415 H         1 UNK         0.3000 
    201 H201        2.4427  -23.5819  -50.0610 H         1 UNK         0.0600 
    202 H202        1.2392  -21.5496  -50.6602 H         1 UNK         0.0600 
    203 H203        1.7484  -21.3728  -48.9927 H         1 UNK         0.0600 
    204 H204        0.0723  -21.7774  -49.3674 H         1 UNK         0.0600 
    205 H205       -0.3453  -25.0494  -48.7893 H         1 UNK         0.3000 
    206 H206       -1.9416  -26.3800  -49.5053 H         1 UNK         0.0600 
    207 H207       -0.2338  -27.5982  -50.8030 H         1 UNK         0.0600 
    208 H208       -1.7699  -27.6071  -51.6521 H         1 UNK         0.0600 
    209 H209       -0.4789  -26.5441  -52.1894 H         1 UNK         0.0600 
    210 H210       -2.3901  -23.7598  -49.4065 H         1 UNK         0.3000 
    211 H211       -3.7459  -22.0534  -49.9133 H         1 UNK         0.0600 
    212 H212       -5.5916  -24.4891  -50.1522 H         1 UNK         0.0600 
    213 H213       -6.1415  -22.8387  -49.8560 H         1 UNK         0.0600 
    214 H214       -5.1259  -23.6532  -48.6798 H         1 UNK         0.0600 
    215 H215       -5.7035  -23.9513  -52.0834 H         1 UNK         0.3000 
    216 H216       -5.9498  -21.9184  -54.0300 H         1 UNK         0.0600 
    217 H217       -7.2262  -23.6752  -55.2735 H         1 UNK         0.0600 
    218 H218       -6.6368  -24.9033  -54.1595 H         1 UNK         0.0600 
    219 H219       -7.6984  -23.6172  -53.5833 H         1 UNK         0.0600 
    220 H220       -3.5438  -24.4737  -53.7394 H         1 UNK         0.3000 
    221 H221       -2.6825  -24.5372  -56.4805 H         1 UNK         0.0600 
    222 H222       -1.1244  -25.1630  -53.9214 H         1 UNK         0.0600 
    223 H223       -2.1453  -26.3141  -54.7843 H         1 UNK         0.0600 
    224 H224       -0.6952  -25.6748  -55.5476 H         1 UNK         0.0600 
    225 H225       -1.9129  -22.4515  -53.7149 H         1 UNK         0.3000 
    226 H226        0.1071  -20.8939  -55.2421 H         1 UNK         0.0600 
    227 H227        0.4616  -19.8033  -53.0199 H         1 UNK         0.0600 
    228 H228       -0.8223  -20.7839  -52.3202 H         1 UNK         0.0600 
    229 H229        0.6511  -21.5471  -52.9206 H         1 UNK         0.0600 
    230 H230       -3.2208  -20.9357  -54.6020 H         1 UNK         0.3000 
    231 H231       -4.9733  -19.6056  -54.7827 H         1 UNK         0.0600 
    232 H232       -3.2297  -17.6155  -56.3294 H         1 UNK         0.0600 
    233 H233       -4.9852  -17.6725  -56.3001 H         1 UNK         0.0600 
    234 H234       -4.0833  -18.9843  -57.0421 H         1 UNK         0.0600 
    235 H235       -3.6069  -19.6505  -52.4521 H         1 UNK         0.3000 
    236 H236       -2.5970  -17.4227  -51.2605 H         1 UNK         0.0600 
    237 H237       -4.2757  -19.6424  -49.9796 H         1 UNK         0.0600 
    238 H238       -2.5362  -19.6843  -50.2797 H         1 UNK         0.0600 
    239 H239       -3.2010  -18.5620  -49.1075 H         1 UNK         0.0600 
    240 H240       -6.0705  -18.3148  -51.2036 H         1 UNK         0.3000 
    241 H241       -6.8167  -15.8923  -49.7758 H         1 UNK         0.0600 
    242 H242       -5.9133  -16.0465  -53.0056 H         1 UNK         0.3800 
    243 H243       -7.0252  -14.8390  -53.5960 H         1 UNK         0.3800 
    244 H244       -8.6725  -17.9682  -50.9981 H         1 UNK         0.0800 
    245 H245       -9.1130  -16.7428  -49.8421 H         1 UNK         0.0800 
    246 H246       -8.1919  -16.4550  -47.6037 H         1 UNK         0.0800 
    247 H247       -8.6236  -17.8262  -46.6157 H         1 UNK         0.0800 
@<TRIPOS>BOND
     1    1    2 1    
     2    1  127 1    
     3    1  128 1    
     4    1  129 1    
     5    2    3 2    
     6    2    4 am   BACKBONE|DICT|INTERRES
     7    4    5 1    
     8    4  130 1    
     9    5    6 1    
    10    5   65 1    
    11    5  131 1    
    12    6    7 1    
    13    6  132 1    
    14    6  133 1    
    15    7    8 1    
    16    8    9 1    
    17    8  134 1    
    18    8  135 1    
    19    9   10 ar   
    20    9   14 ar   
    21   10   11 ar   
    22   10  136 1    
    23   11   12 ar   
    24   11  126 1    
    25   12   13 ar   
    26   12  137 1    
    27   13   14 ar   
    28   13   15 1    
    29   14  138 1    
    30   15   16 1    
    31   15  139 1    
    32   15  140 1    
    33   16   17 1    
    34   17   18 1    
    35   17  141 1    
    36   17  142 1    
    37   18   19 1    
    38   18   67 1    
    39   18  143 1    
    40   19   20 am   BACKBONE|DICT|INTERRES
    41   19  144 1    
    42   20   21 2    
    43   20   22 1    
    44   22   23 1    
    45   22   24 1    
    46   22  145 1    
    47   23  146 1    
    48   23  147 1    
    49   23  148 1    
    50   24   25 am   BACKBONE|DICT|INTERRES
    51   24  149 1    
    52   25   26 2    
    53   25   27 1    
    54   27   28 1    
    55   27   29 1    
    56   27  150 1    
    57   28  151 1    
    58   28  152 1    
    59   28  153 1    
    60   29   30 am   BACKBONE|DICT|INTERRES
    61   29  154 1    
    62   30   31 2    
    63   30   32 1    
    64   32   33 1    
    65   32   34 1    
    66   32  155 1    
    67   33  156 1    
    68   33  157 1    
    69   33  158 1    
    70   34   35 am   BACKBONE|DICT|INTERRES
    71   34  159 1    
    72   35   36 2    
    73   35   37 1    
    74   37   38 1    
    75   37   39 1    
    76   37  160 1    
    77   38  161 1    
    78   38  162 1    
    79   38  163 1    
    80   39   40 am   BACKBONE|DICT|INTERRES
    81   39  164 1    
    82   40   41 2    
    83   40   42 1    
    84   42   43 1    
    85   42   44 1    
    86   42  165 1    
    87   43  166 1    
    88   43  167 1    
    89   43  168 1    
    90   44   45 am   BACKBONE|DICT|INTERRES
    91   44  169 1    
    92   45   46 2    
    93   45   47 1    
    94   47   48 1    
    95   47   49 1    
    96   47  170 1    
    97   48  171 1    
    98   48  172 1    
    99   48  173 1    
   100   49   50 am   BACKBONE|DICT|INTERRES
   101   49  174 1    
   102   50   51 2    
   103   50   52 1    
   104   52   53 1    
   105   52   54 1    
   106   52  175 1    
   107   53  176 1    
   108   53  177 1    
   109   53  178 1    
   110   54   55 am   BACKBONE|DICT|INTERRES
   111   54  179 1    
   112   55   56 2    
   113   55   57 1    
   114   57   58 1    
   115   57   59 1    
   116   57  180 1    
   117   58  181 1    
   118   58  182 1    
   119   58  183 1    
   120   59   60 am   BACKBONE|DICT|INTERRES
   121   59  184 1    
   122   60   61 2    
   123   60   62 1    
   124   62   63 1    
   125   62   64 1    
   126   62  185 1    
   127   63  186 1    
   128   63  187 1    
   129   63  188 1    
   130   64   65 am   BACKBONE|DICT|INTERRES
   131   64  189 1    
   132   65   66 2    
   133   67   68 2    
   134   67   69 am   BACKBONE|DICT|INTERRES
   135   69   70 1    
   136   69  190 1    
   137   70   71 1    
   138   70   72 1    
   139   70  191 1    
   140   71  192 1    
   141   71  193 1    
   142   71  194 1    
   143   72   73 2    
   144   72   74 am   BACKBONE|DICT|INTERRES
   145   74   75 1    
   146   74  195 1    
   147   75   76 1    
   148   75   77 1    
   149   75  196 1    
   150   76  197 1    
   151   76  198 1    
   152   76  199 1    
   153   77   78 2    
   154   77   79 am   BACKBONE|DICT|INTERRES
   155   79   80 1    
   156   79  200 1    
   157   80   81 1    
   158   80   82 1    
   159   80  201 1    
   160   81  202 1    
   161   81  203 1    
   162   81  204 1    
   163   82   83 2    
   164   82   84 am   BACKBONE|DICT|INTERRES
   165   84   85 1    
   166   84  205 1    
   167   85   86 1    
   168   85   87 1    
   169   85  206 1    
   170   86  207 1    
   171   86  208 1    
   172   86  209 1    
   173   87   88 2    
   174   87   89 am   BACKBONE|DICT|INTERRES
   175   89   90 1    
   176   89  210 1    
   177   90   91 1    
   178   90   92 1    
   179   90  211 1    
   180   91  212 1    
   181   91  213 1    
   182   91  214 1    
   183   92   93 2    
   184   92   94 am   BACKBONE|DICT|INTERRES
   185   94   95 1    
   186   94  215 1    
   187   95   96 1    
   188   95   97 1    
   189   95  216 1    
   190   96  217 1    
   191   96  218 1    
   192   96  219 1    
   193   97   98 2    
   194   97   99 am   BACKBONE|DICT|INTERRES
   195   99  100 1    
   196   99  220 1    
   197  100  101 1    
   198  100  102 1    
   199  100  221 1    
   200  101  222 1    
   201  101  223 1    
   202  101  224 1    
   203  102  103 2    
   204  102  104 am   BACKBONE|DICT|INTERRES
   205  104  105 1    
   206  104  225 1    
   207  105  106 1    
   208  105  107 1    
   209  105  226 1    
   210  106  227 1    
   211  106  228 1    
   212  106  229 1    
   213  107  108 2    
   214  107  109 am   BACKBONE|DICT|INTERRES
   215  109  110 1    
   216  109  230 1    
   217  110  111 1    
   218  110  112 1    
   219  110  231 1    
   220  111  232 1    
   221  111  233 1    
   222  111  234 1    
   223  112  113 2    
   224  112  114 am   BACKBONE|DICT|INTERRES
   225  114  115 1    
   226  114  235 1    
   227  115  116 1    
   228  115  117 1    
   229  115  236 1    
   230  116  237 1    
   231  116  238 1    
   232  116  239 1    
   233  117  118 2    
   234  117  119 am   BACKBONE|DICT|INTERRES
   235  119  120 1    
   236  119  240 1    
   237  120  121 1    
   238  120  124 1    
   239  120  241 1    
   240  121  122 am   BACKBONE|DICT|INTERRES
   241  121  123 2    
   242  122  242 1    
   243  122  243 1    
   244  124  125 1    
   245  124  244 1    
   246  124  245 1    
   247  125  126 1    
   248  126  246 1    
   249  126  247 1    
@<TRIPOS>SUBSTRUCTURE
     1 UNK         1 GROUP             0       ****    0 ROOT    
