@<TRIPOS>MOLECULE
3R540
247   249    1
SMALL
USER_CHARGES


@<TRIPOS>ATOM
      1 CA         -3.9304  -12.5090  -50.0043 C.3       0 UNK        -0.1800 
      2 C          -2.5556  -12.9109  -49.4896 C.2       0 UNK         0.5000 
      3 O          -1.8329  -12.0726  -48.9513 O.2       0 UNK        -0.5000 
      4 N          -2.1958  -14.1917  -49.6457 N.am      1 UNK        -0.5000 
      5 CA         -0.9039  -14.7589  -49.2326 C.3       1 UNK         0.1400 
      6 C6         -0.5878  -16.0809  -49.9721 C.3       23 UNK        -0.0398 
      7 S7         -0.2775  -15.7755  -51.7456 S.3       23 UNK        -0.2404 
      8 C8          1.5448  -15.7241  -51.7826 C.3       23 UNK        -0.0205 
      9 C9          2.1491  -17.0304  -52.2808 C.ar      23 UNK        -0.0193 
     10 C10         2.8348  -17.0623  -53.4967 C.ar      23 UNK        -0.1150 
     11 C11         3.3892  -18.2536  -53.9723 C.ar      23 UNK        -0.0193 
     12 C12         3.2611  -19.4196  -53.2127 C.ar      23 UNK        -0.1150 
     13 C13         2.6016  -19.4037  -51.9790 C.ar      23 UNK        -0.0193 
     14 C14         2.0457  -18.2010  -51.5243 C.ar      23 UNK        -0.1150 
     15 C15         2.4972  -20.7013  -51.1765 C.3       23 UNK        -0.0205 
     16 S16         2.5918  -20.4822  -49.3644 S.3       23 UNK        -0.2404 
     17 C17         0.8311  -20.2711  -48.9307 C.3       23 UNK        -0.0398 
     18 CA          0.2702  -21.5011  -48.1739 C.3       11 UNK         0.1400 
     19 N           0.8601  -21.6617  -46.8435 N.am      11 UNK        -0.5000 
     20 C           1.5913  -22.7217  -46.4759 C.2       10 UNK         0.5000 
     21 O           1.7660  -23.7158  -47.1817 O.2       10 UNK        -0.5000 
     22 CA          2.2842  -22.6659  -45.1049 C.3       10 UNK         0.1400 
     23 CB          3.6601  -21.9962  -45.2411 C.3       10 UNK        -0.1800 
     24 N           1.5121  -21.9906  -44.0617 N.am      10 UNK        -0.5000 
     25 C           0.4124  -22.4979  -43.4875 C.2       9 UNK         0.5000 
     26 O          -0.1293  -23.5435  -43.8459 O.2       9 UNK        -0.5000 
     27 CA         -0.1749  -21.7120  -42.3003 C.3       9 UNK         0.1400 
     28 CB          0.6685  -21.9230  -41.0334 C.3       9 UNK        -0.1800 
     29 N          -0.2936  -20.2820  -42.5733 N.am      9 UNK        -0.5000 
     30 C          -1.1442  -19.7610  -43.4663 C.2       8 UNK         0.5000 
     31 O          -1.9417  -20.4295  -44.1197 O.2       8 UNK        -0.5000 
     32 CA         -1.0551  -18.2462  -43.7128 C.3       8 UNK         0.1400 
     33 CB         -1.7521  -17.4642  -42.5903 C.3       8 UNK        -0.1800 
     34 N           0.3246  -17.7935  -43.8588 N.am      8 UNK        -0.5000 
     35 C           1.1675  -18.2116  -44.8136 C.2       7 UNK         0.5000 
     36 O           0.8466  -18.9833  -45.7196 O.2       7 UNK        -0.5000 
     37 CA          2.6234  -17.7274  -44.6989 C.3       7 UNK         0.1400 
     38 CB          2.7974  -16.3479  -45.3493 C.3       7 UNK        -0.1800 
     39 N           3.0788  -17.6702  -43.3080 N.am      7 UNK        -0.5000 
     40 C           3.2960  -18.7459  -42.5383 C.2       6 UNK         0.5000 
     41 O           3.1418  -19.9036  -42.9220 O.2       6 UNK        -0.5000 
     42 CA          3.7108  -18.4812  -41.0806 C.3       6 UNK         0.1400 
     43 CB          5.1911  -18.0794  -40.9966 C.3       6 UNK        -0.1800 
     44 N           2.8877  -17.4510  -40.4485 N.am      6 UNK        -0.5000 
     45 C           1.5779  -17.5799  -40.1949 C.2       5 UNK         0.5000 
     46 O           0.9313  -18.6002  -40.4326 O.2       5 UNK        -0.5000 
     47 CA          0.8618  -16.3416  -39.6223 C.3       5 UNK         0.1400 
     48 CB          0.9626  -16.3219  -38.0899 C.3       5 UNK        -0.1800 
     49 N           1.3578  -15.0689  -40.1591 N.am      5 UNK        -0.5000 
     50 C           1.3398  -14.7313  -41.4546 C.2       4 UNK         0.5000 
     51 O           0.9546  -15.4837  -42.3541 O.2       4 UNK        -0.5000 
     52 CA          1.8669  -13.3382  -41.8164 C.3       4 UNK         0.1400 
     53 CB          3.4032  -13.3288  -41.8814 C.3       4 UNK        -0.1800 
     54 N           1.3216  -12.9977  -43.1220 N.am      4 UNK        -0.5000 
     55 C           0.9994  -11.7794  -43.5629 C.2       3 UNK         0.5000 
     56 O           1.2085  -10.7436  -42.9301 O.2       3 UNK        -0.5000 
     57 CA          0.3231  -11.7071  -44.9458 C.3       3 UNK         0.1400 
     58 CB          1.3396  -11.2934  -46.0209 C.3       3 UNK        -0.1800 
     59 N          -0.2937  -12.9727  -45.3514 N.am      3 UNK        -0.5000 
     60 C          -1.4518  -13.4607  -44.8897 C.2       2 UNK         0.5000 
     61 O          -2.1375  -12.8813  -44.0461 O.2       2 UNK        -0.5000 
     62 CA         -1.9214  -14.8086  -45.4893 C.3       2 UNK         0.1400 
     63 CB         -3.3431  -15.1935  -45.0404 C.3       2 UNK        -0.1800 
     64 N          -1.8769  -14.8177  -46.9549 N.am      2 UNK        -0.5000 
     65 C          -0.7703  -14.9259  -47.7035 C.2       1 UNK         0.5000 
     66 O           0.3467  -15.1027  -47.2185 O.2       1 UNK        -0.5000 
     67 C          -1.2599  -21.4360  -48.0853 C.2       11 UNK         0.5000 
     68 O          -1.9287  -22.2634  -48.7059 O.2       11 UNK        -0.5000 
     69 N          -1.7962  -20.4422  -47.3605 N.am      12 UNK        -0.5000 
     70 CA         -3.2201  -20.0982  -47.4143 C.3       12 UNK         0.1400 
     71 CB         -3.4882  -18.7535  -46.7232 C.3       12 UNK        -0.1800 
     72 C          -4.1421  -21.2076  -46.8833 C.2       12 UNK         0.5000 
     73 O          -5.0212  -21.6621  -47.6149 O.2       12 UNK        -0.5000 
     74 N          -3.8967  -21.6438  -45.6435 N.am      13 UNK        -0.5000 
     75 CA         -4.6372  -22.7134  -44.9768 C.3       13 UNK         0.1400 
     76 CB         -4.3390  -22.6702  -43.4707 C.3       13 UNK        -0.1800 
     77 C          -4.3092  -24.1019  -45.5498 C.2       13 UNK         0.5000 
     78 O          -5.1887  -24.9630  -45.5892 O.2       13 UNK        -0.5000 
     79 N          -3.0612  -24.2896  -46.0047 N.am      14 UNK        -0.5000 
     80 CA         -2.5782  -25.5201  -46.6354 C.3       14 UNK         0.1400 
     81 CB         -1.0651  -25.4196  -46.8662 C.3       14 UNK        -0.1800 
     82 C          -3.3037  -25.8317  -47.9559 C.2       14 UNK         0.5000 
     83 O          -3.6206  -26.9922  -48.2175 O.2       14 UNK        -0.5000 
     84 N          -3.5963  -24.7817  -48.7330 N.am      15 UNK        -0.5000 
     85 CA         -4.3849  -24.8348  -49.9608 C.3       15 UNK         0.1400 
     86 CB         -3.6730  -24.0077  -51.0404 C.3       15 UNK        -0.1800 
     87 C          -5.8336  -24.3645  -49.7188 C.2       15 UNK         0.5000 
     88 O          -6.4273  -23.7434  -50.6040 O.2       15 UNK        -0.5000 
     89 N          -6.3672  -24.6576  -48.5225 N.am      16 UNK        -0.5000 
     90 CA         -7.7196  -24.4063  -48.0064 C.3       16 UNK         0.1400 
     91 CB         -8.7787  -25.1540  -48.8392 C.3       16 UNK        -0.1800 
     92 C          -8.0872  -22.9189  -47.8443 C.2       16 UNK         0.5000 
     93 O          -8.4803  -22.5029  -46.7536 O.2       16 UNK        -0.5000 
     94 N          -7.9578  -22.1553  -48.9297 N.am      17 UNK        -0.5000 
     95 CA         -8.2076  -20.7225  -49.0204 C.3       17 UNK         0.1400 
     96 CB         -9.7053  -20.4655  -49.2765 C.3       17 UNK        -0.1800 
     97 C          -7.2888  -20.1227  -50.0983 C.2       17 UNK         0.5000 
     98 O          -7.7495  -19.3670  -50.9552 O.2       17 UNK        -0.5000 
     99 N          -6.0018  -20.4994  -50.0424 N.am      18 UNK        -0.5000 
    100 CA        -4.9135  -20.0818  -50.9348 C.3       18 UNK         0.1400 
    101 CB        -4.6340  -18.5713  -50.7664 C.3       18 UNK        -0.1800 
    102 C         -5.1272  -20.4892  -52.4099 C.2       18 UNK         0.5000 
    103 O         -4.6804  -19.7790  -53.3107 O.2       18 UNK        -0.5000 
    104 N         -5.7918  -21.6315  -52.6415 N.am      19 UNK        -0.5000 
    105 CA        -6.2080  -22.0988  -53.9687 C.3       19 UNK         0.1400 
    106 CB        -7.1553  -23.2964  -53.7996 C.3       19 UNK        -0.1800 
    107 C         -5.0463  -22.4650  -54.9147 C.2       19 UNK         0.5000 
    108 O         -5.2049  -22.3659  -56.1319 O.2       19 UNK        -0.5000 
    109 N         -3.9113  -22.8812  -54.3405 N.am      20 UNK        -0.5000 
    110 CA        -2.6962  -23.2848  -55.0525 C.3       20 UNK         0.1400 
    111 CB        -2.2702  -24.6723  -54.5422 C.3       20 UNK        -0.1800 
    112 C         -1.5528  -22.2642  -54.8857 C.2       20 UNK         0.5000 
    113 O         -0.4533  -22.5082  -55.3851 O.2       20 UNK        -0.5000 
    114 N         -1.8099  -21.1516  -54.1847 N.am      21 UNK        -0.5000 
    115 CA        -0.8624  -20.0532  -54.0051 C.3       21 UNK         0.1400 
    116 CB        -1.2797  -19.2499  -52.7672 C.3       21 UNK        -0.1800 
    117 C         -0.8235  -19.1549  -55.2560 C.2       21 UNK         0.5000 
    118 O         -1.7819  -19.1396  -56.0335 O.2       21 UNK        -0.5000 
    119 N          0.2791  -18.4174  -55.4289 N.am      22 UNK        -0.5000 
    120 CA         0.5148  -17.5625  -56.6077 C.3       22 UNK         0.1400 
    121 C         -0.2976  -16.2339  -56.6229 C.2       22 UNK         0.5000 
    122 N         -0.9040  -15.8106  -55.5203 N.am      22 UNK        -0.7600 
    123 O         -0.3793  -15.5763  -57.6567 O.2       22 UNK        -0.5000 
    124 C124        2.0194  -17.2761  -56.8609 C.3       23 UNK        -0.0398 
    125 S125        3.0983  -18.7436  -56.7020 S.3       23 UNK        -0.2404 
    126 C126        4.1523  -18.2766  -55.2901 C.3       23 UNK        -0.0205 
    127 H127       -3.8343  -11.7293  -50.7599 H         1 UNK         0.0600 
    128 H128       -4.4590  -13.3516  -50.4508 H         1 UNK         0.0600 
    129 H129       -4.5381  -12.1204  -49.1872 H         1 UNK         0.0600 
    130 H130       -2.8242  -14.8282  -50.1149 H         1 UNK         0.3000 
    131 H131       -0.1290  -14.0394  -49.5077 H         1 UNK         0.0600 
    132 H132       -1.4138  -16.7872  -49.8743 H         1 UNK         0.0800 
    133 H133        0.2819  -16.5754  -49.5373 H         1 UNK         0.0800 
    134 H134        1.8433  -14.8987  -52.4306 H         1 UNK         0.0800 
    135 H135        1.9460  -15.4859  -50.7966 H         1 UNK         0.0800 
    136 H136        2.9437  -16.1521  -54.0683 H         1 UNK         0.1150 
    137 H137        3.6906  -20.3414  -53.5804 H         1 UNK         0.1150 
    138 H138        1.5273  -18.1683  -50.5800 H         1 UNK         0.1150 
    139 H139        1.5773  -21.2210  -51.4472 H         1 UNK         0.0800 
    140 H140        3.3132  -21.3678  -51.4602 H         1 UNK         0.0800 
    141 H141        0.2599  -20.0874  -49.8425 H         1 UNK         0.0800 
    142 H142        0.7348  -19.3652  -48.3310 H         1 UNK         0.0800 
    143 H143        0.4885  -22.3754  -48.7912 H         1 UNK         0.0600 
    144 H144        0.8003  -20.8609  -46.2213 H         1 UNK         0.3000 
    145 H145        2.4471  -23.6963  -44.7817 H         1 UNK         0.0600 
    146 H146        4.2165  -22.0427  -44.3050 H         1 UNK         0.0600 
    147 H147        4.2644  -22.4919  -46.0021 H         1 UNK         0.0600 
    148 H148        3.5682  -20.9478  -45.5273 H         1 UNK         0.0600 
    149 H149        1.9206  -21.1412  -43.6799 H         1 UNK         0.3000 
    150 H150       -1.1756  -22.1027  -42.1052 H         1 UNK         0.0600 
    151 H151        0.7679  -22.9841  -40.8014 H         1 UNK         0.0600 
    152 H152        0.2072  -21.4425  -40.1704 H         1 UNK         0.0600 
    153 H153        1.6732  -21.5137  -41.1438 H         1 UNK         0.0600 
    154 H154        0.3086  -19.6616  -42.0418 H         1 UNK         0.3000 
    155 H155       -1.5626  -18.0210  -44.6504 H         1 UNK         0.0600 
    156 H156       -1.3392  -17.7073  -41.6120 H         1 UNK         0.0600 
    157 H157       -2.8174  -17.6958  -42.5616 H         1 UNK         0.0600 
    158 H158       -1.6547  -16.3883  -42.7319 H         1 UNK         0.0600 
    159 H159        0.6562  -17.1119  -43.1807 H         1 UNK         0.3000 
    160 H160        3.2548  -18.4384  -45.2355 H         1 UNK         0.0600 
    161 H161        3.8275  -16.0000  -45.2722 H         1 UNK         0.0600 
    162 H162        2.1531  -15.5973  -44.8904 H         1 UNK         0.0600 
    163 H163        2.5496  -16.3898  -46.4104 H         1 UNK         0.0600 
    164 H164        3.1704  -16.7534  -42.8976 H         1 UNK         0.3000 
    165 H165        3.5779  -19.4108  -40.5229 H         1 UNK         0.0600 
    166 H166        5.5115  -17.9719  -39.9602 H         1 UNK         0.0600 
    167 H167        5.8271  -18.8378  -41.4552 H         1 UNK         0.0600 
    168 H168        5.3851  -17.1354  -41.5074 H         1 UNK         0.0600 
    169 H169        3.3379  -16.5767  -40.2223 H         1 UNK         0.3000 
    170 H170       -0.1933  -16.4213  -39.8906 H         1 UNK         0.0600 
    171 H171        0.5814  -17.2499  -37.6616 H         1 UNK         0.0600 
    172 H172        1.9940  -16.2049  -37.7550 H         1 UNK         0.0600 
    173 H173        0.3767  -15.5061  -37.6662 H         1 UNK         0.0600 
    174 H174        1.7005  -14.4009  -39.4835 H         1 UNK         0.3000 
    175 H175        1.5170  -12.6249  -41.0673 H         1 UNK         0.0600 
    176 H176        3.7791  -14.0427  -42.6157 H         1 UNK         0.0600 
    177 H177        3.7788  -12.3423  -42.1537 H         1 UNK         0.0600 
    178 H178        3.8401  -13.5864  -40.9159 H         1 UNK         0.0600 
    179 H179        1.0530  -13.8024  -43.6733 H         1 UNK         0.3000 
    180 H180       -0.4540  -10.9417  -44.8950 H         1 UNK         0.0600 
    181 H181        2.1373  -12.0302  -46.1246 H         1 UNK         0.0600 
    182 H182        1.8039  -10.3377  -45.7740 H         1 UNK         0.0600 
    183 H183        0.8593  -11.1794  -46.9933 H         1 UNK         0.0600 
    184 H184        0.2026  -13.5256  -46.0430 H         1 UNK         0.3000 
    185 H185       -1.2353  -15.5715  -45.1174 H         1 UNK         0.0600 
    186 H186       -3.4207  -15.2273  -43.9533 H         1 UNK         0.0600 
    187 H187       -4.0839  -14.4777  -45.3985 H         1 UNK         0.0600 
    188 H188       -3.6227  -16.1784  -45.4119 H         1 UNK         0.0600 
    189 H189       -2.7464  -14.6241  -47.4295 H         1 UNK         0.3000 
    190 H190       -1.1929  -19.8342  -46.8238 H         1 UNK         0.3000 
    191 H191       -3.4576  -19.9616  -48.4677 H         1 UNK         0.0600 
    192 H192       -3.4281  -18.8323  -45.6392 H         1 UNK         0.0600 
    193 H193       -4.4915  -18.3970  -46.9592 H         1 UNK         0.0600 
    194 H194       -2.7862  -17.9867  -47.0520 H         1 UNK         0.0600 
    195 H195       -3.1428  -21.2088  -45.1101 H         1 UNK         0.3000 
    196 H196       -5.7050  -22.5347  -45.1223 H         1 UNK         0.0600 
    197 H197       -4.6018  -21.7021  -43.0440 H         1 UNK         0.0600 
    198 H198       -3.2827  -22.8498  -43.2665 H         1 UNK         0.0600 
    199 H199       -4.9117  -23.4294  -42.9366 H         1 UNK         0.0600 
    200 H200       -2.4038  -23.5275  -45.9265 H         1 UNK         0.3000 
    201 H201       -2.7660  -26.3460  -45.9462 H         1 UNK         0.0600 
    202 H202       -0.8166  -24.6005  -47.5414 H         1 UNK         0.0600 
    203 H203       -0.6746  -26.3370  -47.3079 H         1 UNK         0.0600 
    204 H204       -0.5305  -25.2583  -45.9304 H         1 UNK         0.0600 
    205 H205       -3.2700  -23.8617  -48.4553 H         1 UNK         0.3000 
    206 H206       -4.4466  -25.8624  -50.3241 H         1 UNK         0.0600 
    207 H207       -4.1739  -24.1327  -51.9986 H         1 UNK         0.0600 
    208 H208       -3.6618  -22.9470  -50.7930 H         1 UNK         0.0600 
    209 H209       -2.6397  -24.3313  -51.1655 H         1 UNK         0.0600 
    210 H210       -5.7529  -25.1025  -47.8530 H         1 UNK         0.3000 
    211 H211       -7.7319  -24.8384  -47.0044 H         1 UNK         0.0600 
    212 H212       -8.8216  -24.7938  -49.8675 H         1 UNK         0.0600 
    213 H213       -9.7726  -25.0266  -48.4085 H         1 UNK         0.0600 
    214 H214       -8.5721  -26.2237  -48.8682 H         1 UNK         0.0600 
    215 H215       -7.5638  -22.5985  -49.7571 H         1 UNK         0.3000 
    216 H216       -7.9288  -20.2502  -48.0762 H         1 UNK         0.0600 
    217 H217       -9.9169  -19.3969  -49.3289 H         1 UNK         0.0600 
    218 H218      -10.3198  -20.8770  -48.4756 H         1 UNK         0.0600 
    219 H219      -10.0328  -20.9150  -50.2146 H         1 UNK         0.0600 
    220 H220       -5.7313  -21.1104  -49.2738 H         1 UNK         0.3000 
    221 H221       -4.0246  -20.6197  -50.6056 H         1 UNK         0.0600 
    222 H222       -5.4197  -17.9644  -51.2174 H         1 UNK         0.0600 
    223 H223       -4.5631  -18.2893  -49.7165 H         1 UNK         0.0600 
    224 H224       -3.6945  -18.2875  -51.2382 H         1 UNK         0.0600 
    225 H225       -6.1008  -22.1916  -51.8536 H         1 UNK         0.3000 
    226 H226       -6.7679  -21.2889  -54.4410 H         1 UNK         0.0600 
    227 H227       -8.0147  -23.0367  -53.1810 H         1 UNK         0.0600 
    228 H228       -7.5383  -23.6320  -54.7641 H         1 UNK         0.0600 
    229 H229       -6.6515  -24.1441  -53.3336 H         1 UNK         0.0600 
    230 H230       -3.8776  -22.9242  -53.3332 H         1 UNK         0.3000 
    231 H231       -2.8928  -23.3666  -56.1233 H         1 UNK         0.0600 
    232 H232       -3.0793  -25.3960  -54.6430 H         1 UNK         0.0600 
    233 H233       -1.9729  -24.6435  -53.4939 H         1 UNK         0.0600 
    234 H234       -1.4222  -25.0555  -55.1112 H         1 UNK         0.0600 
    235 H235       -2.7653  -20.9637  -53.9127 H         1 UNK         0.3000 
    236 H236        0.1344  -20.4656  -53.8330 H         1 UNK         0.0600 
    237 H237       -0.5136  -18.5234  -52.5091 H         1 UNK         0.0600 
    238 H238       -2.2035  -18.6996  -52.9437 H         1 UNK         0.0600 
    239 H239       -1.4236  -19.8926  -51.8984 H         1 UNK         0.0600 
    240 H240        1.0331  -18.4674  -54.7580 H         1 UNK         0.3000 
    241 H241        0.1638  -18.1266  -57.4744 H         1 UNK         0.0600 
    242 H242       -1.4284  -14.9505  -55.5424 H         1 UNK         0.3800 
    243 H243       -0.8363  -16.3346  -54.6626 H         1 UNK         0.3800 
    244 H244        2.1502  -16.8869  -57.8721 H         1 UNK         0.0800 
    245 H245        2.3773  -16.4842  -56.2047 H         1 UNK         0.0800 
    246 H246        4.9762  -18.9885  -55.2206 H         1 UNK         0.0800 
    247 H247        4.6123  -17.3059  -55.4819 H         1 UNK         0.0800 
@<TRIPOS>BOND
     1    1    2 1    
     2    1  127 1    
     3    1  128 1    
     4    1  129 1    
     5    2    3 2    
     6    2    4 am   BACKBONE|DICT|INTERRES
     7    4    5 1    
     8    4  130 1    
     9    5    6 1    
    10    5   65 1    
    11    5  131 1    
    12    6    7 1    
    13    6  132 1    
    14    6  133 1    
    15    7    8 1    
    16    8    9 1    
    17    8  134 1    
    18    8  135 1    
    19    9   10 ar   
    20    9   14 ar   
    21   10   11 ar   
    22   10  136 1    
    23   11   12 ar   
    24   11  126 1    
    25   12   13 ar   
    26   12  137 1    
    27   13   14 ar   
    28   13   15 1    
    29   14  138 1    
    30   15   16 1    
    31   15  139 1    
    32   15  140 1    
    33   16   17 1    
    34   17   18 1    
    35   17  141 1    
    36   17  142 1    
    37   18   19 1    
    38   18   67 1    
    39   18  143 1    
    40   19   20 am   BACKBONE|DICT|INTERRES
    41   19  144 1    
    42   20   21 2    
    43   20   22 1    
    44   22   23 1    
    45   22   24 1    
    46   22  145 1    
    47   23  146 1    
    48   23  147 1    
    49   23  148 1    
    50   24   25 am   BACKBONE|DICT|INTERRES
    51   24  149 1    
    52   25   26 2    
    53   25   27 1    
    54   27   28 1    
    55   27   29 1    
    56   27  150 1    
    57   28  151 1    
    58   28  152 1    
    59   28  153 1    
    60   29   30 am   BACKBONE|DICT|INTERRES
    61   29  154 1    
    62   30   31 2    
    63   30   32 1    
    64   32   33 1    
    65   32   34 1    
    66   32  155 1    
    67   33  156 1    
    68   33  157 1    
    69   33  158 1    
    70   34   35 am   BACKBONE|DICT|INTERRES
    71   34  159 1    
    72   35   36 2    
    73   35   37 1    
    74   37   38 1    
    75   37   39 1    
    76   37  160 1    
    77   38  161 1    
    78   38  162 1    
    79   38  163 1    
    80   39   40 am   BACKBONE|DICT|INTERRES
    81   39  164 1    
    82   40   41 2    
    83   40   42 1    
    84   42   43 1    
    85   42   44 1    
    86   42  165 1    
    87   43  166 1    
    88   43  167 1    
    89   43  168 1    
    90   44   45 am   BACKBONE|DICT|INTERRES
    91   44  169 1    
    92   45   46 2    
    93   45   47 1    
    94   47   48 1    
    95   47   49 1    
    96   47  170 1    
    97   48  171 1    
    98   48  172 1    
    99   48  173 1    
   100   49   50 am   BACKBONE|DICT|INTERRES
   101   49  174 1    
   102   50   51 2    
   103   50   52 1    
   104   52   53 1    
   105   52   54 1    
   106   52  175 1    
   107   53  176 1    
   108   53  177 1    
   109   53  178 1    
   110   54   55 am   BACKBONE|DICT|INTERRES
   111   54  179 1    
   112   55   56 2    
   113   55   57 1    
   114   57   58 1    
   115   57   59 1    
   116   57  180 1    
   117   58  181 1    
   118   58  182 1    
   119   58  183 1    
   120   59   60 am   BACKBONE|DICT|INTERRES
   121   59  184 1    
   122   60   61 2    
   123   60   62 1    
   124   62   63 1    
   125   62   64 1    
   126   62  185 1    
   127   63  186 1    
   128   63  187 1    
   129   63  188 1    
   130   64   65 am   BACKBONE|DICT|INTERRES
   131   64  189 1    
   132   65   66 2    
   133   67   68 2    
   134   67   69 am   BACKBONE|DICT|INTERRES
   135   69   70 1    
   136   69  190 1    
   137   70   71 1    
   138   70   72 1    
   139   70  191 1    
   140   71  192 1    
   141   71  193 1    
   142   71  194 1    
   143   72   73 2    
   144   72   74 am   BACKBONE|DICT|INTERRES
   145   74   75 1    
   146   74  195 1    
   147   75   76 1    
   148   75   77 1    
   149   75  196 1    
   150   76  197 1    
   151   76  198 1    
   152   76  199 1    
   153   77   78 2    
   154   77   79 am   BACKBONE|DICT|INTERRES
   155   79   80 1    
   156   79  200 1    
   157   80   81 1    
   158   80   82 1    
   159   80  201 1    
   160   81  202 1    
   161   81  203 1    
   162   81  204 1    
   163   82   83 2    
   164   82   84 am   BACKBONE|DICT|INTERRES
   165   84   85 1    
   166   84  205 1    
   167   85   86 1    
   168   85   87 1    
   169   85  206 1    
   170   86  207 1    
   171   86  208 1    
   172   86  209 1    
   173   87   88 2    
   174   87   89 am   BACKBONE|DICT|INTERRES
   175   89   90 1    
   176   89  210 1    
   177   90   91 1    
   178   90   92 1    
   179   90  211 1    
   180   91  212 1    
   181   91  213 1    
   182   91  214 1    
   183   92   93 2    
   184   92   94 am   BACKBONE|DICT|INTERRES
   185   94   95 1    
   186   94  215 1    
   187   95   96 1    
   188   95   97 1    
   189   95  216 1    
   190   96  217 1    
   191   96  218 1    
   192   96  219 1    
   193   97   98 2    
   194   97   99 am   BACKBONE|DICT|INTERRES
   195   99  100 1    
   196   99  220 1    
   197  100  101 1    
   198  100  102 1    
   199  100  221 1    
   200  101  222 1    
   201  101  223 1    
   202  101  224 1    
   203  102  103 2    
   204  102  104 am   BACKBONE|DICT|INTERRES
   205  104  105 1    
   206  104  225 1    
   207  105  106 1    
   208  105  107 1    
   209  105  226 1    
   210  106  227 1    
   211  106  228 1    
   212  106  229 1    
   213  107  108 2    
   214  107  109 am   BACKBONE|DICT|INTERRES
   215  109  110 1    
   216  109  230 1    
   217  110  111 1    
   218  110  112 1    
   219  110  231 1    
   220  111  232 1    
   221  111  233 1    
   222  111  234 1    
   223  112  113 2    
   224  112  114 am   BACKBONE|DICT|INTERRES
   225  114  115 1    
   226  114  235 1    
   227  115  116 1    
   228  115  117 1    
   229  115  236 1    
   230  116  237 1    
   231  116  238 1    
   232  116  239 1    
   233  117  118 2    
   234  117  119 am   BACKBONE|DICT|INTERRES
   235  119  120 1    
   236  119  240 1    
   237  120  121 1    
   238  120  124 1    
   239  120  241 1    
   240  121  122 am   BACKBONE|DICT|INTERRES
   241  121  123 2    
   242  122  242 1    
   243  122  243 1    
   244  124  125 1    
   245  124  244 1    
   246  124  245 1    
   247  125  126 1    
   248  126  246 1    
   249  126  247 1    
@<TRIPOS>SUBSTRUCTURE
     1 UNK         1 GROUP             0       ****    0 ROOT    
