@<TRIPOS>MOLECULE
3R540
247   249    1
SMALL
USER_CHARGES


@<TRIPOS>ATOM
      1 CA         -3.5552  -11.2540  -47.9014 C.3       0 UNK        -0.1800 
      2 C          -2.1050  -11.3498  -48.3528 C.2       0 UNK         0.5000 
      3 O          -1.3758  -10.3591  -48.2953 O.2       0 UNK        -0.5000 
      4 N          -1.6755  -12.5416  -48.7857 N.am      1 UNK        -0.5000 
      5 CA         -0.3140  -12.8550  -49.2352 C.3       1 UNK         0.1400 
      6 C6         -0.3265  -14.0787  -50.1870 C.3       23 UNK        -0.0398 
      7 S7          1.2230  -14.2768  -51.1331 S.3       23 UNK        -0.2404 
      8 C8          0.6976  -15.4115  -52.4589 C.3       23 UNK        -0.0205 
      9 C9          0.0718  -16.6896  -51.9170 C.ar      23 UNK        -0.0193 
     10 C10        -1.3083  -16.8905  -52.0175 C.ar      23 UNK        -0.1150 
     11 C11        -1.8991  -18.0619  -51.5290 C.ar      23 UNK        -0.0193 
     12 C12        -1.0878  -19.0264  -50.9243 C.ar      23 UNK        -0.1150 
     13 C13         0.2880  -18.8245  -50.7863 C.ar      23 UNK        -0.0193 
     14 C14         0.8662  -17.6615  -51.3017 C.ar      23 UNK        -0.1150 
     15 C15         1.1390  -19.8577  -50.0647 C.3       23 UNK        -0.0205 
     16 S16         1.3188  -19.4416  -48.2992 S.3       23 UNK        -0.2404 
     17 C17         1.2769  -21.1037  -47.5323 C.3       23 UNK        -0.0398 
     18 CA         -0.0866  -21.6174  -46.9731 C.3       11 UNK         0.1400 
     19 N          -0.2046  -21.4858  -45.5163 N.am      11 UNK        -0.5000 
     20 C          -1.1116  -22.1487  -44.7807 C.2       10 UNK         0.5000 
     21 O          -1.9142  -22.9529  -45.2551 O.2       10 UNK        -0.5000 
     22 CA         -1.1700  -21.8364  -43.2747 C.3       10 UNK         0.1400 
     23 CB         -0.0597  -22.5754  -42.5135 C.3       10 UNK        -0.1800 
     24 N          -1.0990  -20.4038  -42.9931 N.am      10 UNK        -0.5000 
     25 C          -2.0208  -19.5085  -43.3768 C.2       9 UNK         0.5000 
     26 O          -3.0589  -19.8053  -43.9674 O.2       9 UNK        -0.5000 
     27 CA         -1.7015  -18.0274  -43.1029 C.3       9 UNK         0.1400 
     28 CB         -2.0009  -17.6684  -41.6404 C.3       9 UNK        -0.1800 
     29 N          -0.3127  -17.6941  -43.4224 N.am      9 UNK        -0.5000 
     30 C           0.2277  -17.8014  -44.6450 C.2       8 UNK         0.5000 
     31 O          -0.4148  -18.1152  -45.6440 O.2       8 UNK        -0.5000 
     32 CA          1.7441  -17.5789  -44.7621 C.3       8 UNK         0.1400 
     33 CB          2.0749  -16.0883  -44.8585 C.3       8 UNK        -0.1800 
     34 N           2.4701  -18.1619  -43.6372 N.am      8 UNK        -0.5000 
     35 C           2.6296  -19.4770  -43.4439 C.2       7 UNK         0.5000 
     36 O           2.2103  -20.3382  -44.2167 O.2       7 UNK        -0.5000 
     37 CA          3.3428  -19.8947  -42.1454 C.3       7 UNK         0.1400 
     38 CB          4.8675  -19.8471  -42.3239 C.3       7 UNK        -0.1800 
     39 N           2.9596  -19.0591  -41.0051 N.am      7 UNK        -0.5000 
     40 C           1.7355  -19.0504  -40.4595 C.2       6 UNK         0.5000 
     41 O           0.8122  -19.7665  -40.8460 O.2       6 UNK        -0.5000 
     42 CA          1.4910  -18.0458  -39.3185 C.3       6 UNK         0.1400 
     43 CB          1.9287  -18.6418  -37.9723 C.3       6 UNK        -0.1800 
     44 N           2.1528  -16.7519  -39.5167 N.am      6 UNK        -0.5000 
     45 C           1.8847  -15.9084  -40.5219 C.2       5 UNK         0.5000 
     46 O           1.1106  -16.1708  -41.4446 O.2       5 UNK        -0.5000 
     47 CA          2.6304  -14.5635  -40.5168 C.3       5 UNK         0.1400 
     48 CB          3.8340  -14.6095  -41.4703 C.3       5 UNK        -0.1800 
     49 N           1.7315  -13.4884  -40.9302 N.am      5 UNK        -0.5000 
     50 C           0.8288  -12.9056  -40.1260 C.2       4 UNK         0.5000 
     51 O           0.7521  -13.1251  -38.9163 O.2       4 UNK        -0.5000 
     52 CA         -0.1675  -11.9242  -40.7793 C.3       4 UNK         0.1400 
     53 CB          0.3708  -10.4866  -40.7199 C.3       4 UNK        -0.1800 
     54 N          -0.4458  -12.2725  -42.1715 N.am      4 UNK        -0.5000 
     55 C          -1.1387  -13.3500  -42.5596 C.2       3 UNK         0.5000 
     56 O          -1.8225  -14.0191  -41.7854 O.2       3 UNK        -0.5000 
     57 CA         -1.0439  -13.7714  -44.0440 C.3       3 UNK         0.1400 
     58 CB         -2.4370  -13.9722  -44.6642 C.3       3 UNK        -0.1800 
     59 N          -0.2694  -12.8878  -44.9251 N.am      3 UNK        -0.5000 
     60 C           1.0449  -12.6245  -44.8697 C.2       2 UNK         0.5000 
     61 O           1.7652  -12.9652  -43.9303 O.2       2 UNK        -0.5000 
     62 CA          1.6397  -11.8195  -46.0471 C.3       2 UNK         0.1400 
     63 CB          3.1246  -12.1559  -46.2971 C.3       2 UNK        -0.1800 
     64 N           0.8588  -11.9277  -47.2890 N.am      2 UNK        -0.5000 
     65 C           0.6232  -13.0309  -48.0166 C.2       1 UNK         0.5000 
     66 O           1.0611  -14.1438  -47.7285 O.2       1 UNK        -0.5000 
     67 C          -1.3459  -21.0897  -47.6991 C.2       11 UNK         0.5000 
     68 O          -1.8111  -21.7344  -48.6372 O.2       11 UNK        -0.5000 
     69 N          -1.9053  -19.9655  -47.2284 N.am      12 UNK        -0.5000 
     70 CA         -3.1406  -19.3749  -47.7423 C.3       12 UNK         0.1400 
     71 CB         -3.3316  -17.9697  -47.1532 C.3       12 UNK        -0.1800 
     72 C          -4.3772  -20.2555  -47.4926 C.2       12 UNK         0.5000 
     73 O          -5.2403  -20.3380  -48.3661 O.2       12 UNK        -0.5000 
     74 N          -4.4294  -20.9146  -46.3262 N.am      13 UNK        -0.5000 
     75 CA         -5.4641  -21.8855  -45.9685 C.3       13 UNK         0.1400 
     76 CB         -5.3811  -22.1981  -44.4667 C.3       13 UNK        -0.1800 
     77 C          -5.3761  -23.1764  -46.8043 C.2       13 UNK         0.5000 
     78 O          -6.4106  -23.6985  -47.2219 O.2       13 UNK        -0.5000 
     79 N          -4.1481  -23.6574  -47.0459 N.am      14 UNK        -0.5000 
     80 CA         -3.8556  -24.8007  -47.9133 C.3       14 UNK         0.1400 
     81 CB         -2.3948  -25.2248  -47.7066 C.3       14 UNK        -0.1800 
     82 C          -4.1342  -24.5076  -49.4005 C.2       14 UNK         0.5000 
     83 O          -4.5938  -25.3968  -50.1193 O.2       14 UNK        -0.5000 
     84 N          -3.8608  -23.2645  -49.8219 N.am      15 UNK        -0.5000 
     85 CA         -4.0714  -22.6977  -51.1526 C.3       15 UNK         0.1400 
     86 CB         -5.5771  -22.4651  -51.4073 C.3       15 UNK        -0.1800 
     87 C          -3.3647  -23.5329  -52.2348 C.2       15 UNK         0.5000 
     88 O          -2.1345  -23.5926  -52.2317 O.2       15 UNK        -0.5000 
     89 N          -4.1420  -24.1906  -53.1070 N.am      16 UNK        -0.5000 
     90 CA         -3.6790  -25.0189  -54.2238 C.3       16 UNK         0.1400 
     91 CB         -4.9050  -25.5546  -54.9795 C.3       16 UNK        -0.1800 
     92 C          -2.7602  -26.1884  -53.8162 C.2       16 UNK         0.5000 
     93 O          -1.9640  -26.6452  -54.6369 O.2       16 UNK        -0.5000 
     94 N          -2.8771  -26.6489  -52.5626 N.am      17 UNK        -0.5000 
     95 CA         -2.0211  -27.6830  -51.9834 C.3       17 UNK         0.1400 
     96 CB         -2.7343  -28.2991  -50.7700 C.3       17 UNK        -0.1800 
     97 C          -0.6198  -27.1690  -51.5919 C.2       17 UNK         0.5000 
     98 O           0.2777  -27.9918  -51.4042 O.2       17 UNK        -0.5000 
     99 N          -0.4500  -25.8448  -51.4652 N.am      18 UNK        -0.5000 
    100 CA         0.8073  -25.1999  -51.0889 C.3       18 UNK         0.1400 
    101 CB         0.5755  -24.3015  -49.8642 C.3       18 UNK        -0.1800 
    102 C          1.4021  -24.3861  -52.2478 C.2       18 UNK         0.5000 
    103 O          2.5953  -24.5206  -52.5232 O.2       18 UNK        -0.5000 
    104 N          0.5807  -23.5534  -52.8980 N.am      19 UNK        -0.5000 
    105 CA         0.9902  -22.6395  -53.9598 C.3       19 UNK         0.1400 
    106 CB         1.7539  -21.4331  -53.3669 C.3       19 UNK        -0.1800 
    107 C         -0.2371  -22.2526  -54.8031 C.2       19 UNK         0.5000 
    108 O         -0.8187  -23.1239  -55.4509 O.2       19 UNK        -0.5000 
    109 N         -0.5854  -20.9591  -54.8175 N.am      20 UNK        -0.5000 
    110 CA        -1.6771  -20.3811  -55.5969 C.3       20 UNK         0.1400 
    111 CB        -1.5810  -18.8498  -55.5248 C.3       20 UNK        -0.1800 
    112 C         -3.0583  -20.8554  -55.1159 C.2       20 UNK         0.5000 
    113 O         -3.3182  -20.8826  -53.9114 O.2       20 UNK        -0.5000 
    114 N         -3.9357  -21.1806  -56.0717 N.am      21 UNK        -0.5000 
    115 CA        -5.3109  -21.6221  -55.8465 C.3       21 UNK         0.1400 
    116 CB        -5.7834  -22.4042  -57.0853 C.3       21 UNK        -0.1800 
    117 C         -6.2373  -20.4383  -55.4997 C.2       21 UNK         0.5000 
    118 O         -7.1144  -20.0823  -56.2887 O.2       21 UNK        -0.5000 
    119 N         -6.0017  -19.8333  -54.3305 N.am      22 UNK        -0.5000 
    120 CA        -6.7321  -18.6639  -53.8110 C.3       22 UNK         0.1400 
    121 C         -8.2199  -18.9231  -53.4251 C.2       22 UNK         0.5000 
    122 N         -8.6758  -20.1643  -53.3075 N.am      22 UNK        -0.7600 
    123 O         -8.9764  -17.9755  -53.2308 O.2       22 UNK        -0.5000 
    124 C124       -5.9867  -17.9928  -52.6290 C.3       23 UNK        -0.0398 
    125 S125       -4.2565  -17.5511  -53.0129 S.3       23 UNK        -0.2404 
    126 C126       -3.4090  -18.2886  -51.5754 C.3       23 UNK        -0.0205 
    127 H127       -4.0749  -12.2074  -48.0001 H         1 UNK         0.0600 
    128 H128       -4.0859  -10.5135  -48.4997 H         1 UNK         0.0600 
    129 H129       -3.6030  -10.9478  -46.8564 H         1 UNK         0.0600 
    130 H130       -2.3194  -13.3199  -48.7850 H         1 UNK         0.3000 
    131 H131        0.0560  -12.0008  -49.8069 H         1 UNK         0.0600 
    132 H132       -0.5379  -15.0012  -49.6426 H         1 UNK         0.0800 
    133 H133       -1.1348  -13.9651  -50.9110 H         1 UNK         0.0800 
    134 H134        0.0018  -14.8911  -53.1189 H         1 UNK         0.0800 
    135 H135        1.5639  -15.6665  -53.0707 H         1 UNK         0.0800 
    136 H136       -1.9221  -16.1255  -52.4705 H         1 UNK         0.1150 
    137 H137       -1.5323  -19.9307  -50.5347 H         1 UNK         0.1150 
    138 H138        1.9302  -17.4993  -51.2005 H         1 UNK         0.1150 
    139 H139        0.6823  -20.8425  -50.1778 H         1 UNK         0.0800 
    140 H140        2.1277  -19.9222  -50.5213 H         1 UNK         0.0800 
    141 H141        2.0346  -21.1241  -46.7487 H         1 UNK         0.0800 
    142 H142        1.6444  -21.8137  -48.2726 H         1 UNK         0.0800 
    143 H143       -0.0821  -22.6944  -47.1563 H         1 UNK         0.0600 
    144 H144        0.4515  -20.8633  -45.0555 H         1 UNK         0.3000 
    145 H145       -2.1300  -22.1982  -42.9008 H         1 UNK         0.0600 
    146 H146       -0.1485  -22.4186  -41.4384 H         1 UNK         0.0600 
    147 H147       -0.1139  -23.6502  -42.6913 H         1 UNK         0.0600 
    148 H148        0.9321  -22.2422  -42.8179 H         1 UNK         0.0600 
    149 H149       -0.2977  -20.0830  -42.4584 H         1 UNK         0.3000 
    150 H150       -2.3435  -17.4185  -43.7426 H         1 UNK         0.0600 
    151 H151       -3.0554  -17.8247  -41.4103 H         1 UNK         0.0600 
    152 H152       -1.7735  -16.6236  -41.4343 H         1 UNK         0.0600 
    153 H153       -1.4211  -18.2760  -40.9465 H         1 UNK         0.0600 
    154 H154        0.2673  -17.3614  -42.6564 H         1 UNK         0.3000 
    155 H155        2.0842  -18.0614  -45.6806 H         1 UNK         0.0600 
    156 H156        3.1385  -15.9231  -45.0292 H         1 UNK         0.0600 
    157 H157        1.7923  -15.5621  -43.9486 H         1 UNK         0.0600 
    158 H158        1.5353  -15.6271  -45.6842 H         1 UNK         0.0600 
    159 H159        2.7972  -17.5238  -42.9278 H         1 UNK         0.3000 
    160 H160        3.0567  -20.9255  -41.9252 H         1 UNK         0.0600 
    161 H161        5.2203  -18.8344  -42.5229 H         1 UNK         0.0600 
    162 H162        5.1816  -20.4744  -43.1593 H         1 UNK         0.0600 
    163 H163        5.3800  -20.2128  -41.4340 H         1 UNK         0.0600 
    164 H164        3.6629  -18.4411  -40.6281 H         1 UNK         0.3000 
    165 H165        0.4158  -17.8612  -39.2721 H         1 UNK         0.0600 
    166 H166        3.0049  -18.8158  -37.9384 H         1 UNK         0.0600 
    167 H167        1.6685  -17.9812  -37.1450 H         1 UNK         0.0600 
    168 H168        1.4355  -19.5976  -37.7898 H         1 UNK         0.0600 
    169 H169        2.8106  -16.4711  -38.8037 H         1 UNK         0.3000 
    170 H170        2.9965  -14.3584  -39.5087 H         1 UNK         0.0600 
    171 H171        4.5266  -15.4044  -41.1909 H         1 UNK         0.0600 
    172 H172        3.5281  -14.7860  -42.5016 H         1 UNK         0.0600 
    173 H173        4.3888  -13.6715  -41.4461 H         1 UNK         0.0600 
    174 H174        1.7030  -13.2898  -41.9253 H         1 UNK         0.3000 
    175 H175       -1.1015  -11.9663  -40.2151 H         1 UNK         0.0600 
    176 H176       -0.3491   -9.7786  -41.1308 H         1 UNK         0.0600 
    177 H177        0.5694  -10.1871  -39.6900 H         1 UNK         0.0600 
    178 H178        1.3021  -10.3820  -41.2781 H         1 UNK         0.0600 
    179 H179        0.1085  -11.8031  -42.8726 H         1 UNK         0.3000 
    180 H180       -0.5421  -14.7404  -44.0444 H         1 UNK         0.0600 
    181 H181       -2.3640  -14.3743  -45.6752 H         1 UNK         0.0600 
    182 H182       -3.0311  -14.6787  -44.0830 H         1 UNK         0.0600 
    183 H183       -2.9928  -13.0352  -44.7125 H         1 UNK         0.0600 
    184 H184       -0.7690  -12.5252  -45.7227 H         1 UNK         0.3000 
    185 H185        1.5871  -10.7717  -45.7488 H         1 UNK         0.0600 
    186 H186        3.5250  -11.5812  -47.1321 H         1 UNK         0.0600 
    187 H187        3.7317  -11.9208  -45.4221 H         1 UNK         0.0600 
    188 H188        3.2691  -13.2142  -46.5166 H         1 UNK         0.0600 
    189 H189        0.3846  -11.0796  -47.5852 H         1 UNK         0.3000 
    190 H190       -1.4206  -19.4437  -46.5015 H         1 UNK         0.3000 
    191 H191       -3.0322  -19.2716  -48.8214 H         1 UNK         0.0600 
    192 H192       -4.2397  -17.5041  -47.5378 H         1 UNK         0.0600 
    193 H193       -2.4965  -17.3187  -47.4135 H         1 UNK         0.0600 
    194 H194       -3.4088  -17.9962  -46.0660 H         1 UNK         0.0600 
    195 H195       -3.7137  -20.7321  -45.6297 H         1 UNK         0.3000 
    196 H196       -6.4365  -21.4287  -46.1643 H         1 UNK         0.0600 
    197 H197       -6.1569  -22.9056  -44.1715 H         1 UNK         0.0600 
    198 H198       -5.5179  -21.2967  -43.8691 H         1 UNK         0.0600 
    199 H199       -4.4189  -22.6340  -44.1971 H         1 UNK         0.0600 
    200 H200       -3.3528  -23.2058  -46.6044 H         1 UNK         0.3000 
    201 H201       -4.4981  -25.6312  -47.6138 H         1 UNK         0.0600 
    202 H202       -2.2215  -25.5508  -46.6810 H         1 UNK         0.0600 
    203 H203       -1.7131  -24.4006  -47.9116 H         1 UNK         0.0600 
    204 H204       -2.1208  -26.0506  -48.3630 H         1 UNK         0.0600 
    205 H205       -3.3585  -22.6558  -49.1811 H         1 UNK         0.3000 
    206 H206       -3.5791  -21.7248  -51.1525 H         1 UNK         0.0600 
    207 H207       -5.9925  -21.7857  -50.6628 H         1 UNK         0.0600 
    208 H208       -5.7454  -22.0087  -52.3827 H         1 UNK         0.0600 
    209 H209       -6.1530  -23.3899  -51.3620 H         1 UNK         0.0600 
    210 H210       -5.1413  -24.1273  -52.9843 H         1 UNK         0.3000 
    211 H211       -3.1140  -24.3722  -54.8969 H         1 UNK         0.0600 
    212 H212       -5.4993  -26.2232  -54.3552 H         1 UNK         0.0600 
    213 H213       -4.6028  -26.1152  -55.8651 H         1 UNK         0.0600 
    214 H214       -5.5550  -24.7477  -55.3144 H         1 UNK         0.0600 
    215 H215       -3.5531  -26.2166  -51.9435 H         1 UNK         0.3000 
    216 H216       -1.8810  -28.4730  -52.7243 H         1 UNK         0.0600 
    217 H217       -2.1393  -29.1008  -50.3308 H         1 UNK         0.0600 
    218 H218       -3.6958  -28.7273  -51.0539 H         1 UNK         0.0600 
    219 H219       -2.9154  -27.5605  -49.9903 H         1 UNK         0.0600 
    220 H220       -1.2207  -25.2239  -51.6911 H         1 UNK         0.3000 
    221 H221        1.5531  -25.9461  -50.8071 H         1 UNK         0.0600 
    222 H222        0.3091  -24.8977  -48.9925 H         1 UNK         0.0600 
    223 H223        1.4815  -23.7505  -49.6118 H         1 UNK         0.0600 
    224 H224       -0.2197  -23.5745  -50.0354 H         1 UNK         0.0600 
    225 H225       -0.4091  -23.5257  -52.6524 H         1 UNK         0.3000 
    226 H226        1.6652  -23.1711  -54.6336 H         1 UNK         0.0600 
    227 H227        1.1297  -20.8650  -52.6793 H         1 UNK         0.0600 
    228 H228        2.6418  -21.7509  -52.8206 H         1 UNK         0.0600 
    229 H229        2.0932  -20.7555  -54.1514 H         1 UNK         0.0600 
    230 H230       -0.0792  -20.3200  -54.2231 H         1 UNK         0.3000 
    231 H231       -1.5417  -20.6856  -56.6368 H         1 UNK         0.0600 
    232 H232       -2.3836  -18.3784  -56.0934 H         1 UNK         0.0600 
    233 H233       -0.6368  -18.4918  -55.9353 H         1 UNK         0.0600 
    234 H234       -1.6562  -18.4930  -54.4973 H         1 UNK         0.0600 
    235 H235       -3.6560  -21.0909  -57.0377 H         1 UNK         0.3000 
    236 H236       -5.3254  -22.3062  -54.9964 H         1 UNK         0.0600 
    237 H237       -5.7909  -21.7799  -57.9797 H         1 UNK         0.0600 
    238 H238       -5.1370  -23.2597  -57.2823 H         1 UNK         0.0600 
    239 H239       -6.7944  -22.7878  -56.9428 H         1 UNK         0.0600 
    240 H240       -5.1903  -20.1320  -53.7997 H         1 UNK         0.3000 
    241 H241       -6.7644  -17.9355  -54.6235 H         1 UNK         0.0600 
    242 H242       -9.6415  -20.3156  -53.0611 H         1 UNK         0.3800 
    243 H243       -8.0714  -20.9519  -53.4713 H         1 UNK         0.3800 
    244 H244       -6.4964  -17.0750  -52.3304 H         1 UNK         0.0800 
    245 H245       -6.0123  -18.6482  -51.7564 H         1 UNK         0.0800 
    246 H246       -3.8430  -17.8756  -50.6641 H         1 UNK         0.0800 
    247 H247       -3.6210  -19.3584  -51.5692 H         1 UNK         0.0800 
@<TRIPOS>BOND
     1    1    2 1    
     2    1  127 1    
     3    1  128 1    
     4    1  129 1    
     5    2    3 2    
     6    2    4 am   BACKBONE|DICT|INTERRES
     7    4    5 1    
     8    4  130 1    
     9    5    6 1    
    10    5   65 1    
    11    5  131 1    
    12    6    7 1    
    13    6  132 1    
    14    6  133 1    
    15    7    8 1    
    16    8    9 1    
    17    8  134 1    
    18    8  135 1    
    19    9   10 ar   
    20    9   14 ar   
    21   10   11 ar   
    22   10  136 1    
    23   11   12 ar   
    24   11  126 1    
    25   12   13 ar   
    26   12  137 1    
    27   13   14 ar   
    28   13   15 1    
    29   14  138 1    
    30   15   16 1    
    31   15  139 1    
    32   15  140 1    
    33   16   17 1    
    34   17   18 1    
    35   17  141 1    
    36   17  142 1    
    37   18   19 1    
    38   18   67 1    
    39   18  143 1    
    40   19   20 am   BACKBONE|DICT|INTERRES
    41   19  144 1    
    42   20   21 2    
    43   20   22 1    
    44   22   23 1    
    45   22   24 1    
    46   22  145 1    
    47   23  146 1    
    48   23  147 1    
    49   23  148 1    
    50   24   25 am   BACKBONE|DICT|INTERRES
    51   24  149 1    
    52   25   26 2    
    53   25   27 1    
    54   27   28 1    
    55   27   29 1    
    56   27  150 1    
    57   28  151 1    
    58   28  152 1    
    59   28  153 1    
    60   29   30 am   BACKBONE|DICT|INTERRES
    61   29  154 1    
    62   30   31 2    
    63   30   32 1    
    64   32   33 1    
    65   32   34 1    
    66   32  155 1    
    67   33  156 1    
    68   33  157 1    
    69   33  158 1    
    70   34   35 am   BACKBONE|DICT|INTERRES
    71   34  159 1    
    72   35   36 2    
    73   35   37 1    
    74   37   38 1    
    75   37   39 1    
    76   37  160 1    
    77   38  161 1    
    78   38  162 1    
    79   38  163 1    
    80   39   40 am   BACKBONE|DICT|INTERRES
    81   39  164 1    
    82   40   41 2    
    83   40   42 1    
    84   42   43 1    
    85   42   44 1    
    86   42  165 1    
    87   43  166 1    
    88   43  167 1    
    89   43  168 1    
    90   44   45 am   BACKBONE|DICT|INTERRES
    91   44  169 1    
    92   45   46 2    
    93   45   47 1    
    94   47   48 1    
    95   47   49 1    
    96   47  170 1    
    97   48  171 1    
    98   48  172 1    
    99   48  173 1    
   100   49   50 am   BACKBONE|DICT|INTERRES
   101   49  174 1    
   102   50   51 2    
   103   50   52 1    
   104   52   53 1    
   105   52   54 1    
   106   52  175 1    
   107   53  176 1    
   108   53  177 1    
   109   53  178 1    
   110   54   55 am   BACKBONE|DICT|INTERRES
   111   54  179 1    
   112   55   56 2    
   113   55   57 1    
   114   57   58 1    
   115   57   59 1    
   116   57  180 1    
   117   58  181 1    
   118   58  182 1    
   119   58  183 1    
   120   59   60 am   BACKBONE|DICT|INTERRES
   121   59  184 1    
   122   60   61 2    
   123   60   62 1    
   124   62   63 1    
   125   62   64 1    
   126   62  185 1    
   127   63  186 1    
   128   63  187 1    
   129   63  188 1    
   130   64   65 am   BACKBONE|DICT|INTERRES
   131   64  189 1    
   132   65   66 2    
   133   67   68 2    
   134   67   69 am   BACKBONE|DICT|INTERRES
   135   69   70 1    
   136   69  190 1    
   137   70   71 1    
   138   70   72 1    
   139   70  191 1    
   140   71  192 1    
   141   71  193 1    
   142   71  194 1    
   143   72   73 2    
   144   72   74 am   BACKBONE|DICT|INTERRES
   145   74   75 1    
   146   74  195 1    
   147   75   76 1    
   148   75   77 1    
   149   75  196 1    
   150   76  197 1    
   151   76  198 1    
   152   76  199 1    
   153   77   78 2    
   154   77   79 am   BACKBONE|DICT|INTERRES
   155   79   80 1    
   156   79  200 1    
   157   80   81 1    
   158   80   82 1    
   159   80  201 1    
   160   81  202 1    
   161   81  203 1    
   162   81  204 1    
   163   82   83 2    
   164   82   84 am   BACKBONE|DICT|INTERRES
   165   84   85 1    
   166   84  205 1    
   167   85   86 1    
   168   85   87 1    
   169   85  206 1    
   170   86  207 1    
   171   86  208 1    
   172   86  209 1    
   173   87   88 2    
   174   87   89 am   BACKBONE|DICT|INTERRES
   175   89   90 1    
   176   89  210 1    
   177   90   91 1    
   178   90   92 1    
   179   90  211 1    
   180   91  212 1    
   181   91  213 1    
   182   91  214 1    
   183   92   93 2    
   184   92   94 am   BACKBONE|DICT|INTERRES
   185   94   95 1    
   186   94  215 1    
   187   95   96 1    
   188   95   97 1    
   189   95  216 1    
   190   96  217 1    
   191   96  218 1    
   192   96  219 1    
   193   97   98 2    
   194   97   99 am   BACKBONE|DICT|INTERRES
   195   99  100 1    
   196   99  220 1    
   197  100  101 1    
   198  100  102 1    
   199  100  221 1    
   200  101  222 1    
   201  101  223 1    
   202  101  224 1    
   203  102  103 2    
   204  102  104 am   BACKBONE|DICT|INTERRES
   205  104  105 1    
   206  104  225 1    
   207  105  106 1    
   208  105  107 1    
   209  105  226 1    
   210  106  227 1    
   211  106  228 1    
   212  106  229 1    
   213  107  108 2    
   214  107  109 am   BACKBONE|DICT|INTERRES
   215  109  110 1    
   216  109  230 1    
   217  110  111 1    
   218  110  112 1    
   219  110  231 1    
   220  111  232 1    
   221  111  233 1    
   222  111  234 1    
   223  112  113 2    
   224  112  114 am   BACKBONE|DICT|INTERRES
   225  114  115 1    
   226  114  235 1    
   227  115  116 1    
   228  115  117 1    
   229  115  236 1    
   230  116  237 1    
   231  116  238 1    
   232  116  239 1    
   233  117  118 2    
   234  117  119 am   BACKBONE|DICT|INTERRES
   235  119  120 1    
   236  119  240 1    
   237  120  121 1    
   238  120  124 1    
   239  120  241 1    
   240  121  122 am   BACKBONE|DICT|INTERRES
   241  121  123 2    
   242  122  242 1    
   243  122  243 1    
   244  124  125 1    
   245  124  244 1    
   246  124  245 1    
   247  125  126 1    
   248  126  246 1    
   249  126  247 1    
@<TRIPOS>SUBSTRUCTURE
     1 UNK         1 GROUP             0       ****    0 ROOT    
