@<TRIPOS>MOLECULE
3R540
247   249    1
SMALL
USER_CHARGES


@<TRIPOS>ATOM
      1 CA         -2.6579  -19.1417  -43.6565 C.3       0 UNK        -0.1800 
      2 C          -3.3524  -18.0502  -44.4577 C.2       0 UNK         0.5000 
      3 O          -4.5512  -17.8350  -44.2807 O.2       0 UNK        -0.5000 
      4 N          -2.6127  -17.3768  -45.3501 N.am      1 UNK        -0.5000 
      5 CA         -3.1292  -16.3458  -46.2673 C.3       1 UNK         0.1400 
      6 C6         -2.1068  -15.9680  -47.3661 C.3       23 UNK        -0.0398 
      7 S7         -1.6343  -17.3986  -48.3903 S.3       23 UNK        -0.2404 
      8 C8         -0.5307  -16.6088  -49.5999 C.3       23 UNK        -0.0205 
      9 C9          0.2406  -17.6582  -50.3823 C.ar      23 UNK        -0.0193 
     10 C10        -0.0420  -17.9007  -51.7271 C.ar      23 UNK        -0.1150 
     11 C11         0.6407  -18.8902  -52.4434 C.ar      23 UNK        -0.0193 
     12 C12         1.6317  -19.6349  -51.7857 C.ar      23 UNK        -0.1150 
     13 C13         1.9040  -19.4191  -50.4306 C.ar      23 UNK        -0.0193 
     14 C14         1.2204  -18.4159  -49.7430 C.ar      23 UNK        -0.1150 
     15 C15         2.8666  -20.3229  -49.6737 C.3       23 UNK        -0.0205 
     16 S16         2.2870  -22.0543  -49.5241 S.3       23 UNK        -0.2404 
     17 C17         0.4566  -21.9693  -49.4656 C.3       23 UNK        -0.0398 
     18 CA         -0.1649  -22.4241  -48.1274 C.3       11 UNK         0.1400 
     19 N           0.3368  -21.6407  -46.9896 N.am      11 UNK        -0.5000 
     20 C          -0.0354  -21.7671  -45.7073 C.2       10 UNK         0.5000 
     21 O          -0.9984  -22.4369  -45.3375 O.2       10 UNK        -0.5000 
     22 CA          0.8270  -21.0592  -44.6462 C.3       10 UNK         0.1400 
     23 CB          1.7195  -22.0856  -43.9316 C.3       10 UNK        -0.1800 
     24 N           1.6807  -19.9998  -45.1826 N.am      10 UNK        -0.5000 
     25 C           1.2627  -18.7779  -45.5276 C.2       9 UNK         0.5000 
     26 O           0.0814  -18.4301  -45.5000 O.2       9 UNK        -0.5000 
     27 CA          2.3625  -17.7764  -45.9302 C.3       9 UNK         0.1400 
     28 CB          1.8013  -16.3694  -46.1937 C.3       9 UNK        -0.1800 
     29 N           3.4001  -17.6820  -44.9035 N.am      9 UNK        -0.5000 
     30 C           4.4568  -18.4961  -44.7819 C.2       8 UNK         0.5000 
     31 O           4.6461  -19.4690  -45.5128 O.2       8 UNK        -0.5000 
     32 CA          5.4408  -18.1970  -43.6404 C.3       8 UNK         0.1400 
     33 CB          6.3080  -16.9732  -43.9760 C.3       8 UNK        -0.1800 
     34 N           4.7231  -17.9522  -42.3906 N.am      8 UNK        -0.5000 
     35 C           4.8671  -18.6627  -41.2635 C.2       7 UNK         0.5000 
     36 O           5.6798  -19.5784  -41.1284 O.2       7 UNK        -0.5000 
     37 CA          3.9428  -18.2991  -40.0809 C.3       7 UNK         0.1400 
     38 CB          4.6547  -17.3355  -39.1193 C.3       7 UNK        -0.1800 
     39 N           2.6746  -17.6990  -40.4988 N.am      7 UNK        -0.5000 
     40 C           1.7306  -18.3259  -41.2126 C.2       6 UNK         0.5000 
     41 O           1.7714  -19.5250  -41.4852 O.2       6 UNK        -0.5000 
     42 CA          0.5530  -17.4812  -41.7360 C.3       6 UNK         0.1400 
     43 CB         -0.7131  -17.7755  -40.9153 C.3       6 UNK        -0.1800 
     44 N           0.7550  -16.0280  -41.7832 N.am      6 UNK        -0.5000 
     45 C           1.7463  -15.3538  -42.3843 C.2       5 UNK         0.5000 
     46 O           2.7377  -15.8888  -42.8807 O.2       5 UNK        -0.5000 
     47 CA          1.6102  -13.8243  -42.4604 C.3       5 UNK         0.1400 
     48 CB          1.0642  -13.4150  -43.8368 C.3       5 UNK        -0.1800 
     49 N           0.7295  -13.2820  -41.4250 N.am      5 UNK        -0.5000 
     50 C           1.1404  -12.8485  -40.2259 C.2       4 UNK         0.5000 
     51 O           2.3090  -12.9110  -39.8426 O.2       4 UNK        -0.5000 
     52 CA          0.0777  -12.2169  -39.3049 C.3       4 UNK         0.1400 
     53 CB          0.1020  -10.6863  -39.4381 C.3       4 UNK        -0.1800 
     54 N          -1.2783  -12.6920  -39.5848 N.am      4 UNK        -0.5000 
     55 C          -1.7741  -13.8561  -39.1460 C.2       3 UNK         0.5000 
     56 O          -1.1519  -14.6377  -38.4264 O.2       3 UNK        -0.5000 
     57 CA         -3.1975  -14.2217  -39.6134 C.3       3 UNK         0.1400 
     58 CB         -4.2440  -13.6567  -38.6410 C.3       3 UNK        -0.1800 
     59 N          -3.5256  -13.7916  -40.9796 N.am      3 UNK        -0.5000 
     60 C          -2.8495  -14.1598  -42.0745 C.2       2 UNK         0.5000 
     61 O          -1.7939  -14.7949  -42.0415 O.2       2 UNK        -0.5000 
     62 CA         -3.4195  -13.7457  -43.4344 C.3       2 UNK         0.1400 
     63 CB         -2.8816  -12.3720  -43.8695 C.3       2 UNK        -0.1800 
     64 N          -3.0184  -14.7760  -44.3836 N.am      2 UNK        -0.5000 
     65 C          -3.6247  -15.0787  -45.5348 C.2       1 UNK         0.5000 
     66 O          -4.5512  -14.4220  -46.0120 O.2       1 UNK        -0.5000 
     67 C          -1.7038  -22.4703  -48.2590 C.2       11 UNK         0.5000 
     68 O          -2.2473  -23.5223  -48.6001 O.2       11 UNK        -0.5000 
     69 N          -2.3921  -21.3613  -47.9500 N.am      12 UNK        -0.5000 
     70 CA         -3.8548  -21.2698  -47.9961 C.3       12 UNK         0.1400 
     71 CB         -4.2957  -19.8143  -47.8073 C.3       12 UNK        -0.1800 
     72 C          -4.5803  -22.1928  -46.9964 C.2       12 UNK         0.5000 
     73 O          -5.7285  -22.5544  -47.2526 O.2       12 UNK        -0.5000 
     74 N          -3.9027  -22.6165  -45.9174 N.am      13 UNK        -0.5000 
     75 CA         -4.4143  -23.6149  -44.9714 C.3       13 UNK         0.1400 
     76 CB         -3.5576  -23.6058  -43.6964 C.3       13 UNK        -0.1800 
     77 C          -4.4766  -25.0336  -45.5768 C.2       13 UNK         0.5000 
     78 O          -5.2626  -25.8569  -45.1079 O.2       13 UNK        -0.5000 
     79 N          -3.6799  -25.2794  -46.6263 N.am      14 UNK        -0.5000 
     80 CA         -3.6955  -26.4894  -47.4498 C.3       14 UNK         0.1400 
     81 CB         -2.2410  -26.9015  -47.7381 C.3       14 UNK        -0.1800 
     82 C          -4.4910  -26.2766  -48.7574 C.2       14 UNK         0.5000 
     83 O          -4.3850  -27.0984  -49.6679 O.2       14 UNK        -0.5000 
     84 N          -5.2530  -25.1729  -48.8367 N.am      15 UNK        -0.5000 
     85 CA         -6.0655  -24.6989  -49.9642 C.3       15 UNK         0.1400 
     86 CB         -7.1301  -25.7380  -50.3722 C.3       15 UNK        -0.1800 
     87 C          -5.2514  -24.1884  -51.1722 C.2       15 UNK         0.5000 
     88 O          -5.8430  -23.8535  -52.1993 O.2       15 UNK        -0.5000 
     89 N          -3.9248  -24.0724  -51.0322 N.am      16 UNK        -0.5000 
     90 CA         -3.0103  -23.5414  -52.0417 C.3       16 UNK         0.1400 
     91 CB         -1.6685  -24.2866  -51.9334 C.3       16 UNK        -0.1800 
     92 C          -2.8887  -22.0105  -51.9018 C.2       16 UNK         0.5000 
     93 O          -1.7989  -21.4835  -51.6875 O.2       16 UNK        -0.5000 
     94 N          -4.0386  -21.3310  -51.9727 N.am      17 UNK        -0.5000 
     95 CA         -4.1867  -19.8856  -51.8258 C.3       17 UNK         0.1400 
     96 CB         -5.6704  -19.5866  -51.5538 C.3       17 UNK        -0.1800 
     97 C          -3.6726  -19.0868  -53.0412 C.2       17 UNK         0.5000 
     98 O          -3.3549  -19.6563  -54.0883 O.2       17 UNK        -0.5000 
     99 N          -3.6378  -17.7572  -52.8750 N.am      18 UNK        -0.5000 
    100 CA        -3.1118  -16.7611  -53.8160 C.3       18 UNK         0.1400 
    101 CB        -3.1473  -15.3825  -53.1380 C.3       18 UNK        -0.1800 
    102 C         -3.7859  -16.7004  -55.2005 C.2       18 UNK         0.5000 
    103 O         -3.2160  -16.0985  -56.1113 O.2       18 UNK        -0.5000 
    104 N         -4.9441  -17.3503  -55.3720 N.am      19 UNK        -0.5000 
    105 CA        -5.6580  -17.5201  -56.6430 C.3       19 UNK         0.1400 
    106 CB        -7.1252  -17.8684  -56.3330 C.3       19 UNK        -0.1800 
    107 C         -4.9863  -18.5574  -57.5786 C.2       19 UNK         0.5000 
    108 O         -5.6725  -19.3948  -58.1662 O.2       19 UNK        -0.5000 
    109 N         -3.6495  -18.4970  -57.6730 N.am      20 UNK        -0.5000 
    110 CA        -2.7304  -19.3521  -58.4354 C.3       20 UNK         0.1400 
    111 CB        -2.9811  -19.2005  -59.9495 C.3       20 UNK        -0.1800 
    112 C         -2.7058  -20.8352  -58.0023 C.2       20 UNK         0.5000 
    113 O         -2.0788  -21.6517  -58.6804 O.2       20 UNK        -0.5000 
    114 N         -3.3540  -21.1738  -56.8795 N.am      21 UNK        -0.5000 
    115 CA        -3.5375  -22.5490  -56.4133 C.3       21 UNK         0.1400 
    116 CB        -4.7010  -22.5958  -55.4130 C.3       21 UNK        -0.1800 
    117 C         -2.2579  -23.1896  -55.8422 C.2       21 UNK         0.5000 
    118 O         -2.1987  -24.4158  -55.7478 O.2       21 UNK        -0.5000 
    119 N         -1.2501  -22.3717  -55.5073 N.am      22 UNK        -0.5000 
    120 CA         0.1158  -22.8316  -55.2074 C.3       22 UNK         0.1400 
    121 C          0.9704  -23.1873  -56.4631 C.2       22 UNK         0.5000 
    122 N          0.5029  -22.9603  -57.6867 N.am      22 UNK        -0.7600 
    123 O          2.0772  -23.7008  -56.3245 O.2       22 UNK        -0.5000 
    124 C124        0.8554  -21.8879  -54.2225 C.3       23 UNK        -0.0398 
    125 S125        1.2794  -20.2390  -54.8927 S.3       23 UNK        -0.2404 
    126 C126        0.2210  -19.1342  -53.8969 C.3       23 UNK        -0.0205 
    127 H127       -1.5915  -18.9483  -43.5616 H         1 UNK         0.0600 
    128 H128       -2.7909  -20.1078  -44.1437 H         1 UNK         0.0600 
    129 H129       -3.0772  -19.2029  -42.6523 H         1 UNK         0.0600 
    130 H130       -1.6358  -17.6367  -45.4754 H         1 UNK         0.3000 
    131 H131       -4.0023  -16.7730  -46.7654 H         1 UNK         0.0600 
    132 H132       -1.2073  -15.5408  -46.9198 H         1 UNK         0.0800 
    133 H133       -2.5201  -15.2044  -48.0278 H         1 UNK         0.0800 
    134 H134        0.1731  -15.9474  -49.0945 H         1 UNK         0.0800 
    135 H135       -1.1211  -15.9796  -50.2669 H         1 UNK         0.0800 
    136 H136       -0.8130  -17.3237  -52.2110 H         1 UNK         0.1150 
    137 H137        2.1643  -20.4215  -52.2972 H         1 UNK         0.1150 
    138 H138        1.4101  -18.2513  -48.6940 H         1 UNK         0.1150 
    139 H139        3.0512  -19.9340  -48.6714 H         1 UNK         0.0800 
    140 H140        3.8329  -20.3184  -50.1795 H         1 UNK         0.0800 
    141 H141        0.0839  -20.9780  -49.7149 H         1 UNK         0.0800 
    142 H142        0.1113  -22.6128  -50.2736 H         1 UNK         0.0800 
    143 H143        0.1560  -23.4522  -47.9481 H         1 UNK         0.0600 
    144 H144        1.1415  -21.0643  -47.1827 H         1 UNK         0.3000 
    145 H145        0.1524  -20.6223  -43.9074 H         1 UNK         0.0600 
    146 H146        1.1199  -22.8697  -43.4673 H         1 UNK         0.0600 
    147 H147        2.3066  -21.6178  -43.1413 H         1 UNK         0.0600 
    148 H148        2.4127  -22.5665  -44.6228 H         1 UNK         0.0600 
    149 H149        2.6757  -20.1883  -45.2256 H         1 UNK         0.3000 
    150 H150        2.8154  -18.1351  -46.8558 H         1 UNK         0.0600 
    151 H151        1.2657  -15.9829  -45.3272 H         1 UNK         0.0600 
    152 H152        1.1014  -16.3834  -47.0267 H         1 UNK         0.0600 
    153 H153        2.5934  -15.6642  -46.4455 H         1 UNK         0.0600 
    154 H154        3.2713  -16.9382  -44.2212 H         1 UNK         0.3000 
    155 H155        6.0989  -19.0630  -43.5448 H         1 UNK         0.0600 
    156 H156        7.0550  -16.7990  -43.2015 H         1 UNK         0.0600 
    157 H157        5.7091  -16.0665  -44.0714 H         1 UNK         0.0600 
    158 H158        6.8415  -17.1174  -44.9164 H         1 UNK         0.0600 
    159 H159        4.0147  -17.2244  -42.4141 H         1 UNK         0.3000 
    160 H160        3.7188  -19.2215  -39.5411 H         1 UNK         0.0600 
    161 H161        4.0421  -17.1291  -38.2415 H         1 UNK         0.0600 
    162 H162        4.8844  -16.3840  -39.6009 H         1 UNK         0.0600 
    163 H163        5.5951  -17.7602  -38.7655 H         1 UNK         0.0600 
    164 H164        2.5578  -16.7117  -40.3241 H         1 UNK         0.3000 
    165 H165        0.3751  -17.8041  -42.7624 H         1 UNK         0.0600 
    166 H166       -1.5962  -17.3337  -41.3755 H         1 UNK         0.0600 
    167 H167       -0.8965  -18.8483  -40.8405 H         1 UNK         0.0600 
    168 H168       -0.6321  -17.3827  -39.9010 H         1 UNK         0.0600 
    169 H169       -0.0457  -15.4814  -41.4844 H         1 UNK         0.3000 
    170 H170        2.6090  -13.3957  -42.3537 H         1 UNK         0.0600 
    171 H171        0.9244  -12.3359  -43.9026 H         1 UNK         0.0600 
    172 H172        0.1074  -13.8929  -44.0509 H         1 UNK         0.0600 
    173 H173        1.7580  -13.6977  -44.6291 H         1 UNK         0.0600 
    174 H174       -0.2588  -13.2674  -41.6356 H         1 UNK         0.3000 
    175 H175        0.3386  -12.4708  -38.2751 H         1 UNK         0.0600 
    176 H176        1.0923  -10.2897  -39.2102 H         1 UNK         0.0600 
    177 H177       -0.1557  -10.3651  -40.4482 H         1 UNK         0.0600 
    178 H178       -0.6002  -10.2192  -38.7472 H         1 UNK         0.0600 
    179 H179       -1.8609  -12.1066  -40.1653 H         1 UNK         0.3000 
    180 H180       -3.2700  -15.3112  -39.5923 H         1 UNK         0.0600 
    181 H181       -4.2526  -12.5661  -38.6483 H         1 UNK         0.0600 
    182 H182       -4.0408  -13.9767  -37.6180 H         1 UNK         0.0600 
    183 H183       -5.2462  -14.0029  -38.8942 H         1 UNK         0.0600 
    184 H184       -4.3722  -13.2512  -41.0863 H         1 UNK         0.3000 
    185 H185       -4.5091  -13.7167  -43.3685 H         1 UNK         0.0600 
    186 H186       -3.1674  -11.5971  -43.1573 H         1 UNK         0.0600 
    187 H187       -1.7940  -12.3675  -43.9412 H         1 UNK         0.0600 
    188 H188       -3.2804  -12.0810  -44.8412 H         1 UNK         0.0600 
    189 H189       -2.2901  -15.3873  -44.0345 H         1 UNK         0.3000 
    190 H190       -1.8866  -20.5361  -47.6599 H         1 UNK         0.3000 
    191 H191       -4.1698  -21.5825  -48.9937 H         1 UNK         0.0600 
    192 H192       -3.9273  -19.1822  -48.6131 H         1 UNK         0.0600 
    193 H193       -5.3831  -19.7273  -47.8047 H         1 UNK         0.0600 
    194 H194       -3.9314  -19.4104  -46.8657 H         1 UNK         0.0600 
    195 H195       -2.9359  -22.3318  -45.7891 H         1 UNK         0.3000 
    196 H196       -5.4312  -23.3287  -44.6949 H         1 UNK         0.0600 
    197 H197       -2.5478  -23.9706  -43.8857 H         1 UNK         0.0600 
    198 H198       -3.9955  -24.2476  -42.9312 H         1 UNK         0.0600 
    199 H199       -3.4808  -22.6030  -43.2759 H         1 UNK         0.0600 
    200 H200       -3.0839  -24.5337  -46.9681 H         1 UNK         0.3000 
    201 H201       -4.1774  -27.3059  -46.9087 H         1 UNK         0.0600 
    202 H202       -2.2002  -27.8470  -48.2801 H         1 UNK         0.0600 
    203 H203       -1.6792  -27.0357  -46.8136 H         1 UNK         0.0600 
    204 H204       -1.7212  -26.1560  -48.3406 H         1 UNK         0.0600 
    205 H205       -5.2651  -24.5601  -48.0310 H         1 UNK         0.3000 
    206 H206       -6.6000  -23.8261  -49.5872 H         1 UNK         0.0600 
    207 H207       -7.7006  -26.0794  -49.5085 H         1 UNK         0.0600 
    208 H208       -7.8413  -25.3102  -51.0798 H         1 UNK         0.0600 
    209 H209       -6.6862  -26.6113  -50.8502 H         1 UNK         0.0600 
    210 H210       -3.5106  -24.2774  -50.1303 H         1 UNK         0.3000 
    211 H211       -3.4058  -23.7396  -53.0386 H         1 UNK         0.0600 
    212 H212       -0.9085  -23.8344  -52.5677 H         1 UNK         0.0600 
    213 H213       -1.7774  -25.3240  -52.2497 H         1 UNK         0.0600 
    214 H214       -1.2862  -24.2954  -50.9145 H         1 UNK         0.0600 
    215 H215       -4.8809  -21.8551  -52.1725 H         1 UNK         0.3000 
    216 H216       -3.6004  -19.5742  -50.9590 H         1 UNK         0.0600 
    217 H217       -5.8380  -18.5270  -51.3581 H         1 UNK         0.0600 
    218 H218       -6.0265  -20.1310  -50.6786 H         1 UNK         0.0600 
    219 H219       -6.2979  -19.8684  -52.4005 H         1 UNK         0.0600 
    220 H220       -3.9521  -17.3846  -51.9909 H         1 UNK         0.3000 
    221 H221       -2.0705  -17.0173  -54.0118 H         1 UNK         0.0600 
    222 H222       -2.5684  -15.3789  -52.2148 H         1 UNK         0.0600 
    223 H223       -2.7231  -14.6136  -53.7854 H         1 UNK         0.0600 
    224 H224       -4.1674  -15.0814  -52.8966 H         1 UNK         0.0600 
    225 H225       -5.3170  -17.8529  -54.5807 H         1 UNK         0.3000 
    226 H226       -5.6493  -16.5658  -57.1735 H         1 UNK         0.0600 
    227 H227       -7.5871  -17.1070  -55.7042 H         1 UNK         0.0600 
    228 H228       -7.2100  -18.8263  -55.8182 H         1 UNK         0.0600 
    229 H229       -7.7167  -17.9315  -57.2473 H         1 UNK         0.0600 
    230 H230       -3.2068  -17.7439  -57.1553 H         1 UNK         0.3000 
    231 H231       -1.7302  -18.9688  -58.2289 H         1 UNK         0.0600 
    232 H232       -3.9424  -19.6216  -60.2450 H         1 UNK         0.0600 
    233 H233       -2.2107  -19.7107  -60.5287 H         1 UNK         0.0600 
    234 H234       -2.9672  -18.1525  -60.2486 H         1 UNK         0.0600 
    235 H235       -3.7818  -20.4453  -56.3238 H         1 UNK         0.3000 
    236 H236       -3.8279  -23.1548  -57.2744 H         1 UNK         0.0600 
    237 H237       -4.5139  -21.9637  -54.5488 H         1 UNK         0.0600 
    238 H238       -5.6285  -22.2578  -55.8752 H         1 UNK         0.0600 
    239 H239       -4.8712  -23.6107  -55.0513 H         1 UNK         0.0600 
    240 H240       -1.3817  -21.3753  -55.6025 H         1 UNK         0.3000 
    241 H241        0.0214  -23.7828  -54.6818 H         1 UNK         0.0600 
    242 H242       -0.4084  -22.5456  -57.8414 H         1 UNK         0.3800 
    243 H243        1.0723  -23.2063  -58.4808 H         1 UNK         0.3800 
    244 H244        1.7824  -22.3575  -53.8895 H         1 UNK         0.0800 
    245 H245        0.2576  -21.7670  -53.3192 H         1 UNK         0.0800 
    246 H246        0.1739  -18.1737  -54.4117 H         1 UNK         0.0800 
    247 H247       -0.7906  -19.5369  -53.9001 H         1 UNK         0.0800 
@<TRIPOS>BOND
     1    1    2 1    
     2    1  127 1    
     3    1  128 1    
     4    1  129 1    
     5    2    3 2    
     6    2    4 am   BACKBONE|DICT|INTERRES
     7    4    5 1    
     8    4  130 1    
     9    5    6 1    
    10    5   65 1    
    11    5  131 1    
    12    6    7 1    
    13    6  132 1    
    14    6  133 1    
    15    7    8 1    
    16    8    9 1    
    17    8  134 1    
    18    8  135 1    
    19    9   10 ar   
    20    9   14 ar   
    21   10   11 ar   
    22   10  136 1    
    23   11   12 ar   
    24   11  126 1    
    25   12   13 ar   
    26   12  137 1    
    27   13   14 ar   
    28   13   15 1    
    29   14  138 1    
    30   15   16 1    
    31   15  139 1    
    32   15  140 1    
    33   16   17 1    
    34   17   18 1    
    35   17  141 1    
    36   17  142 1    
    37   18   19 1    
    38   18   67 1    
    39   18  143 1    
    40   19   20 am   BACKBONE|DICT|INTERRES
    41   19  144 1    
    42   20   21 2    
    43   20   22 1    
    44   22   23 1    
    45   22   24 1    
    46   22  145 1    
    47   23  146 1    
    48   23  147 1    
    49   23  148 1    
    50   24   25 am   BACKBONE|DICT|INTERRES
    51   24  149 1    
    52   25   26 2    
    53   25   27 1    
    54   27   28 1    
    55   27   29 1    
    56   27  150 1    
    57   28  151 1    
    58   28  152 1    
    59   28  153 1    
    60   29   30 am   BACKBONE|DICT|INTERRES
    61   29  154 1    
    62   30   31 2    
    63   30   32 1    
    64   32   33 1    
    65   32   34 1    
    66   32  155 1    
    67   33  156 1    
    68   33  157 1    
    69   33  158 1    
    70   34   35 am   BACKBONE|DICT|INTERRES
    71   34  159 1    
    72   35   36 2    
    73   35   37 1    
    74   37   38 1    
    75   37   39 1    
    76   37  160 1    
    77   38  161 1    
    78   38  162 1    
    79   38  163 1    
    80   39   40 am   BACKBONE|DICT|INTERRES
    81   39  164 1    
    82   40   41 2    
    83   40   42 1    
    84   42   43 1    
    85   42   44 1    
    86   42  165 1    
    87   43  166 1    
    88   43  167 1    
    89   43  168 1    
    90   44   45 am   BACKBONE|DICT|INTERRES
    91   44  169 1    
    92   45   46 2    
    93   45   47 1    
    94   47   48 1    
    95   47   49 1    
    96   47  170 1    
    97   48  171 1    
    98   48  172 1    
    99   48  173 1    
   100   49   50 am   BACKBONE|DICT|INTERRES
   101   49  174 1    
   102   50   51 2    
   103   50   52 1    
   104   52   53 1    
   105   52   54 1    
   106   52  175 1    
   107   53  176 1    
   108   53  177 1    
   109   53  178 1    
   110   54   55 am   BACKBONE|DICT|INTERRES
   111   54  179 1    
   112   55   56 2    
   113   55   57 1    
   114   57   58 1    
   115   57   59 1    
   116   57  180 1    
   117   58  181 1    
   118   58  182 1    
   119   58  183 1    
   120   59   60 am   BACKBONE|DICT|INTERRES
   121   59  184 1    
   122   60   61 2    
   123   60   62 1    
   124   62   63 1    
   125   62   64 1    
   126   62  185 1    
   127   63  186 1    
   128   63  187 1    
   129   63  188 1    
   130   64   65 am   BACKBONE|DICT|INTERRES
   131   64  189 1    
   132   65   66 2    
   133   67   68 2    
   134   67   69 am   BACKBONE|DICT|INTERRES
   135   69   70 1    
   136   69  190 1    
   137   70   71 1    
   138   70   72 1    
   139   70  191 1    
   140   71  192 1    
   141   71  193 1    
   142   71  194 1    
   143   72   73 2    
   144   72   74 am   BACKBONE|DICT|INTERRES
   145   74   75 1    
   146   74  195 1    
   147   75   76 1    
   148   75   77 1    
   149   75  196 1    
   150   76  197 1    
   151   76  198 1    
   152   76  199 1    
   153   77   78 2    
   154   77   79 am   BACKBONE|DICT|INTERRES
   155   79   80 1    
   156   79  200 1    
   157   80   81 1    
   158   80   82 1    
   159   80  201 1    
   160   81  202 1    
   161   81  203 1    
   162   81  204 1    
   163   82   83 2    
   164   82   84 am   BACKBONE|DICT|INTERRES
   165   84   85 1    
   166   84  205 1    
   167   85   86 1    
   168   85   87 1    
   169   85  206 1    
   170   86  207 1    
   171   86  208 1    
   172   86  209 1    
   173   87   88 2    
   174   87   89 am   BACKBONE|DICT|INTERRES
   175   89   90 1    
   176   89  210 1    
   177   90   91 1    
   178   90   92 1    
   179   90  211 1    
   180   91  212 1    
   181   91  213 1    
   182   91  214 1    
   183   92   93 2    
   184   92   94 am   BACKBONE|DICT|INTERRES
   185   94   95 1    
   186   94  215 1    
   187   95   96 1    
   188   95   97 1    
   189   95  216 1    
   190   96  217 1    
   191   96  218 1    
   192   96  219 1    
   193   97   98 2    
   194   97   99 am   BACKBONE|DICT|INTERRES
   195   99  100 1    
   196   99  220 1    
   197  100  101 1    
   198  100  102 1    
   199  100  221 1    
   200  101  222 1    
   201  101  223 1    
   202  101  224 1    
   203  102  103 2    
   204  102  104 am   BACKBONE|DICT|INTERRES
   205  104  105 1    
   206  104  225 1    
   207  105  106 1    
   208  105  107 1    
   209  105  226 1    
   210  106  227 1    
   211  106  228 1    
   212  106  229 1    
   213  107  108 2    
   214  107  109 am   BACKBONE|DICT|INTERRES
   215  109  110 1    
   216  109  230 1    
   217  110  111 1    
   218  110  112 1    
   219  110  231 1    
   220  111  232 1    
   221  111  233 1    
   222  111  234 1    
   223  112  113 2    
   224  112  114 am   BACKBONE|DICT|INTERRES
   225  114  115 1    
   226  114  235 1    
   227  115  116 1    
   228  115  117 1    
   229  115  236 1    
   230  116  237 1    
   231  116  238 1    
   232  116  239 1    
   233  117  118 2    
   234  117  119 am   BACKBONE|DICT|INTERRES
   235  119  120 1    
   236  119  240 1    
   237  120  121 1    
   238  120  124 1    
   239  120  241 1    
   240  121  122 am   BACKBONE|DICT|INTERRES
   241  121  123 2    
   242  122  242 1    
   243  122  243 1    
   244  124  125 1    
   245  124  244 1    
   246  124  245 1    
   247  125  126 1    
   248  126  246 1    
   249  126  247 1    
@<TRIPOS>SUBSTRUCTURE
     1 UNK         1 GROUP             0       ****    0 ROOT    
